MODEL 1
REMARK VINA RESULT:    -7.754      0.000      0.000
REMARK INTER + INTRA:          -9.518
REMARK INTER:                  -9.114
REMARK INTRA:                  -0.404
REMARK UNBOUND:                -0.404
REMARK  Name = 
REMARK  3 active torsions:
REMARK  status: ('A' for Active; 'I' for Inactive)
REMARK    1  A    between atoms: C_2  and  C_4
REMARK    2  A    between atoms: N_8  and  C_9
REMARK    3  A    between atoms: C_9  and  C_10
REMARK                            x       y       z     vdW  Elec       q    Type
REMARK                         _______ _______ _______ _____ _____    ______ ____
ROOT
ATOM      1  C   UNL     1      46.332   4.855  13.030  0.00  0.00    +0.000 A 
ATOM      2  C   UNL     1      46.584   5.928  12.183  0.00  0.00    +0.000 A 
ATOM      3  C   UNL     1      46.069   5.903  10.888  0.00  0.00    +0.000 A 
ATOM      4  C   UNL     1      45.338   4.799  10.451  0.00  0.00    +0.000 A 
ATOM      5  N   UNL     1      44.973   4.765   9.112  0.00  0.00    +0.000 N 
ATOM      6  N   UNL     1      45.094   3.752  11.261  0.00  0.00    +0.000 NA
ATOM      7  C   UNL     1      45.591   3.797  12.526  0.00  0.00    +0.000 A 
ATOM      8  H   UNL     1      44.454   5.580   8.813  0.00  0.00    +0.000 HD
ENDROOT
BRANCH   1  10
ATOM      9  N   UNL     1      47.499   5.879  14.899  0.00  0.00    +0.000 N 
ATOM     10  C   UNL     1      46.854   4.777  14.409  0.00  0.00    +0.000 C 
ATOM     11  O   UNL     1      46.698   3.778  15.097  0.00  0.00    +0.000 OA
ATOM     12  H   UNL     1      47.773   5.844  15.873  0.00  0.00    +0.000 HD
ATOM     13  H   UNL     1      47.454   6.786  14.458  0.00  0.00    +0.000 HD
ENDBRANCH   1  10
BRANCH   5  14
ATOM     14  C   UNL     1      44.519   3.513   8.535  0.00  0.00    +0.000 C 
BRANCH  14  15
ATOM     15  C   UNL     1      45.727   2.831   7.932  0.00  0.00    +0.000 A 
ATOM     16  C   UNL     1      45.968   1.477   8.206  0.00  0.00    +0.000 A 
ATOM     17  C   UNL     1      47.086   0.870   7.658  0.00  0.00    +0.000 A 
ATOM     18  N   UNL     1      47.961   1.508   6.854  0.00  0.00    +0.000 NA
ATOM     19  C   UNL     1      47.704   2.807   6.590  0.00  0.00    +0.000 A 
ATOM     20  C   UNL     1      46.616   3.506   7.095  0.00  0.00    +0.000 A 
ENDBRANCH  14  15
ENDBRANCH   5  14
TORSDOF 3
ENDMDL
MODEL 2
REMARK VINA RESULT:    -7.610      2.472      6.137
REMARK INTER + INTRA:          -9.349
REMARK INTER:                  -8.976
REMARK INTRA:                  -0.372
REMARK UNBOUND:                -0.404
REMARK  Name = 
REMARK  3 active torsions:
REMARK  status: ('A' for Active; 'I' for Inactive)
REMARK    1  A    between atoms: C_2  and  C_4
REMARK    2  A    between atoms: N_8  and  C_9
REMARK    3  A    between atoms: C_9  and  C_10
REMARK                            x       y       z     vdW  Elec       q    Type
REMARK                         _______ _______ _______ _____ _____    ______ ____
ROOT
ATOM      1  C   UNL     1      46.500   2.626   7.463  0.00  0.00    +0.000 A 
ATOM      2  C   UNL     1      45.941   1.652   8.284  0.00  0.00    +0.000 A 
ATOM      3  C   UNL     1      44.991   2.032   9.231  0.00  0.00    +0.000 A 
ATOM      4  C   UNL     1      44.636   3.373   9.363  0.00  0.00    +0.000 A 
ATOM      5  N   UNL     1      43.795   3.710  10.414  0.00  0.00    +0.000 N 
ATOM      6  N   UNL     1      45.176   4.323   8.578  0.00  0.00    +0.000 NA
ATOM      7  C   UNL     1      46.091   3.938   7.649  0.00  0.00    +0.000 A 
ATOM      8  H   UNL     1      42.927   3.190  10.422  0.00  0.00    +0.000 HD
ENDROOT
BRANCH   1  10
ATOM      9  N   UNL     1      47.541   3.102   5.320  0.00  0.00    +0.000 N 
ATOM     10  C   UNL     1      47.531   2.329   6.448  0.00  0.00    +0.000 C 
ATOM     11  O   UNL     1      48.358   1.444   6.616  0.00  0.00    +0.000 OA
ATOM     12  H   UNL     1      48.305   2.946   4.674  0.00  0.00    +0.000 HD
ATOM     13  H   UNL     1      47.032   3.970   5.242  0.00  0.00    +0.000 HD
ENDBRANCH   1  10
BRANCH   5  14
ATOM     14  C   UNL     1      43.668   5.103  10.800  0.00  0.00    +0.000 C 
BRANCH  14  15
ATOM     15  C   UNL     1      44.809   5.416  11.741  0.00  0.00    +0.000 A 
ATOM     16  C   UNL     1      44.995   4.635  12.891  0.00  0.00    +0.000 A 
ATOM     17  C   UNL     1      46.036   4.942  13.750  0.00  0.00    +0.000 A 
ATOM     18  N   UNL     1      46.903   5.953  13.538  0.00  0.00    +0.000 NA
ATOM     19  C   UNL     1      46.717   6.686  12.419  0.00  0.00    +0.000 A 
ATOM     20  C   UNL     1      45.701   6.461  11.499  0.00  0.00    +0.000 A 
ENDBRANCH  14  15
ENDBRANCH   5  14
TORSDOF 3
ENDMDL
MODEL 3
REMARK VINA RESULT:    -6.731      1.645      2.059
REMARK INTER + INTRA:          -8.315
REMARK INTER:                  -7.987
REMARK INTRA:                  -0.328
REMARK UNBOUND:                -0.404
REMARK  Name = 
REMARK  3 active torsions:
REMARK  status: ('A' for Active; 'I' for Inactive)
REMARK    1  A    between atoms: C_2  and  C_4
REMARK    2  A    between atoms: N_8  and  C_9
REMARK    3  A    between atoms: C_9  and  C_10
REMARK                            x       y       z     vdW  Elec       q    Type
REMARK                         _______ _______ _______ _____ _____    ______ ____
ROOT
ATOM      1  C   UNL     1      46.044   6.565  12.414  0.00  0.00    +0.000 A 
ATOM      2  C   UNL     1      45.373   5.491  12.989  0.00  0.00    +0.000 A 
ATOM      3  C   UNL     1      44.966   4.435  12.175  0.00  0.00    +0.000 A 
ATOM      4  C   UNL     1      45.208   4.479  10.803  0.00  0.00    +0.000 A 
ATOM      5  N   UNL     1      44.656   3.471  10.025  0.00  0.00    +0.000 N 
ATOM      6  N   UNL     1      45.851   5.517  10.237  0.00  0.00    +0.000 NA
ATOM      7  C   UNL     1      46.256   6.533  11.044  0.00  0.00    +0.000 A 
ATOM      8  H   UNL     1      44.915   2.540  10.324  0.00  0.00    +0.000 HD
ENDROOT
BRANCH   1  10
ATOM      9  N   UNL     1      47.778   7.728  13.657  0.00  0.00    +0.000 N 
ATOM     10  C   UNL     1      46.494   7.740  13.186  0.00  0.00    +0.000 C 
ATOM     11  O   UNL     1      45.759   8.699  13.378  0.00  0.00    +0.000 OA
ATOM     12  H   UNL     1      48.099   8.576  14.108  0.00  0.00    +0.000 HD
ATOM     13  H   UNL     1      48.476   7.074  13.338  0.00  0.00    +0.000 HD
ENDBRANCH   1  10
BRANCH   5  14
ATOM     14  C   UNL     1      44.587   3.646   8.586  0.00  0.00    +0.000 C 
BRANCH  14  15
ATOM     15  C   UNL     1      45.737   2.873   7.982  0.00  0.00    +0.000 A 
ATOM     16  C   UNL     1      45.879   1.507   8.265  0.00  0.00    +0.000 A 
ATOM     17  C   UNL     1      46.945   0.815   7.715  0.00  0.00    +0.000 A 
ATOM     18  N   UNL     1      47.859   1.379   6.902  0.00  0.00    +0.000 NA
ATOM     19  C   UNL     1      47.698   2.692   6.628  0.00  0.00    +0.000 A 
ATOM     20  C   UNL     1      46.668   3.473   7.134  0.00  0.00    +0.000 A 
ENDBRANCH  14  15
ENDBRANCH   5  14
TORSDOF 3
ENDMDL
MODEL 4
REMARK VINA RESULT:    -6.069      3.176      7.198
REMARK INTER + INTRA:          -7.537
REMARK INTER:                  -7.253
REMARK INTRA:                  -0.284
REMARK UNBOUND:                -0.404
REMARK  Name = 
REMARK  3 active torsions:
REMARK  status: ('A' for Active; 'I' for Inactive)
REMARK    1  A    between atoms: C_2  and  C_4
REMARK    2  A    between atoms: N_8  and  C_9
REMARK    3  A    between atoms: C_9  and  C_10
REMARK                            x       y       z     vdW  Elec       q    Type
REMARK                         _______ _______ _______ _____ _____    ______ ____
ROOT
ATOM      1  C   UNL     1      45.241   4.579  11.685  0.00  0.00    +0.000 A 
ATOM      2  C   UNL     1      45.712   5.829  12.072  0.00  0.00    +0.000 A 
ATOM      3  C   UNL     1      46.421   5.944  13.267  0.00  0.00    +0.000 A 
ATOM      4  C   UNL     1      46.622   4.821  14.068  0.00  0.00    +0.000 A 
ATOM      5  N   UNL     1      47.207   5.020  15.311  0.00  0.00    +0.000 N 
ATOM      6  N   UNL     1      46.164   3.608  13.706  0.00  0.00    +0.000 NA
ATOM      7  C   UNL     1      45.487   3.508  12.531  0.00  0.00    +0.000 A 
ATOM      8  H   UNL     1      48.099   5.496  15.267  0.00  0.00    +0.000 HD
ENDROOT
BRANCH   1  10
ATOM      9  N   UNL     1      44.945   4.908   9.296  0.00  0.00    +0.000 N 
ATOM     10  C   UNL     1      44.460   4.359  10.452  0.00  0.00    +0.000 C 
ATOM     11  O   UNL     1      43.434   3.694  10.454  0.00  0.00    +0.000 OA
ATOM     12  H   UNL     1      44.447   4.675   8.445  0.00  0.00    +0.000 HD
ATOM     13  H   UNL     1      45.884   5.265   9.207  0.00  0.00    +0.000 HD
ENDBRANCH   1  10
BRANCH   5  14
ATOM     14  C   UNL     1      47.132   3.966  16.305  0.00  0.00    +0.000 C 
BRANCH  14  15
ATOM     15  C   UNL     1      48.543   3.680  16.767  0.00  0.00    +0.000 A 
ATOM     16  C   UNL     1      49.033   2.367  16.733  0.00  0.00    +0.000 A 
ATOM     17  C   UNL     1      50.322   2.120  17.172  0.00  0.00    +0.000 A 
ATOM     18  N   UNL     1      51.152   3.080  17.624  0.00  0.00    +0.000 NA
ATOM     19  C   UNL     1      50.669   4.342  17.636  0.00  0.00    +0.000 A 
ATOM     20  C   UNL     1      49.390   4.691  17.223  0.00  0.00    +0.000 A 
ENDBRANCH  14  15
ENDBRANCH   5  14
TORSDOF 3
ENDMDL
MODEL 5
REMARK VINA RESULT:    -5.524      3.657      5.581
REMARK INTER + INTRA:          -6.897
REMARK INTER:                  -6.593
REMARK INTRA:                  -0.303
REMARK UNBOUND:                -0.404
REMARK  Name = 
REMARK  3 active torsions:
REMARK  status: ('A' for Active; 'I' for Inactive)
REMARK    1  A    between atoms: C_2  and  C_4
REMARK    2  A    between atoms: N_8  and  C_9
REMARK    3  A    between atoms: C_9  and  C_10
REMARK                            x       y       z     vdW  Elec       q    Type
REMARK                         _______ _______ _______ _____ _____    ______ ____
ROOT
ATOM      1  C   UNL     1      48.409   4.454  17.742  0.00  0.00    +0.000 A 
ATOM      2  C   UNL     1      48.716   5.578  16.983  0.00  0.00    +0.000 A 
ATOM      3  C   UNL     1      48.150   5.712  15.715  0.00  0.00    +0.000 A 
ATOM      4  C   UNL     1      47.315   4.714  15.216  0.00  0.00    +0.000 A 
ATOM      5  N   UNL     1      46.897   4.832  13.898  0.00  0.00    +0.000 N 
ATOM      6  N   UNL     1      47.017   3.620  15.941  0.00  0.00    +0.000 NA
ATOM      7  C   UNL     1      47.564   3.508  17.181  0.00  0.00    +0.000 A 
ATOM      8  H   UNL     1      46.436   5.710  13.696  0.00  0.00    +0.000 HD
ENDROOT
BRANCH   1  10
ATOM      9  N   UNL     1      48.340   3.290  19.873  0.00  0.00    +0.000 N 
ATOM     10  C   UNL     1      48.974   4.209  19.083  0.00  0.00    +0.000 C 
ATOM     11  O   UNL     1      49.983   4.785  19.468  0.00  0.00    +0.000 OA
ATOM     12  H   UNL     1      48.789   3.068  20.754  0.00  0.00    +0.000 HD
ATOM     13  H   UNL     1      47.654   2.640  19.521  0.00  0.00    +0.000 HD
ENDBRANCH   1  10
BRANCH   5  14
ATOM     14  C   UNL     1      46.321   3.679  13.233  0.00  0.00    +0.000 C 
BRANCH  14  15
ATOM     15  C   UNL     1      45.099   4.156  12.480  0.00  0.00    +0.000 A 
ATOM     16  C   UNL     1      44.862   3.694  11.178  0.00  0.00    +0.000 A 
ATOM     17  C   UNL     1      43.747   4.151  10.497  0.00  0.00    +0.000 A 
ATOM     18  N   UNL     1      42.855   5.015  11.022  0.00  0.00    +0.000 NA
ATOM     19  C   UNL     1      43.092   5.438  12.283  0.00  0.00    +0.000 A 
ATOM     20  C   UNL     1      44.183   5.043  13.046  0.00  0.00    +0.000 A 
ENDBRANCH  14  15
ENDBRANCH   5  14
TORSDOF 3
ENDMDL
MODEL 6
REMARK VINA RESULT:    -5.453      3.372      6.045
REMARK INTER + INTRA:          -6.814
REMARK INTER:                  -6.538
REMARK INTRA:                  -0.275
REMARK UNBOUND:                -0.404
REMARK  Name = 
REMARK  3 active torsions:
REMARK  status: ('A' for Active; 'I' for Inactive)
REMARK    1  A    between atoms: C_2  and  C_4
REMARK    2  A    between atoms: N_8  and  C_9
REMARK    3  A    between atoms: C_9  and  C_10
REMARK                            x       y       z     vdW  Elec       q    Type
REMARK                         _______ _______ _______ _____ _____    ______ ____
ROOT
ATOM      1  C   UNL     1      44.523   4.034  11.676  0.00  0.00    +0.000 A 
ATOM      2  C   UNL     1      45.233   3.976  12.871  0.00  0.00    +0.000 A 
ATOM      3  C   UNL     1      45.771   5.151  13.395  0.00  0.00    +0.000 A 
ATOM      4  C   UNL     1      45.618   6.355  12.708  0.00  0.00    +0.000 A 
ATOM      5  N   UNL     1      46.293   7.462  13.202  0.00  0.00    +0.000 N 
ATOM      6  N   UNL     1      44.937   6.420  11.549  0.00  0.00    +0.000 NA
ATOM      7  C   UNL     1      44.406   5.269  11.056  0.00  0.00    +0.000 A 
ATOM      8  H   UNL     1      46.085   7.664  14.172  0.00  0.00    +0.000 HD
ENDROOT
BRANCH   1  10
ATOM      9  N   UNL     1      44.554   2.376   9.901  0.00  0.00    +0.000 N 
ATOM     10  C   UNL     1      43.938   2.844  11.029  0.00  0.00    +0.000 C 
ATOM     11  O   UNL     1      42.955   2.282  11.491  0.00  0.00    +0.000 OA
ATOM     12  H   UNL     1      44.195   1.510   9.518  0.00  0.00    +0.000 HD
ATOM     13  H   UNL     1      45.478   2.665   9.618  0.00  0.00    +0.000 HD
ENDBRANCH   1  10
BRANCH   5  14
ATOM     14  C   UNL     1      46.444   8.632  12.359  0.00  0.00    +0.000 C 
BRANCH  14  15
ATOM     15  C   UNL     1      47.907   8.740  11.994  0.00  0.00    +0.000 A 
ATOM     16  C   UNL     1      48.710   7.590  11.997  0.00  0.00    +0.000 A 
ATOM     17  C   UNL     1      50.051   7.706  11.674  0.00  0.00    +0.000 A 
ATOM     18  N   UNL     1      50.638   8.873  11.339  0.00  0.00    +0.000 NA
ATOM     19  C   UNL     1      49.847   9.968  11.328  0.00  0.00    +0.000 A 
ATOM     20  C   UNL     1      48.494   9.955  11.641  0.00  0.00    +0.000 A 
ENDBRANCH  14  15
ENDBRANCH   5  14
TORSDOF 3
ENDMDL
MODEL 7
REMARK VINA RESULT:    -5.318      3.060      7.034
REMARK INTER + INTRA:          -6.655
REMARK INTER:                  -6.360
REMARK INTRA:                  -0.295
REMARK UNBOUND:                -0.404
REMARK  Name = 
REMARK  3 active torsions:
REMARK  status: ('A' for Active; 'I' for Inactive)
REMARK    1  A    between atoms: C_2  and  C_4
REMARK    2  A    between atoms: N_8  and  C_9
REMARK    3  A    between atoms: C_9  and  C_10
REMARK                            x       y       z     vdW  Elec       q    Type
REMARK                         _______ _______ _______ _____ _____    ______ ____
ROOT
ATOM      1  C   UNL     1      44.926   4.212  10.880  0.00  0.00    +0.000 A 
ATOM      2  C   UNL     1      45.038   3.622  12.134  0.00  0.00    +0.000 A 
ATOM      3  C   UNL     1      45.636   4.342  13.168  0.00  0.00    +0.000 A 
ATOM      4  C   UNL     1      46.135   5.621  12.929  0.00  0.00    +0.000 A 
ATOM      5  N   UNL     1      46.845   6.231  13.954  0.00  0.00    +0.000 N 
ATOM      6  N   UNL     1      46.037   6.198  11.717  0.00  0.00    +0.000 NA
ATOM      7  C   UNL     1      45.439   5.491  10.721  0.00  0.00    +0.000 A 
ATOM      8  H   UNL     1      46.331   6.290  14.823  0.00  0.00    +0.000 HD
ENDROOT
BRANCH   1  10
ATOM      9  N   UNL     1      44.150   4.260   8.578  0.00  0.00    +0.000 N 
ATOM     10  C   UNL     1      44.332   3.524   9.717  0.00  0.00    +0.000 C 
ATOM     11  O   UNL     1      44.035   2.338   9.757  0.00  0.00    +0.000 OA
ATOM     12  H   UNL     1      43.825   3.755   7.763  0.00  0.00    +0.000 HD
ATOM     13  H   UNL     1      44.579   5.161   8.430  0.00  0.00    +0.000 HD
ENDBRANCH   1  10
BRANCH   5  14
ATOM     14  C   UNL     1      47.662   7.392  13.654  0.00  0.00    +0.000 C 
BRANCH  14  15
ATOM     15  C   UNL     1      48.914   7.291  14.495  0.00  0.00    +0.000 A 
ATOM     16  C   UNL     1      48.875   6.610  15.720  0.00  0.00    +0.000 A 
ATOM     17  C   UNL     1      50.027   6.537  16.485  0.00  0.00    +0.000 A 
ATOM     18  N   UNL     1      51.204   7.077  16.112  0.00  0.00    +0.000 NA
ATOM     19  C   UNL     1      51.227   7.716  14.922  0.00  0.00    +0.000 A 
ATOM     20  C   UNL     1      50.126   7.848  14.086  0.00  0.00    +0.000 A 
ENDBRANCH  14  15
ENDBRANCH   5  14
TORSDOF 3
ENDMDL
MODEL 8
REMARK VINA RESULT:    -5.196      3.029      6.348
REMARK INTER + INTRA:          -6.511
REMARK INTER:                  -6.107
REMARK INTRA:                  -0.404
REMARK UNBOUND:                -0.404
REMARK  Name = 
REMARK  3 active torsions:
REMARK  status: ('A' for Active; 'I' for Inactive)
REMARK    1  A    between atoms: C_2  and  C_4
REMARK    2  A    between atoms: N_8  and  C_9
REMARK    3  A    between atoms: C_9  and  C_10
REMARK                            x       y       z     vdW  Elec       q    Type
REMARK                         _______ _______ _______ _____ _____    ______ ____
ROOT
ATOM      1  C   UNL     1      44.944   3.727  10.159  0.00  0.00    +0.000 A 
ATOM      2  C   UNL     1      45.042   3.304  11.480  0.00  0.00    +0.000 A 
ATOM      3  C   UNL     1      45.194   4.257  12.486  0.00  0.00    +0.000 A 
ATOM      4  C   UNL     1      45.274   5.610  12.157  0.00  0.00    +0.000 A 
ATOM      5  N   UNL     1      45.568   6.499  13.182  0.00  0.00    +0.000 N 
ATOM      6  N   UNL     1      45.187   6.029  10.881  0.00  0.00    +0.000 NA
ATOM      7  C   UNL     1      45.025   5.090   9.911  0.00  0.00    +0.000 A 
ATOM      8  H   UNL     1      44.931   6.439  13.965  0.00  0.00    +0.000 HD
ENDROOT
BRANCH   1  10
ATOM      9  N   UNL     1      44.455   1.505   9.308  0.00  0.00    +0.000 N 
ATOM     10  C   UNL     1      44.806   2.796   9.022  0.00  0.00    +0.000 C 
ATOM     11  O   UNL     1      44.976   3.164   7.868  0.00  0.00    +0.000 OA
ATOM     12  H   UNL     1      44.279   0.901   8.514  0.00  0.00    +0.000 HD
ATOM     13  H   UNL     1      44.093   1.218  10.204  0.00  0.00    +0.000 HD
ENDBRANCH   1  10
BRANCH   5  14
ATOM     14  C   UNL     1      45.992   7.846  12.849  0.00  0.00    +0.000 C 
BRANCH  14  15
ATOM     15  C   UNL     1      47.500   7.881  12.949  0.00  0.00    +0.000 A 
ATOM     16  C   UNL     1      48.109   8.045  14.202  0.00  0.00    +0.000 A 
ATOM     17  C   UNL     1      49.491   8.089  14.276  0.00  0.00    +0.000 A 
ATOM     18  N   UNL     1      50.299   7.967  13.204  0.00  0.00    +0.000 NA
ATOM     19  C   UNL     1      49.695   7.795  12.007  0.00  0.00    +0.000 A 
ATOM     20  C   UNL     1      48.319   7.744  11.828  0.00  0.00    +0.000 A 
ENDBRANCH  14  15
ENDBRANCH   5  14
TORSDOF 3
ENDMDL
MODEL 9
REMARK VINA RESULT:    -5.131      2.786      3.775
REMARK INTER + INTRA:          -6.435
REMARK INTER:                  -6.114
REMARK INTRA:                  -0.321
REMARK UNBOUND:                -0.404
REMARK  Name = 
REMARK  3 active torsions:
REMARK  status: ('A' for Active; 'I' for Inactive)
REMARK    1  A    between atoms: C_2  and  C_4
REMARK    2  A    between atoms: N_8  and  C_9
REMARK    3  A    between atoms: C_9  and  C_10
REMARK                            x       y       z     vdW  Elec       q    Type
REMARK                         _______ _______ _______ _____ _____    ______ ____
ROOT
ATOM      1  C   UNL     1      49.387   7.312  13.908  0.00  0.00    +0.000 A 
ATOM      2  C   UNL     1      49.446   7.769  12.596  0.00  0.00    +0.000 A 
ATOM      3  C   UNL     1      48.352   7.558  11.757  0.00  0.00    +0.000 A 
ATOM      4  C   UNL     1      47.234   6.872  12.229  0.00  0.00    +0.000 A 
ATOM      5  N   UNL     1      46.238   6.567  11.312  0.00  0.00    +0.000 N 
ATOM      6  N   UNL     1      47.170   6.421  13.495  0.00  0.00    +0.000 NA
ATOM      7  C   UNL     1      48.238   6.646  14.307  0.00  0.00    +0.000 A 
ATOM      8  H   UNL     1      45.882   7.374  10.816  0.00  0.00    +0.000 HD
ENDROOT
BRANCH   1  10
ATOM      9  N   UNL     1      51.742   7.710  14.348  0.00  0.00    +0.000 N 
ATOM     10  C   UNL     1      50.500   7.465  14.865  0.00  0.00    +0.000 C 
ATOM     11  O   UNL     1      50.319   7.399  16.073  0.00  0.00    +0.000 OA
ATOM     12  H   UNL     1      52.479   7.900  15.018  0.00  0.00    +0.000 HD
ATOM     13  H   UNL     1      51.896   7.992  13.392  0.00  0.00    +0.000 HD
ENDBRANCH   1  10
BRANCH   5  14
ATOM     14  C   UNL     1      45.233   5.580  11.661  0.00  0.00    +0.000 C 
BRANCH  14  15
ATOM     15  C   UNL     1      45.112   4.628  10.493  0.00  0.00    +0.000 A 
ATOM     16  C   UNL     1      44.509   3.376  10.678  0.00  0.00    +0.000 A 
ATOM     17  C   UNL     1      44.417   2.509   9.602  0.00  0.00    +0.000 A 
ATOM     18  N   UNL     1      44.866   2.806   8.367  0.00  0.00    +0.000 NA
ATOM     19  C   UNL     1      45.431   4.022   8.203  0.00  0.00    +0.000 A 
ATOM     20  C   UNL     1      45.575   4.958   9.219  0.00  0.00    +0.000 A 
ENDBRANCH  14  15
ENDBRANCH   5  14
TORSDOF 3
ENDMDL
