MODEL 1
REMARK VINA RESULT:    -8.394      0.000      0.000
REMARK INTER + INTRA:         -10.424
REMARK INTER:                  -9.866
REMARK INTRA:                  -0.557
REMARK UNBOUND:                -0.557
REMARK  Name = 
REMARK  3 active torsions:
REMARK  status: ('A' for Active; 'I' for Inactive)
REMARK    1  A    between atoms: C_2  and  C_4
REMARK    2  A    between atoms: N_11  and  C_12
REMARK    3  A    between atoms: C_12  and  C_13
REMARK                            x       y       z     vdW  Elec       q    Type
REMARK                         _______ _______ _______ _____ _____    ______ ____
ROOT
ATOM      1  C   UNL     1      46.163   7.517  12.677  0.00  0.00    +0.000 A 
ATOM      2  C   UNL     1      45.346   7.418  11.555  0.00  0.00    +0.000 A 
ATOM      3  N   UNL     1      44.870   6.264  11.015  0.00  0.00    +0.000 NA
ATOM      4  C   UNL     1      45.245   5.168  11.705  0.00  0.00    +0.000 A 
ATOM      5  C   UNL     1      46.030   5.131  12.856  0.00  0.00    +0.000 A 
ATOM      6  C   UNL     1      46.145   3.772  13.245  0.00  0.00    +0.000 A 
ATOM      7  C   UNL     1      45.452   3.016  12.325  0.00  0.00    +0.000 A 
ATOM      8  N   UNL     1      44.912   3.871  11.393  0.00  0.00    +0.000 N 
ATOM      9  C   UNL     1      46.510   6.351  13.364  0.00  0.00    +0.000 A 
ENDROOT
BRANCH   1  11
ATOM     10  N   UNL     1      47.120   8.963  14.380  0.00  0.00    +0.000 N 
ATOM     11  C   UNL     1      46.621   8.852  13.109  0.00  0.00    +0.000 C 
ATOM     12  O   UNL     1      46.595   9.816  12.354  0.00  0.00    +0.000 OA
ATOM     13  H   UNL     1      47.520   9.859  14.631  0.00  0.00    +0.000 HD
ATOM     14  H   UNL     1      47.377   8.163  14.940  0.00  0.00    +0.000 HD
ENDBRANCH   1  11
BRANCH   8  15
ATOM     15  C   UNL     1      44.136   3.457  10.231  0.00  0.00    +0.000 C 
BRANCH  15  16
ATOM     16  C   UNL     1      45.041   3.105   9.075  0.00  0.00    +0.000 A 
ATOM     17  C   UNL     1      45.555   4.102   8.234  0.00  0.00    +0.000 A 
ATOM     18  C   UNL     1      46.459   3.775   7.220  0.00  0.00    +0.000 A 
ATOM     19  C   UNL     1      46.858   2.449   7.032  0.00  0.00    +0.000 A 
ATOM     20 CL   UNL     1      48.015   2.127   5.790  0.00  0.00    +0.000 Cl
ATOM     21  C   UNL     1      46.333   1.442   7.849  0.00  0.00    +0.000 A 
ATOM     22 CL   UNL     1      46.768  -0.220   7.667  0.00  0.00    +0.000 Cl
ATOM     23  C   UNL     1      45.430   1.771   8.865  0.00  0.00    +0.000 A 
ENDBRANCH  15  16
ENDBRANCH   8  15
TORSDOF 3
ENDMDL
MODEL 2
REMARK VINA RESULT:    -8.194      2.022      2.724
REMARK INTER + INTRA:         -10.189
REMARK INTER:                  -9.799
REMARK INTRA:                  -0.390
REMARK UNBOUND:                -0.557
REMARK  Name = 
REMARK  3 active torsions:
REMARK  status: ('A' for Active; 'I' for Inactive)
REMARK    1  A    between atoms: C_2  and  C_4
REMARK    2  A    between atoms: N_11  and  C_12
REMARK    3  A    between atoms: C_12  and  C_13
REMARK                            x       y       z     vdW  Elec       q    Type
REMARK                         _______ _______ _______ _____ _____    ______ ____
ROOT
ATOM      1  C   UNL     1      46.939   4.807  14.299  0.00  0.00    +0.000 A 
ATOM      2  C   UNL     1      46.758   3.566  13.696  0.00  0.00    +0.000 A 
ATOM      3  N   UNL     1      45.941   3.305  12.641  0.00  0.00    +0.000 NA
ATOM      4  C   UNL     1      45.311   4.404  12.180  0.00  0.00    +0.000 A 
ATOM      5  C   UNL     1      45.428   5.703  12.670  0.00  0.00    +0.000 A 
ATOM      6  C   UNL     1      44.605   6.533  11.865  0.00  0.00    +0.000 A 
ATOM      7  C   UNL     1      43.997   5.730  10.925  0.00  0.00    +0.000 A 
ATOM      8  N   UNL     1      44.429   4.440  11.125  0.00  0.00    +0.000 N 
ATOM      9  C   UNL     1      46.273   5.917  13.773  0.00  0.00    +0.000 A 
ENDROOT
BRANCH   1  11
ATOM     10  N   UNL     1      48.199   6.166  15.873  0.00  0.00    +0.000 N 
ATOM     11  C   UNL     1      47.840   4.908  15.464  0.00  0.00    +0.000 C 
ATOM     12  O   UNL     1      48.221   3.915  16.070  0.00  0.00    +0.000 OA
ATOM     13  H   UNL     1      48.736   6.227  16.729  0.00  0.00    +0.000 HD
ATOM     14  H   UNL     1      47.725   7.001  15.558  0.00  0.00    +0.000 HD
ENDBRANCH   1  11
BRANCH   8  15
ATOM     15  C   UNL     1      43.987   3.283  10.358  0.00  0.00    +0.000 C 
BRANCH  15  16
ATOM     16  C   UNL     1      44.911   3.022   9.193  0.00  0.00    +0.000 A 
ATOM     17  C   UNL     1      45.387   4.077   8.402  0.00  0.00    +0.000 A 
ATOM     18  C   UNL     1      46.308   3.835   7.379  0.00  0.00    +0.000 A 
ATOM     19  C   UNL     1      46.762   2.537   7.133  0.00  0.00    +0.000 A 
ATOM     20 CL   UNL     1      47.937   2.321   5.884  0.00  0.00    +0.000 Cl
ATOM     21  C   UNL     1      46.275   1.472   7.898  0.00  0.00    +0.000 A 
ATOM     22 CL   UNL     1      46.778  -0.161   7.642  0.00  0.00    +0.000 Cl
ATOM     23  C   UNL     1      45.354   1.717   8.923  0.00  0.00    +0.000 A 
ENDBRANCH  15  16
ENDBRANCH   8  15
TORSDOF 3
ENDMDL
MODEL 3
REMARK VINA RESULT:    -7.835      4.182      6.617
REMARK INTER + INTRA:          -9.766
REMARK INTER:                  -9.411
REMARK INTRA:                  -0.355
REMARK UNBOUND:                -0.557
REMARK  Name = 
REMARK  3 active torsions:
REMARK  status: ('A' for Active; 'I' for Inactive)
REMARK    1  A    between atoms: C_2  and  C_4
REMARK    2  A    between atoms: N_11  and  C_12
REMARK    3  A    between atoms: C_12  and  C_13
REMARK                            x       y       z     vdW  Elec       q    Type
REMARK                         _______ _______ _______ _____ _____    ______ ____
ROOT
ATOM      1  C   UNL     1      46.571   2.763   7.540  0.00  0.00    +0.000 A 
ATOM      2  C   UNL     1      46.413   4.143   7.638  0.00  0.00    +0.000 A 
ATOM      3  N   UNL     1      45.596   4.789   8.511  0.00  0.00    +0.000 NA
ATOM      4  C   UNL     1      44.940   3.950   9.338  0.00  0.00    +0.000 A 
ATOM      5  C   UNL     1      45.033   2.560   9.365  0.00  0.00    +0.000 A 
ATOM      6  C   UNL     1      44.188   2.102  10.409  0.00  0.00    +0.000 A 
ATOM      7  C   UNL     1      43.591   3.206  10.977  0.00  0.00    +0.000 A 
ATOM      8  N   UNL     1      44.051   4.323  10.319  0.00  0.00    +0.000 N 
ATOM      9  C   UNL     1      45.879   1.939   8.431  0.00  0.00    +0.000 A 
ENDROOT
BRANCH   1  11
ATOM     10  N   UNL     1      47.750   3.025   5.430  0.00  0.00    +0.000 N 
ATOM     11  C   UNL     1      47.477   2.223   6.507  0.00  0.00    +0.000 C 
ATOM     12  O   UNL     1      47.998   1.121   6.621  0.00  0.00    +0.000 OA
ATOM     13  H   UNL     1      48.446   2.685   4.778  0.00  0.00    +0.000 HD
ATOM     14  H   UNL     1      47.538   4.013   5.415  0.00  0.00    +0.000 HD
ENDBRANCH   1  11
BRANCH   8  15
ATOM     15  C   UNL     1      43.629   5.689  10.598  0.00  0.00    +0.000 C 
BRANCH  15  16
ATOM     16  C   UNL     1      44.655   6.412  11.436  0.00  0.00    +0.000 A 
ATOM     17  C   UNL     1      44.736   7.811  11.425  0.00  0.00    +0.000 A 
ATOM     18  C   UNL     1      45.632   8.475  12.269  0.00  0.00    +0.000 A 
ATOM     19  C   UNL     1      46.458   7.749  13.130  0.00  0.00    +0.000 A 
ATOM     20 CL   UNL     1      47.506   8.639  14.177  0.00  0.00    +0.000 Cl
ATOM     21  C   UNL     1      46.405   6.351  13.132  0.00  0.00    +0.000 A 
ATOM     22 CL   UNL     1      47.406   5.386  14.157  0.00  0.00    +0.000 Cl
ATOM     23  C   UNL     1      45.507   5.688  12.288  0.00  0.00    +0.000 A 
ENDBRANCH  15  16
ENDBRANCH   8  15
TORSDOF 3
ENDMDL
MODEL 4
REMARK VINA RESULT:    -5.986      4.201      6.723
REMARK INTER + INTRA:          -7.593
REMARK INTER:                  -7.077
REMARK INTRA:                  -0.516
REMARK UNBOUND:                -0.557
REMARK  Name = 
REMARK  3 active torsions:
REMARK  status: ('A' for Active; 'I' for Inactive)
REMARK    1  A    between atoms: C_2  and  C_4
REMARK    2  A    between atoms: N_11  and  C_12
REMARK    3  A    between atoms: C_12  and  C_13
REMARK                            x       y       z     vdW  Elec       q    Type
REMARK                         _______ _______ _______ _____ _____    ______ ____
ROOT
ATOM      1  C   UNL     1      44.906   3.895  11.378  0.00  0.00    +0.000 A 
ATOM      2  C   UNL     1      45.038   5.059  10.626  0.00  0.00    +0.000 A 
ATOM      3  N   UNL     1      45.755   6.158  10.981  0.00  0.00    +0.000 NA
ATOM      4  C   UNL     1      46.385   6.016  12.164  0.00  0.00    +0.000 A 
ATOM      5  C   UNL     1      46.362   4.897  12.996  0.00  0.00    +0.000 A 
ATOM      6  C   UNL     1      47.185   5.187  14.114  0.00  0.00    +0.000 A 
ATOM      7  C   UNL     1      47.671   6.465  13.953  0.00  0.00    +0.000 A 
ATOM      8  N   UNL     1      47.180   6.961  12.769  0.00  0.00    +0.000 N 
ATOM      9  C   UNL     1      45.592   3.793  12.591  0.00  0.00    +0.000 A 
ENDROOT
BRANCH   1  11
ATOM     10  N   UNL     1      44.516   2.117   9.767  0.00  0.00    +0.000 N 
ATOM     11  C   UNL     1      44.056   2.805  10.860  0.00  0.00    +0.000 C 
ATOM     12  O   UNL     1      43.003   2.497  11.402  0.00  0.00    +0.000 OA
ATOM     13  H   UNL     1      43.974   1.311   9.480  0.00  0.00    +0.000 HD
ATOM     14  H   UNL     1      45.470   2.179   9.442  0.00  0.00    +0.000 HD
ENDBRANCH   1  11
BRANCH   8  15
ATOM     15  C   UNL     1      47.433   8.301  12.255  0.00  0.00    +0.000 C 
BRANCH  15  16
ATOM     16  C   UNL     1      48.915   8.574  12.164  0.00  0.00    +0.000 A 
ATOM     17  C   UNL     1      49.523   9.525  12.995  0.00  0.00    +0.000 A 
ATOM     18  C   UNL     1      50.908   9.710  12.963  0.00  0.00    +0.000 A 
ATOM     19  C   UNL     1      51.701   8.949  12.101  0.00  0.00    +0.000 A 
ATOM     20 CL   UNL     1      53.410   9.199  12.151  0.00  0.00    +0.000 Cl
ATOM     21  C   UNL     1      51.103   8.014  11.249  0.00  0.00    +0.000 A 
ATOM     22 CL   UNL     1      52.015   7.048  10.145  0.00  0.00    +0.000 Cl
ATOM     23  C   UNL     1      49.716   7.829  11.283  0.00  0.00    +0.000 A 
ENDBRANCH  15  16
ENDBRANCH   8  15
TORSDOF 3
ENDMDL
MODEL 5
REMARK VINA RESULT:    -5.984      5.427      8.380
REMARK INTER + INTRA:          -7.591
REMARK INTER:                  -7.085
REMARK INTRA:                  -0.506
REMARK UNBOUND:                -0.557
REMARK  Name = 
REMARK  3 active torsions:
REMARK  status: ('A' for Active; 'I' for Inactive)
REMARK    1  A    between atoms: C_2  and  C_4
REMARK    2  A    between atoms: N_11  and  C_12
REMARK    3  A    between atoms: C_12  and  C_13
REMARK                            x       y       z     vdW  Elec       q    Type
REMARK                         _______ _______ _______ _____ _____    ______ ____
ROOT
ATOM      1  C   UNL     1      45.549   4.295  12.639  0.00  0.00    +0.000 A 
ATOM      2  C   UNL     1      46.600   3.918  13.471  0.00  0.00    +0.000 A 
ATOM      3  N   UNL     1      47.517   4.757  14.024  0.00  0.00    +0.000 NA
ATOM      4  C   UNL     1      47.300   6.051  13.714  0.00  0.00    +0.000 A 
ATOM      5  C   UNL     1      46.272   6.561  12.923  0.00  0.00    +0.000 A 
ATOM      6  C   UNL     1      46.425   7.971  12.892  0.00  0.00    +0.000 A 
ATOM      7  C   UNL     1      47.539   8.286  13.640  0.00  0.00    +0.000 A 
ATOM      8  N   UNL     1      48.064   7.115  14.132  0.00  0.00    +0.000 N 
ATOM      9  C   UNL     1      45.360   5.651  12.361  0.00  0.00    +0.000 A 
ENDROOT
BRANCH   1  11
ATOM     10  N   UNL     1      44.925   2.804  10.823  0.00  0.00    +0.000 N 
ATOM     11  C   UNL     1      44.663   3.248  12.093  0.00  0.00    +0.000 C 
ATOM     12  O   UNL     1      43.756   2.762  12.757  0.00  0.00    +0.000 OA
ATOM     13  H   UNL     1      44.374   2.020  10.496  0.00  0.00    +0.000 HD
ATOM     14  H   UNL     1      45.791   3.001  10.341  0.00  0.00    +0.000 HD
ENDBRANCH   1  11
BRANCH   8  15
ATOM     15  C   UNL     1      49.271   7.017  14.942  0.00  0.00    +0.000 C 
BRANCH  15  16
ATOM     16  C   UNL     1      48.931   6.925  16.410  0.00  0.00    +0.000 A 
ATOM     17  C   UNL     1      48.528   8.060  17.128  0.00  0.00    +0.000 A 
ATOM     18  C   UNL     1      48.134   7.949  18.464  0.00  0.00    +0.000 A 
ATOM     19  C   UNL     1      48.139   6.704  19.099  0.00  0.00    +0.000 A 
ATOM     20 CL   UNL     1      47.593   6.637  20.737  0.00  0.00    +0.000 Cl
ATOM     21  C   UNL     1      48.563   5.569  18.401  0.00  0.00    +0.000 A 
ATOM     22 CL   UNL     1      48.611   4.000  19.124  0.00  0.00    +0.000 Cl
ATOM     23  C   UNL     1      48.956   5.681  17.063  0.00  0.00    +0.000 A 
ENDBRANCH  15  16
ENDBRANCH   8  15
TORSDOF 3
ENDMDL
MODEL 6
REMARK VINA RESULT:    -5.588      4.768      6.631
REMARK INTER + INTRA:          -7.126
REMARK INTER:                  -6.574
REMARK INTRA:                  -0.552
REMARK UNBOUND:                -0.557
REMARK  Name = 
REMARK  3 active torsions:
REMARK  status: ('A' for Active; 'I' for Inactive)
REMARK    1  A    between atoms: C_2  and  C_4
REMARK    2  A    between atoms: N_11  and  C_12
REMARK    3  A    between atoms: C_12  and  C_13
REMARK                            x       y       z     vdW  Elec       q    Type
REMARK                         _______ _______ _______ _____ _____    ______ ____
ROOT
ATOM      1  C   UNL     1      48.665   5.307  18.328  0.00  0.00    +0.000 A 
ATOM      2  C   UNL     1      48.671   4.554  17.157  0.00  0.00    +0.000 A 
ATOM      3  N   UNL     1      48.646   5.052  15.891  0.00  0.00    +0.000 NA
ATOM      4  C   UNL     1      48.646   6.400  15.856  0.00  0.00    +0.000 A 
ATOM      5  C   UNL     1      48.671   7.265  16.948  0.00  0.00    +0.000 A 
ATOM      6  C   UNL     1      48.686   8.588  16.437  0.00  0.00    +0.000 A 
ATOM      7  C   UNL     1      48.652   8.504  15.062  0.00  0.00    +0.000 A 
ATOM      8  N   UNL     1      48.625   7.172  14.719  0.00  0.00    +0.000 N 
ATOM      9  C   UNL     1      48.680   6.700  18.235  0.00  0.00    +0.000 A 
ENDROOT
BRANCH   1  11
ATOM     10  N   UNL     1      48.371   3.263  19.610  0.00  0.00    +0.000 N 
ATOM     11  C   UNL     1      48.657   4.603  19.625  0.00  0.00    +0.000 C 
ATOM     12  O   UNL     1      48.934   5.177  20.670  0.00  0.00    +0.000 OA
ATOM     13  H   UNL     1      48.465   2.771  20.491  0.00  0.00    +0.000 HD
ATOM     14  H   UNL     1      48.373   2.711  18.764  0.00  0.00    +0.000 HD
ENDBRANCH   1  11
BRANCH   8  15
ATOM     15  C   UNL     1      48.547   6.663  13.356  0.00  0.00    +0.000 C 
BRANCH  15  16
ATOM     16  C   UNL     1      47.111   6.469  12.933  0.00  0.00    +0.000 A 
ATOM     17  C   UNL     1      46.340   7.553  12.490  0.00  0.00    +0.000 A 
ATOM     18  C   UNL     1      45.040   7.350  12.019  0.00  0.00    +0.000 A 
ATOM     19  C   UNL     1      44.494   6.064  11.988  0.00  0.00    +0.000 A 
ATOM     20 CL   UNL     1      42.899   5.884  11.350  0.00  0.00    +0.000 Cl
ATOM     21  C   UNL     1      45.244   4.979  12.452  0.00  0.00    +0.000 A 
ATOM     22 CL   UNL     1      44.632   3.363  12.459  0.00  0.00    +0.000 Cl
ATOM     23  C   UNL     1      46.547   5.183  12.921  0.00  0.00    +0.000 A 
ENDBRANCH  15  16
ENDBRANCH   8  15
TORSDOF 3
ENDMDL
MODEL 7
REMARK VINA RESULT:    -5.465      2.530      4.205
REMARK INTER + INTRA:          -6.981
REMARK INTER:                  -6.684
REMARK INTRA:                  -0.297
REMARK UNBOUND:                -0.557
REMARK  Name = 
REMARK  3 active torsions:
REMARK  status: ('A' for Active; 'I' for Inactive)
REMARK    1  A    between atoms: C_2  and  C_4
REMARK    2  A    between atoms: N_11  and  C_12
REMARK    3  A    between atoms: C_12  and  C_13
REMARK                            x       y       z     vdW  Elec       q    Type
REMARK                         _______ _______ _______ _____ _____    ______ ____
ROOT
ATOM      1  C   UNL     1      49.157   8.001  13.480  0.00  0.00    +0.000 A 
ATOM      2  C   UNL     1      48.567   6.804  13.876  0.00  0.00    +0.000 A 
ATOM      3  N   UNL     1      47.271   6.448  13.668  0.00  0.00    +0.000 NA
ATOM      4  C   UNL     1      46.573   7.379  12.985  0.00  0.00    +0.000 A 
ATOM      5  C   UNL     1      47.051   8.597  12.506  0.00  0.00    +0.000 A 
ATOM      6  C   UNL     1      45.977   9.234  11.831  0.00  0.00    +0.000 A 
ATOM      7  C   UNL     1      44.877   8.409  11.929  0.00  0.00    +0.000 A 
ATOM      8  N   UNL     1      45.248   7.288  12.632  0.00  0.00    +0.000 N 
ATOM      9  C   UNL     1      48.393   8.924  12.762  0.00  0.00    +0.000 A 
ENDROOT
BRANCH   1  11
ATOM     10  N   UNL     1      51.508   7.936  12.866  0.00  0.00    +0.000 N 
ATOM     11  C   UNL     1      50.573   8.243  13.820  0.00  0.00    +0.000 C 
ATOM     12  O   UNL     1      50.902   8.734  14.891  0.00  0.00    +0.000 OA
ATOM     13  H   UNL     1      52.465   8.197  13.072  0.00  0.00    +0.000 HD
ATOM     14  H   UNL     1      51.269   7.759  11.901  0.00  0.00    +0.000 HD
ENDBRANCH   1  11
BRANCH   8  15
ATOM     15  C   UNL     1      44.357   6.189  12.982  0.00  0.00    +0.000 C 
BRANCH  15  16
ATOM     16  C   UNL     1      44.479   5.057  11.991  0.00  0.00    +0.000 A 
ATOM     17  C   UNL     1      43.913   3.803  12.259  0.00  0.00    +0.000 A 
ATOM     18  C   UNL     1      43.958   2.787  11.299  0.00  0.00    +0.000 A 
ATOM     19  C   UNL     1      44.571   3.012  10.064  0.00  0.00    +0.000 A 
ATOM     20 CL   UNL     1      44.546   1.725   8.910  0.00  0.00    +0.000 Cl
ATOM     21  C   UNL     1      45.161   4.251   9.795  0.00  0.00    +0.000 A 
ATOM     22 CL   UNL     1      45.950   4.597   8.297  0.00  0.00    +0.000 Cl
ATOM     23  C   UNL     1      45.114   5.267  10.755  0.00  0.00    +0.000 A 
ENDBRANCH  15  16
ENDBRANCH   8  15
TORSDOF 3
ENDMDL
