MODEL 1
REMARK VINA RESULT:    -7.332      0.000      0.000
REMARK INTER + INTRA:         -11.045
REMARK INTER:                  -9.904
REMARK INTRA:                  -1.141
REMARK UNBOUND:                -1.141
REMARK  Name = 
REMARK  9 active torsions:
REMARK  status: ('A' for Active; 'I' for Inactive)
REMARK    1  A    between atoms: C_1  and  C_2
REMARK    2  A    between atoms: C_7  and  C_8
REMARK    3  A    between atoms: C_12  and  C_13
REMARK    4  A    between atoms: C_13  and  O_14
REMARK    5  A    between atoms: O_14  and  C_15
REMARK    6  A    between atoms: C_15  and  C_16
REMARK    7  A    between atoms: C_16  and  C_17
REMARK    8  A    between atoms: C_16  and  C_18
REMARK    9  A    between atoms: C_16  and  C_19
REMARK                            x       y       z     vdW  Elec       q    Type
REMARK                         _______ _______ _______ _____ _____    ______ ____
ROOT
ATOM      1  C   UNL     1      45.682   6.224  11.494  0.00  0.00    +0.000 A 
ATOM      2  C   UNL     1      44.907   7.394  11.590  0.00  0.00    +0.000 A 
ATOM      3  C   UNL     1      45.275   8.455  12.424  0.00  0.00    +0.000 A 
ATOM      4  C   UNL     1      46.461   8.391  13.154  0.00  0.00    +0.000 A 
ATOM      5  C   UNL     1      47.275   7.260  13.069  0.00  0.00    +0.000 A 
ATOM      6  C   UNL     1      46.847   6.176  12.282  0.00  0.00    +0.000 A 
ENDROOT
BRANCH   1  13
ATOM      7  C   UNL     1      43.997   3.792  12.482  0.00  0.00    +0.000 C 
ATOM      8  C   UNL     1      44.491   3.975  11.073  0.00  0.00    +0.000 A 
ATOM      9  N   UNL     1      44.134   2.949  10.245  0.00  0.00    +0.000 NA
ATOM     10  C   UNL     1      44.542   2.989   8.963  0.00  0.00    +0.000 A 
ATOM     11  C   UNL     1      45.294   4.017   8.442  0.00  0.00    +0.000 A 
ATOM     12  C   UNL     1      45.642   5.065   9.287  0.00  0.00    +0.000 A 
ATOM     13  C   UNL     1      45.257   5.080  10.644  0.00  0.00    +0.000 A 
ENDBRANCH   1  13
BRANCH   5  14
ATOM     14  C   UNL     1      48.561   7.171  13.853  0.00  0.00    +0.000 C 
BRANCH  14  15
ATOM     15  O   UNL     1      48.594   5.943  14.587  0.00  0.00    +0.000 OA
BRANCH  15  16
ATOM     16  C   UNL     1      48.606   6.157  15.999  0.00  0.00    +0.000 C 
BRANCH  16  17
ATOM     17  C   UNL     1      48.272   4.857  16.784  0.00  0.00    +0.000 C 
ATOM     18  C   UNL     1      47.221   4.042  16.001  0.00  0.00    +0.000 C 
ATOM     19  C   UNL     1      47.656   5.299  18.133  0.00  0.00    +0.000 C 
BRANCH  17  20
ATOM     20  C   UNL     1      49.470   3.948  17.093  0.00  0.00    +0.000 A 
ATOM     21  C   UNL     1      49.421   2.555  17.014  0.00  0.00    +0.000 A 
ATOM     22  C   UNL     1      50.570   1.805  17.275  0.00  0.00    +0.000 A 
ATOM     23  C   UNL     1      51.746   2.455  17.616  0.00  0.00    +0.000 A 
ATOM     24 CL   UNL     1      53.182   1.571  17.926  0.00  0.00    +0.000 Cl
ATOM     25  C   UNL     1      51.724   3.834  17.692  0.00  0.00    +0.000 A 
ATOM     26  N   UNL     1      50.625   4.584  17.436  0.00  0.00    +0.000 NA
ENDBRANCH  17  20
ENDBRANCH  16  17
ENDBRANCH  15  16
ENDBRANCH  14  15
ENDBRANCH   5  14
TORSDOF 6
ENDMDL
MODEL 2
REMARK VINA RESULT:    -7.050      3.326      7.701
REMARK INTER + INTRA:         -10.664
REMARK INTER:                  -9.432
REMARK INTRA:                  -1.232
REMARK UNBOUND:                -1.141
REMARK  Name = 
REMARK  9 active torsions:
REMARK  status: ('A' for Active; 'I' for Inactive)
REMARK    1  A    between atoms: C_1  and  C_2
REMARK    2  A    between atoms: C_7  and  C_8
REMARK    3  A    between atoms: C_12  and  C_13
REMARK    4  A    between atoms: C_13  and  O_14
REMARK    5  A    between atoms: O_14  and  C_15
REMARK    6  A    between atoms: C_15  and  C_16
REMARK    7  A    between atoms: C_16  and  C_17
REMARK    8  A    between atoms: C_16  and  C_18
REMARK    9  A    between atoms: C_16  and  C_19
REMARK                            x       y       z     vdW  Elec       q    Type
REMARK                         _______ _______ _______ _____ _____    ______ ____
ROOT
ATOM      1  C   UNL     1      48.229   6.770  14.131  0.00  0.00    +0.000 A 
ATOM      2  C   UNL     1      49.182   7.081  13.143  0.00  0.00    +0.000 A 
ATOM      3  C   UNL     1      48.813   7.326  11.816  0.00  0.00    +0.000 A 
ATOM      4  C   UNL     1      47.469   7.312  11.449  0.00  0.00    +0.000 A 
ATOM      5  C   UNL     1      46.487   7.034  12.403  0.00  0.00    +0.000 A 
ATOM      6  C   UNL     1      46.886   6.718  13.713  0.00  0.00    +0.000 A 
ENDROOT
BRANCH   1  13
ATOM      7  C   UNL     1      47.365   4.230  15.722  0.00  0.00    +0.000 C 
ATOM      8  C   UNL     1      48.256   5.316  16.260  0.00  0.00    +0.000 A 
ATOM      9  N   UNL     1      48.657   5.088  17.547  0.00  0.00    +0.000 NA
ATOM     10  C   UNL     1      49.438   6.005  18.146  0.00  0.00    +0.000 A 
ATOM     11  C   UNL     1      49.863   7.157  17.525  0.00  0.00    +0.000 A 
ATOM     12  C   UNL     1      49.462   7.376  16.210  0.00  0.00    +0.000 A 
ATOM     13  C   UNL     1      48.634   6.462  15.528  0.00  0.00    +0.000 A 
ENDBRANCH   1  13
BRANCH   5  14
ATOM     14  C   UNL     1      45.026   7.011  12.026  0.00  0.00    +0.000 C 
BRANCH  14  15
ATOM     15  O   UNL     1      44.390   5.880  12.628  0.00  0.00    +0.000 OA
BRANCH  15  16
ATOM     16  C   UNL     1      43.651   5.108  11.681  0.00  0.00    +0.000 C 
BRANCH  16  17
ATOM     17  C   UNL     1      44.309   3.723  11.424  0.00  0.00    +0.000 C 
ATOM     18  C   UNL     1      43.260   2.610  11.633  0.00  0.00    +0.000 C 
ATOM     19  C   UNL     1      45.428   3.560  12.480  0.00  0.00    +0.000 C 
BRANCH  17  20
ATOM     20  C   UNL     1      44.945   3.545  10.037  0.00  0.00    +0.000 A 
ATOM     21  C   UNL     1      45.375   4.610   9.245  0.00  0.00    +0.000 A 
ATOM     22  C   UNL     1      45.979   4.357   8.010  0.00  0.00    +0.000 A 
ATOM     23  C   UNL     1      46.136   3.047   7.585  0.00  0.00    +0.000 A 
ATOM     24 CL   UNL     1      46.888   2.693   6.085  0.00  0.00    +0.000 Cl
ATOM     25  C   UNL     1      45.675   2.039   8.409  0.00  0.00    +0.000 A 
ATOM     26  N   UNL     1      45.094   2.259   9.613  0.00  0.00    +0.000 NA
ENDBRANCH  17  20
ENDBRANCH  16  17
ENDBRANCH  15  16
ENDBRANCH  14  15
ENDBRANCH   5  14
TORSDOF 6
ENDMDL
MODEL 3
REMARK VINA RESULT:    -6.621      2.204      3.214
REMARK INTER + INTRA:         -10.084
REMARK INTER:                  -8.544
REMARK INTRA:                  -1.541
REMARK UNBOUND:                -1.141
REMARK  Name = 
REMARK  9 active torsions:
REMARK  status: ('A' for Active; 'I' for Inactive)
REMARK    1  A    between atoms: C_1  and  C_2
REMARK    2  A    between atoms: C_7  and  C_8
REMARK    3  A    between atoms: C_12  and  C_13
REMARK    4  A    between atoms: C_13  and  O_14
REMARK    5  A    between atoms: O_14  and  C_15
REMARK    6  A    between atoms: C_15  and  C_16
REMARK    7  A    between atoms: C_16  and  C_17
REMARK    8  A    between atoms: C_16  and  C_18
REMARK    9  A    between atoms: C_16  and  C_19
REMARK                            x       y       z     vdW  Elec       q    Type
REMARK                         _______ _______ _______ _____ _____    ______ ____
ROOT
ATOM      1  C   UNL     1      45.643   6.546  11.848  0.00  0.00    +0.000 A 
ATOM      2  C   UNL     1      44.971   7.781  11.898  0.00  0.00    +0.000 A 
ATOM      3  C   UNL     1      45.659   8.987  12.068  0.00  0.00    +0.000 A 
ATOM      4  C   UNL     1      47.051   8.993  12.147  0.00  0.00    +0.000 A 
ATOM      5  C   UNL     1      47.761   7.792  12.074  0.00  0.00    +0.000 A 
ATOM      6  C   UNL     1      47.043   6.587  11.978  0.00  0.00    +0.000 A 
ENDROOT
BRANCH   1  13
ATOM      7  C   UNL     1      45.420   4.867   9.228  0.00  0.00    +0.000 C 
ATOM      8  C   UNL     1      44.793   4.490  10.542  0.00  0.00    +0.000 A 
ATOM      9  N   UNL     1      44.090   3.320  10.482  0.00  0.00    +0.000 NA
ATOM     10  C   UNL     1      43.462   2.893  11.593  0.00  0.00    +0.000 A 
ATOM     11  C   UNL     1      43.499   3.570  12.790  0.00  0.00    +0.000 A 
ATOM     12  C   UNL     1      44.228   4.754  12.848  0.00  0.00    +0.000 A 
ATOM     13  C   UNL     1      44.900   5.265  11.718  0.00  0.00    +0.000 A 
ENDBRANCH   1  13
BRANCH   5  14
ATOM     14  C   UNL     1      49.267   7.778  12.160  0.00  0.00    +0.000 C 
BRANCH  14  15
ATOM     15  O   UNL     1      49.693   8.539  13.294  0.00  0.00    +0.000 OA
BRANCH  15  16
ATOM     16  C   UNL     1      50.297   7.722  14.298  0.00  0.00    +0.000 C 
BRANCH  16  17
ATOM     17  C   UNL     1      49.576   7.861  15.669  0.00  0.00    +0.000 C 
ATOM     18  C   UNL     1      48.431   8.888  15.543  0.00  0.00    +0.000 C 
ATOM     19  C   UNL     1      50.625   8.402  16.669  0.00  0.00    +0.000 C 
BRANCH  17  20
ATOM     20  C   UNL     1      49.007   6.557  16.247  0.00  0.00    +0.000 A 
ATOM     21  C   UNL     1      49.188   6.160  17.573  0.00  0.00    +0.000 A 
ATOM     22  C   UNL     1      48.602   4.975  18.028  0.00  0.00    +0.000 A 
ATOM     23  C   UNL     1      47.854   4.205  17.152  0.00  0.00    +0.000 A 
ATOM     24 CL   UNL     1      47.106   2.753  17.676  0.00  0.00    +0.000 Cl
ATOM     25  C   UNL     1      47.728   4.645  15.849  0.00  0.00    +0.000 A 
ATOM     26  N   UNL     1      48.278   5.794  15.386  0.00  0.00    +0.000 NA
ENDBRANCH  17  20
ENDBRANCH  16  17
ENDBRANCH  15  16
ENDBRANCH  14  15
ENDBRANCH   5  14
TORSDOF 6
ENDMDL
MODEL 4
REMARK VINA RESULT:    -6.537      3.783      7.501
REMARK INTER + INTRA:          -9.971
REMARK INTER:                  -9.342
REMARK INTRA:                  -0.629
REMARK UNBOUND:                -1.141
REMARK  Name = 
REMARK  9 active torsions:
REMARK  status: ('A' for Active; 'I' for Inactive)
REMARK    1  A    between atoms: C_1  and  C_2
REMARK    2  A    between atoms: C_7  and  C_8
REMARK    3  A    between atoms: C_12  and  C_13
REMARK    4  A    between atoms: C_13  and  O_14
REMARK    5  A    between atoms: O_14  and  C_15
REMARK    6  A    between atoms: C_15  and  C_16
REMARK    7  A    between atoms: C_16  and  C_17
REMARK    8  A    between atoms: C_16  and  C_18
REMARK    9  A    between atoms: C_16  and  C_19
REMARK                            x       y       z     vdW  Elec       q    Type
REMARK                         _______ _______ _______ _____ _____    ______ ____
ROOT
ATOM      1  C   UNL     1      48.406   7.010  13.851  0.00  0.00    +0.000 A 
ATOM      2  C   UNL     1      48.757   7.005  15.213  0.00  0.00    +0.000 A 
ATOM      3  C   UNL     1      48.407   5.948  16.061  0.00  0.00    +0.000 A 
ATOM      4  C   UNL     1      47.731   4.840  15.553  0.00  0.00    +0.000 A 
ATOM      5  C   UNL     1      47.385   4.791  14.200  0.00  0.00    +0.000 A 
ATOM      6  C   UNL     1      47.682   5.897  13.386  0.00  0.00    +0.000 A 
ENDROOT
BRANCH   1  13
ATOM      7  C   UNL     1      46.340   9.071  12.748  0.00  0.00    +0.000 C 
ATOM      8  C   UNL     1      47.818   9.105  12.466  0.00  0.00    +0.000 A 
ATOM      9  N   UNL     1      48.182  10.142  11.654  0.00  0.00    +0.000 NA
ATOM     10  C   UNL     1      49.478  10.260  11.310  0.00  0.00    +0.000 A 
ATOM     11  C   UNL     1      50.457   9.395  11.743  0.00  0.00    +0.000 A 
ATOM     12  C   UNL     1      50.080   8.350  12.580  0.00  0.00    +0.000 A 
ATOM     13  C   UNL     1      48.738   8.161  12.970  0.00  0.00    +0.000 A 
ENDBRANCH   1  13
BRANCH   5  14
ATOM     14  C   UNL     1      46.651   3.602  13.633  0.00  0.00    +0.000 C 
BRANCH  14  15
ATOM     15  O   UNL     1      45.258   3.908  13.510  0.00  0.00    +0.000 OA
BRANCH  15  16
ATOM     16  C   UNL     1      44.998   4.823  12.444  0.00  0.00    +0.000 C 
BRANCH  16  17
ATOM     17  C   UNL     1      44.064   4.205  11.365  0.00  0.00    +0.000 C 
ATOM     18  C   UNL     1      42.945   5.210  11.020  0.00  0.00    +0.000 C 
ATOM     19  C   UNL     1      43.426   2.946  11.999  0.00  0.00    +0.000 C 
BRANCH  17  20
ATOM     20  C   UNL     1      44.757   3.774  10.064  0.00  0.00    +0.000 A 
ATOM     21  C   UNL     1      45.309   4.674   9.151  0.00  0.00    +0.000 A 
ATOM     22  C   UNL     1      45.956   4.193   8.009  0.00  0.00    +0.000 A 
ATOM     23  C   UNL     1      46.035   2.826   7.795  0.00  0.00    +0.000 A 
ATOM     24 CL   UNL     1      46.835   2.197   6.415  0.00  0.00    +0.000 Cl
ATOM     25  C   UNL     1      45.454   1.990   8.729  0.00  0.00    +0.000 A 
ATOM     26  N   UNL     1      44.829   2.430   9.847  0.00  0.00    +0.000 NA
ENDBRANCH  17  20
ENDBRANCH  16  17
ENDBRANCH  15  16
ENDBRANCH  14  15
ENDBRANCH   5  14
TORSDOF 6
ENDMDL
MODEL 5
REMARK VINA RESULT:    -6.528      3.462      7.997
REMARK INTER + INTRA:          -9.958
REMARK INTER:                  -8.813
REMARK INTRA:                  -1.145
REMARK UNBOUND:                -1.141
REMARK  Name = 
REMARK  9 active torsions:
REMARK  status: ('A' for Active; 'I' for Inactive)
REMARK    1  A    between atoms: C_1  and  C_2
REMARK    2  A    between atoms: C_7  and  C_8
REMARK    3  A    between atoms: C_12  and  C_13
REMARK    4  A    between atoms: C_13  and  O_14
REMARK    5  A    between atoms: O_14  and  C_15
REMARK    6  A    between atoms: C_15  and  C_16
REMARK    7  A    between atoms: C_16  and  C_17
REMARK    8  A    between atoms: C_16  and  C_18
REMARK    9  A    between atoms: C_16  and  C_19
REMARK                            x       y       z     vdW  Elec       q    Type
REMARK                         _______ _______ _______ _____ _____    ______ ____
ROOT
ATOM      1  C   UNL     1      48.916   7.378  14.581  0.00  0.00    +0.000 A 
ATOM      2  C   UNL     1      50.045   7.767  13.837  0.00  0.00    +0.000 A 
ATOM      3  C   UNL     1      49.993   7.925  12.448  0.00  0.00    +0.000 A 
ATOM      4  C   UNL     1      48.791   7.739  11.768  0.00  0.00    +0.000 A 
ATOM      5  C   UNL     1      47.639   7.377  12.470  0.00  0.00    +0.000 A 
ATOM      6  C   UNL     1      47.733   7.153  13.854  0.00  0.00    +0.000 A 
ENDROOT
BRANCH   1  13
ATOM      7  C   UNL     1      48.265   9.536  16.737  0.00  0.00    +0.000 C 
ATOM      8  C   UNL     1      48.697   8.127  17.039  0.00  0.00    +0.000 A 
ATOM      9  N   UNL     1      48.791   7.873  18.379  0.00  0.00    +0.000 NA
ATOM     10  C   UNL     1      49.196   6.652  18.772  0.00  0.00    +0.000 A 
ATOM     11  C   UNL     1      49.510   5.641  17.893  0.00  0.00    +0.000 A 
ATOM     12  C   UNL     1      49.400   5.902  16.531  0.00  0.00    +0.000 A 
ATOM     13  C   UNL     1      48.993   7.164  16.050  0.00  0.00    +0.000 A 
ENDBRANCH   1  13
BRANCH   5  14
ATOM     14  C   UNL     1      46.328   7.169  11.752  0.00  0.00    +0.000 C 
BRANCH  14  15
ATOM     15  O   UNL     1      45.553   6.183  12.439  0.00  0.00    +0.000 OA
BRANCH  15  16
ATOM     16  C   UNL     1      44.449   5.723  11.659  0.00  0.00    +0.000 C 
BRANCH  16  17
ATOM     17  C   UNL     1      44.509   4.187  11.420  0.00  0.00    +0.000 C 
ATOM     18  C   UNL     1      43.096   3.588  11.586  0.00  0.00    +0.000 C 
ATOM     19  C   UNL     1      45.431   3.603  12.515  0.00  0.00    +0.000 C 
BRANCH  17  20
ATOM     20  C   UNL     1      45.069   3.755  10.057  0.00  0.00    +0.000 A 
ATOM     21  C   UNL     1      45.102   2.429   9.624  0.00  0.00    +0.000 A 
ATOM     22  C   UNL     1      45.595   2.127   8.351  0.00  0.00    +0.000 A 
ATOM     23  C   UNL     1      46.052   3.152   7.537  0.00  0.00    +0.000 A 
ATOM     24 CL   UNL     1      46.648   2.824   5.962  0.00  0.00    +0.000 Cl
ATOM     25  C   UNL     1      46.007   4.441   8.031  0.00  0.00    +0.000 A 
ATOM     26  N   UNL     1      45.526   4.759   9.257  0.00  0.00    +0.000 NA
ENDBRANCH  17  20
ENDBRANCH  16  17
ENDBRANCH  15  16
ENDBRANCH  14  15
ENDBRANCH   5  14
TORSDOF 6
ENDMDL
MODEL 6
REMARK VINA RESULT:    -6.447      3.700      8.146
REMARK INTER + INTRA:          -9.849
REMARK INTER:                  -8.794
REMARK INTRA:                  -1.055
REMARK UNBOUND:                -1.141
REMARK  Name = 
REMARK  9 active torsions:
REMARK  status: ('A' for Active; 'I' for Inactive)
REMARK    1  A    between atoms: C_1  and  C_2
REMARK    2  A    between atoms: C_7  and  C_8
REMARK    3  A    between atoms: C_12  and  C_13
REMARK    4  A    between atoms: C_13  and  O_14
REMARK    5  A    between atoms: O_14  and  C_15
REMARK    6  A    between atoms: C_15  and  C_16
REMARK    7  A    between atoms: C_16  and  C_17
REMARK    8  A    between atoms: C_16  and  C_18
REMARK    9  A    between atoms: C_16  and  C_19
REMARK                            x       y       z     vdW  Elec       q    Type
REMARK                         _______ _______ _______ _____ _____    ______ ____
ROOT
ATOM      1  C   UNL     1      48.527   7.671  14.685  0.00  0.00    +0.000 A 
ATOM      2  C   UNL     1      48.736   8.392  13.495  0.00  0.00    +0.000 A 
ATOM      3  C   UNL     1      48.384   7.869  12.245  0.00  0.00    +0.000 A 
ATOM      4  C   UNL     1      47.768   6.622  12.158  0.00  0.00    +0.000 A 
ATOM      5  C   UNL     1      47.517   5.884  13.316  0.00  0.00    +0.000 A 
ATOM      6  C   UNL     1      47.946   6.397  14.552  0.00  0.00    +0.000 A 
ENDROOT
BRANCH   1  13
ATOM      7  C   UNL     1      51.066   6.769  16.256  0.00  0.00    +0.000 C 
ATOM      8  C   UNL     1      50.098   7.820  16.725  0.00  0.00    +0.000 A 
ATOM      9  N   UNL     1      50.434   8.352  17.938  0.00  0.00    +0.000 NA
ATOM     10  C   UNL     1      49.626   9.285  18.474  0.00  0.00    +0.000 A 
ATOM     11  C   UNL     1      48.483   9.739  17.857  0.00  0.00    +0.000 A 
ATOM     12  C   UNL     1      48.154   9.203  16.616  0.00  0.00    +0.000 A 
ATOM     13  C   UNL     1      48.950   8.213  16.003  0.00  0.00    +0.000 A 
ENDBRANCH   1  13
BRANCH   5  14
ATOM     14  C   UNL     1      46.853   4.531  13.242  0.00  0.00    +0.000 C 
BRANCH  14  15
ATOM     15  O   UNL     1      45.524   4.616  13.766  0.00  0.00    +0.000 OA
BRANCH  15  16
ATOM     16  C   UNL     1      44.684   5.459  12.976  0.00  0.00    +0.000 C 
BRANCH  16  17
ATOM     17  C   UNL     1      43.798   4.639  11.997  0.00  0.00    +0.000 C 
ATOM     18  C   UNL     1      42.453   5.369  11.790  0.00  0.00    +0.000 C 
ATOM     19  C   UNL     1      43.526   3.277  12.678  0.00  0.00    +0.000 C 
BRANCH  17  20
ATOM     20  C   UNL     1      44.422   4.358  10.622  0.00  0.00    +0.000 A 
ATOM     21  C   UNL     1      45.280   5.245   9.971  0.00  0.00    +0.000 A 
ATOM     22  C   UNL     1      45.835   4.893   8.737  0.00  0.00    +0.000 A 
ATOM     23  C   UNL     1      45.519   3.667   8.173  0.00  0.00    +0.000 A 
ATOM     24 CL   UNL     1      46.192   3.191   6.669  0.00  0.00    +0.000 Cl
ATOM     25  C   UNL     1      44.651   2.842   8.861  0.00  0.00    +0.000 A 
ATOM     26  N   UNL     1      44.106   3.157  10.061  0.00  0.00    +0.000 NA
ENDBRANCH  17  20
ENDBRANCH  16  17
ENDBRANCH  15  16
ENDBRANCH  14  15
ENDBRANCH   5  14
TORSDOF 6
ENDMDL
MODEL 7
REMARK VINA RESULT:    -6.416      3.537      8.152
REMARK INTER + INTRA:          -9.808
REMARK INTER:                  -8.980
REMARK INTRA:                  -0.828
REMARK UNBOUND:                -1.141
REMARK  Name = 
REMARK  9 active torsions:
REMARK  status: ('A' for Active; 'I' for Inactive)
REMARK    1  A    between atoms: C_1  and  C_2
REMARK    2  A    between atoms: C_7  and  C_8
REMARK    3  A    between atoms: C_12  and  C_13
REMARK    4  A    between atoms: C_13  and  O_14
REMARK    5  A    between atoms: O_14  and  C_15
REMARK    6  A    between atoms: C_15  and  C_16
REMARK    7  A    between atoms: C_16  and  C_17
REMARK    8  A    between atoms: C_16  and  C_18
REMARK    9  A    between atoms: C_16  and  C_19
REMARK                            x       y       z     vdW  Elec       q    Type
REMARK                         _______ _______ _______ _____ _____    ______ ____
ROOT
ATOM      1  C   UNL     1      48.593   6.496  15.599  0.00  0.00    +0.000 A 
ATOM      2  C   UNL     1      48.527   5.951  16.894  0.00  0.00    +0.000 A 
ATOM      3  C   UNL     1      47.866   4.746  17.154  0.00  0.00    +0.000 A 
ATOM      4  C   UNL     1      47.287   4.027  16.109  0.00  0.00    +0.000 A 
ATOM      5  C   UNL     1      47.351   4.518  14.803  0.00  0.00    +0.000 A 
ATOM      6  C   UNL     1      47.957   5.767  14.578  0.00  0.00    +0.000 A 
ENDROOT
BRANCH   1  13
ATOM      7  C   UNL     1      51.651   7.040  15.895  0.00  0.00    +0.000 C 
ATOM      8  C   UNL     1      50.637   8.064  15.465  0.00  0.00    +0.000 A 
ATOM      9  N   UNL     1      51.188   9.290  15.218  0.00  0.00    +0.000 NA
ATOM     10  C   UNL     1      50.373  10.296  14.852  0.00  0.00    +0.000 A 
ATOM     11  C   UNL     1      49.013  10.151  14.702  0.00  0.00    +0.000 A 
ATOM     12  C   UNL     1      48.460   8.897  14.942  0.00  0.00    +0.000 A 
ATOM     13  C   UNL     1      49.255   7.802  15.341  0.00  0.00    +0.000 A 
ENDBRANCH   1  13
BRANCH   5  14
ATOM     14  C   UNL     1      46.729   3.756  13.659  0.00  0.00    +0.000 C 
BRANCH  14  15
ATOM     15  O   UNL     1      45.351   4.119  13.531  0.00  0.00    +0.000 OA
BRANCH  15  16
ATOM     16  C   UNL     1      45.119   4.975  12.411  0.00  0.00    +0.000 C 
BRANCH  16  17
ATOM     17  C   UNL     1      44.169   4.320  11.369  0.00  0.00    +0.000 C 
ATOM     18  C   UNL     1      43.043   5.313  11.009  0.00  0.00    +0.000 C 
ATOM     19  C   UNL     1      43.543   3.083  12.054  0.00  0.00    +0.000 C 
BRANCH  17  20
ATOM     20  C   UNL     1      44.841   3.847  10.072  0.00  0.00    +0.000 A 
ATOM     21  C   UNL     1      45.419   4.714   9.144  0.00  0.00    +0.000 A 
ATOM     22  C   UNL     1      46.045   4.196   8.006  0.00  0.00    +0.000 A 
ATOM     23  C   UNL     1      46.076   2.824   7.812  0.00  0.00    +0.000 A 
ATOM     24 CL   UNL     1      46.849   2.147   6.438  0.00  0.00    +0.000 Cl
ATOM     25  C   UNL     1      45.471   2.021   8.760  0.00  0.00    +0.000 A 
ATOM     26  N   UNL     1      44.866   2.499   9.874  0.00  0.00    +0.000 NA
ENDBRANCH  17  20
ENDBRANCH  16  17
ENDBRANCH  15  16
ENDBRANCH  14  15
ENDBRANCH   5  14
TORSDOF 6
ENDMDL
MODEL 8
REMARK VINA RESULT:    -6.296      3.330      8.756
REMARK INTER + INTRA:          -9.645
REMARK INTER:                  -8.672
REMARK INTRA:                  -0.973
REMARK UNBOUND:                -1.141
REMARK  Name = 
REMARK  9 active torsions:
REMARK  status: ('A' for Active; 'I' for Inactive)
REMARK    1  A    between atoms: C_1  and  C_2
REMARK    2  A    between atoms: C_7  and  C_8
REMARK    3  A    between atoms: C_12  and  C_13
REMARK    4  A    between atoms: C_13  and  O_14
REMARK    5  A    between atoms: O_14  and  C_15
REMARK    6  A    between atoms: C_15  and  C_16
REMARK    7  A    between atoms: C_16  and  C_17
REMARK    8  A    between atoms: C_16  and  C_18
REMARK    9  A    between atoms: C_16  and  C_19
REMARK                            x       y       z     vdW  Elec       q    Type
REMARK                         _______ _______ _______ _____ _____    ______ ____
ROOT
ATOM      1  C   UNL     1      48.613   5.583  17.105  0.00  0.00    +0.000 A 
ATOM      2  C   UNL     1      48.249   4.356  17.688  0.00  0.00    +0.000 A 
ATOM      3  C   UNL     1      47.503   3.400  16.989  0.00  0.00    +0.000 A 
ATOM      4  C   UNL     1      47.139   3.631  15.664  0.00  0.00    +0.000 A 
ATOM      5  C   UNL     1      47.502   4.825  15.036  0.00  0.00    +0.000 A 
ATOM      6  C   UNL     1      48.187   5.800  15.782  0.00  0.00    +0.000 A 
ENDROOT
BRANCH   1  13
ATOM      7  C   UNL     1      51.717   5.695  17.387  0.00  0.00    +0.000 C 
ATOM      8  C   UNL     1      50.765   6.682  18.006  0.00  0.00    +0.000 A 
ATOM      9  N   UNL     1      51.399   7.652  18.730  0.00  0.00    +0.000 NA
ATOM     10  C   UNL     1      50.648   8.578  19.354  0.00  0.00    +0.000 A 
ATOM     11  C   UNL     1      49.273   8.604  19.291  0.00  0.00    +0.000 A 
ATOM     12  C   UNL     1      48.636   7.620  18.541  0.00  0.00    +0.000 A 
ATOM     13  C   UNL     1      49.362   6.613  17.872  0.00  0.00    +0.000 A 
ENDBRANCH   1  13
BRANCH   5  14
ATOM     14  C   UNL     1      47.115   5.094  13.603  0.00  0.00    +0.000 C 
BRANCH  14  15
ATOM     15  O   UNL     1      46.012   4.260  13.237  0.00  0.00    +0.000 OA
BRANCH  15  16
ATOM     16  C   UNL     1      44.824   5.013  12.988  0.00  0.00    +0.000 C 
BRANCH  16  17
ATOM     17  C   UNL     1      43.902   4.315  11.948  0.00  0.00    +0.000 C 
ATOM     18  C   UNL     1      42.606   5.136  11.780  0.00  0.00    +0.000 C 
ATOM     19  C   UNL     1      43.542   2.929  12.535  0.00  0.00    +0.000 C 
BRANCH  17  20
ATOM     20  C   UNL     1      44.525   4.089  10.563  0.00  0.00    +0.000 A 
ATOM     21  C   UNL     1      45.251   5.064   9.877  0.00  0.00    +0.000 A 
ATOM     22  C   UNL     1      45.817   4.761   8.636  0.00  0.00    +0.000 A 
ATOM     23  C   UNL     1      45.644   3.495   8.099  0.00  0.00    +0.000 A 
ATOM     24 CL   UNL     1      46.338   3.079   6.586  0.00  0.00    +0.000 Cl
ATOM     25  C   UNL     1      44.902   2.581   8.820  0.00  0.00    +0.000 A 
ATOM     26  N   UNL     1      44.350   2.848  10.029  0.00  0.00    +0.000 NA
ENDBRANCH  17  20
ENDBRANCH  16  17
ENDBRANCH  15  16
ENDBRANCH  14  15
ENDBRANCH   5  14
TORSDOF 6
ENDMDL
MODEL 9
REMARK VINA RESULT:    -6.217      3.182      7.245
REMARK INTER + INTRA:          -9.538
REMARK INTER:                  -7.952
REMARK INTRA:                  -1.587
REMARK UNBOUND:                -1.141
REMARK  Name = 
REMARK  9 active torsions:
REMARK  status: ('A' for Active; 'I' for Inactive)
REMARK    1  A    between atoms: C_1  and  C_2
REMARK    2  A    between atoms: C_7  and  C_8
REMARK    3  A    between atoms: C_12  and  C_13
REMARK    4  A    between atoms: C_13  and  O_14
REMARK    5  A    between atoms: O_14  and  C_15
REMARK    6  A    between atoms: C_15  and  C_16
REMARK    7  A    between atoms: C_16  and  C_17
REMARK    8  A    between atoms: C_16  and  C_18
REMARK    9  A    between atoms: C_16  and  C_19
REMARK                            x       y       z     vdW  Elec       q    Type
REMARK                         _______ _______ _______ _____ _____    ______ ____
ROOT
ATOM      1  C   UNL     1      48.790   6.074  17.962  0.00  0.00    +0.000 A 
ATOM      2  C   UNL     1      48.084   6.310  19.155  0.00  0.00    +0.000 A 
ATOM      3  C   UNL     1      47.563   7.571  19.465  0.00  0.00    +0.000 A 
ATOM      4  C   UNL     1      47.699   8.625  18.562  0.00  0.00    +0.000 A 
ATOM      5  C   UNL     1      48.371   8.428  17.354  0.00  0.00    +0.000 A 
ATOM      6  C   UNL     1      48.948   7.172  17.097  0.00  0.00    +0.000 A 
ENDROOT
BRANCH   1  13
ATOM      7  C   UNL     1      47.225   3.641  16.793  0.00  0.00    +0.000 C 
ATOM      8  C   UNL     1      48.691   3.634  17.130  0.00  0.00    +0.000 A 
ATOM      9  N   UNL     1      49.290   2.431  16.881  0.00  0.00    +0.000 NA
ATOM     10  C   UNL     1      50.598   2.295  17.168  0.00  0.00    +0.000 A 
ATOM     11  C   UNL     1      51.366   3.310  17.691  0.00  0.00    +0.000 A 
ATOM     12  C   UNL     1      50.753   4.536  17.930  0.00  0.00    +0.000 A 
ATOM     13  C   UNL     1      49.383   4.743  17.663  0.00  0.00    +0.000 A 
ENDBRANCH   1  13
BRANCH   5  14
ATOM     14  C   UNL     1      48.530   9.556  16.365  0.00  0.00    +0.000 C 
BRANCH  14  15
ATOM     15  O   UNL     1      48.865   9.027  15.079  0.00  0.00    +0.000 OA
BRANCH  15  16
ATOM     16  C   UNL     1      47.715   8.848  14.251  0.00  0.00    +0.000 C 
BRANCH  16  17
ATOM     17  C   UNL     1      47.933   7.736  13.186  0.00  0.00    +0.000 C 
ATOM     18  C   UNL     1      49.289   7.043  13.442  0.00  0.00    +0.000 C 
ATOM     19  C   UNL     1      47.986   8.443  11.811  0.00  0.00    +0.000 C 
BRANCH  17  20
ATOM     20  C   UNL     1      46.836   6.664  13.120  0.00  0.00    +0.000 A 
ATOM     21  C   UNL     1      47.059   5.316  13.406  0.00  0.00    +0.000 A 
ATOM     22  C   UNL     1      45.994   4.412  13.358  0.00  0.00    +0.000 A 
ATOM     23  C   UNL     1      44.729   4.867  13.019  0.00  0.00    +0.000 A 
ATOM     24 CL   UNL     1      43.393   3.793  12.966  0.00  0.00    +0.000 Cl
ATOM     25  C   UNL     1      44.579   6.210  12.732  0.00  0.00    +0.000 A 
ATOM     26  N   UNL     1      45.594   7.107  12.779  0.00  0.00    +0.000 NA
ENDBRANCH  17  20
ENDBRANCH  16  17
ENDBRANCH  15  16
ENDBRANCH  14  15
ENDBRANCH   5  14
TORSDOF 6
ENDMDL
