MODEL 1
REMARK VINA RESULT:    -7.433      0.000      0.000
REMARK INTER + INTRA:         -11.536
REMARK INTER:                 -10.475
REMARK INTRA:                  -1.061
REMARK UNBOUND:                -1.061
REMARK  Name = 
REMARK  9 active torsions:
REMARK  status: ('A' for Active; 'I' for Inactive)
REMARK    1  A    between atoms: C_1  and  O_2
REMARK    2  A    between atoms: O_2  and  C_3
REMARK    3  A    between atoms: C_10  and  C_11
REMARK    4  A    between atoms: N_13  and  C_14
REMARK    5  A    between atoms: C_14  and  C_15
REMARK    6  A    between atoms: C_18  and  N_19
REMARK    7  A    between atoms: N_19  and  C_20
REMARK    8  A    between atoms: C_20  and  C_21
REMARK    9  A    between atoms: N_24  and  C_25
REMARK                            x       y       z     vdW  Elec       q    Type
REMARK                         _______ _______ _______ _____ _____    ______ ____
ROOT
ATOM      1  C   UNL     1      48.728   7.388  14.840  0.00  0.00    +0.000 C 
ENDROOT
BRANCH   1   2
ATOM      2  C   UNL     1      47.765   6.572  14.010  0.00  0.00    +0.000 A 
ATOM      3  C   UNL     1      47.279   5.343  14.468  0.00  0.00    +0.000 A 
ATOM      4  C   UNL     1      46.328   4.625  13.724  0.00  0.00    +0.000 A 
ATOM      5  C   UNL     1      45.876   5.082  12.480  0.00  0.00    +0.000 A 
ATOM      6  C   UNL     1      46.360   6.314  12.034  0.00  0.00    +0.000 A 
ATOM      7  C   UNL     1      47.293   7.048  12.780  0.00  0.00    +0.000 A 
BRANCH   5   8
ATOM      8  N   UNL     1      44.930   4.424  11.704  0.00  0.00    +0.000 N 
ATOM      9  H   UNL     1      44.104   4.954  11.448  0.00  0.00    +0.000 HD
BRANCH   8  10
ATOM     10  C   UNL     1      45.294   3.259  10.932  0.00  0.00    +0.000 C 
BRANCH  10  11
ATOM     11  C   UNL     1      44.415   3.052   9.684  0.00  0.00    +0.000 C 
ATOM     12  C   UNL     1      44.628   1.725   8.940  0.00  0.00    +0.000 C 
ATOM     13  C   UNL     1      46.020   1.636   8.317  0.00  0.00    +0.000 C 
ATOM     14  N   UNL     1      46.268   2.764   7.405  0.00  0.00    +0.000 NA
ATOM     15  C   UNL     1      47.615   2.654   6.843  0.00  0.00    +0.000 C 
ATOM     16  C   UNL     1      46.105   4.060   8.076  0.00  0.00    +0.000 C 
ATOM     17  C   UNL     1      44.709   4.198   8.701  0.00  0.00    +0.000 C 
ENDBRANCH  10  11
ENDBRANCH   8  10
ENDBRANCH   5   8
ENDBRANCH   1   2
BRANCH   1  20
ATOM     18  C   UNL     1      49.561   6.152  16.830  0.00  0.00    +0.000 C 
ATOM     19  O   UNL     1      48.578   6.412  17.506  0.00  0.00    +0.000 OA
ATOM     20  N   UNL     1      49.707   6.573  15.529  0.00  0.00    +0.000 N 
ATOM     21  H   UNL     1      50.540   6.321  15.019  0.00  0.00    +0.000 HD
BRANCH  18  29
ATOM     22  C   UNL     1      49.986   2.777  16.935  0.00  0.00    +0.000 A 
ATOM     23  N   UNL     1      50.403   1.504  17.063  0.00  0.00    +0.000 NA
ATOM     24  C   UNL     1      51.615   1.287  17.580  0.00  0.00    +0.000 A 
ATOM     25  N   UNL     1      52.470   2.207  18.021  0.00  0.00    +0.000 NA
ATOM     26  C   UNL     1      52.008   3.461  17.896  0.00  0.00    +0.000 A 
ATOM     27  S   UNL     1      52.955   4.774  18.411  0.00  0.00    +0.000 S 
ATOM     28  C   UNL     1      51.770   5.894  17.917  0.00  0.00    +0.000 A 
ATOM     29  C   UNL     1      50.649   5.302  17.353  0.00  0.00    +0.000 A 
ATOM     30  C   UNL     1      50.781   3.850  17.364  0.00  0.00    +0.000 A 
BRANCH  22  32
ATOM     31  C   UNL     1      47.687   2.885  17.362  0.00  0.00    +0.000 C 
ATOM     32  O   UNL     1      48.734   3.005  16.402  0.00  0.00    +0.000 OA
ENDBRANCH  22  32
ENDBRANCH  18  29
ENDBRANCH   1  20
TORSDOF 7
ENDMDL
MODEL 2
REMARK VINA RESULT:    -7.168      2.180      2.675
REMARK INTER + INTRA:         -11.162
REMARK INTER:                 -10.102
REMARK INTRA:                  -1.060
REMARK UNBOUND:                -1.061
REMARK  Name = 
REMARK  9 active torsions:
REMARK  status: ('A' for Active; 'I' for Inactive)
REMARK    1  A    between atoms: C_1  and  O_2
REMARK    2  A    between atoms: O_2  and  C_3
REMARK    3  A    between atoms: C_10  and  C_11
REMARK    4  A    between atoms: N_13  and  C_14
REMARK    5  A    between atoms: C_14  and  C_15
REMARK    6  A    between atoms: C_18  and  N_19
REMARK    7  A    between atoms: N_19  and  C_20
REMARK    8  A    between atoms: C_20  and  C_21
REMARK    9  A    between atoms: N_24  and  C_25
REMARK                            x       y       z     vdW  Elec       q    Type
REMARK                         _______ _______ _______ _____ _____    ______ ____
ROOT
ATOM      1  C   UNL     1      47.597   8.490  13.598  0.00  0.00    +0.000 C 
ENDROOT
BRANCH   1   2
ATOM      2  C   UNL     1      46.705   7.444  12.971  0.00  0.00    +0.000 A 
ATOM      3  C   UNL     1      45.656   7.808  12.120  0.00  0.00    +0.000 A 
ATOM      4  C   UNL     1      44.876   6.827  11.484  0.00  0.00    +0.000 A 
ATOM      5  C   UNL     1      45.083   5.463  11.718  0.00  0.00    +0.000 A 
ATOM      6  C   UNL     1      46.138   5.109  12.562  0.00  0.00    +0.000 A 
ATOM      7  C   UNL     1      46.934   6.080  13.185  0.00  0.00    +0.000 A 
BRANCH   5   8
ATOM      8  N   UNL     1      44.354   4.448  11.111  0.00  0.00    +0.000 N 
ATOM      9  H   UNL     1      43.404   4.671  10.836  0.00  0.00    +0.000 HD
BRANCH   8  10
ATOM     10  C   UNL     1      45.027   3.328  10.494  0.00  0.00    +0.000 C 
BRANCH  10  11
ATOM     11  C   UNL     1      44.349   2.844   9.198  0.00  0.00    +0.000 C 
ATOM     12  C   UNL     1      44.796   1.463   8.696  0.00  0.00    +0.000 C 
ATOM     13  C   UNL     1      46.259   1.460   8.260  0.00  0.00    +0.000 C 
ATOM     14  N   UNL     1      46.509   2.472   7.223  0.00  0.00    +0.000 NA
ATOM     15  C   UNL     1      47.923   2.450   6.845  0.00  0.00    +0.000 C 
ATOM     16  C   UNL     1      46.124   3.819   7.663  0.00  0.00    +0.000 C 
ATOM     17  C   UNL     1      44.651   3.870   8.092  0.00  0.00    +0.000 C 
ENDBRANCH  10  11
ENDBRANCH   8  10
ENDBRANCH   5   8
ENDBRANCH   1   2
BRANCH   1  20
ATOM     18  C   UNL     1      48.936   7.626  15.506  0.00  0.00    +0.000 C 
ATOM     19  O   UNL     1      49.841   7.219  14.794  0.00  0.00    +0.000 OA
ATOM     20  N   UNL     1      47.823   8.263  15.010  0.00  0.00    +0.000 N 
ATOM     21  H   UNL     1      47.111   8.582  15.650  0.00  0.00    +0.000 HD
BRANCH  18  29
ATOM     22  C   UNL     1      48.802   4.955  17.611  0.00  0.00    +0.000 A 
ATOM     23  N   UNL     1      48.814   4.082  18.634  0.00  0.00    +0.000 NA
ATOM     24  C   UNL     1      49.008   4.556  19.866  0.00  0.00    +0.000 A 
ATOM     25  N   UNL     1      49.167   5.831  20.214  0.00  0.00    +0.000 NA
ATOM     26  C   UNL     1      49.127   6.672  19.169  0.00  0.00    +0.000 A 
ATOM     27  S   UNL     1      49.306   8.344  19.413  0.00  0.00    +0.000 S 
ATOM     28  C   UNL     1      49.179   8.657  17.743  0.00  0.00    +0.000 A 
ATOM     29  C   UNL     1      49.007   7.514  16.976  0.00  0.00    +0.000 A 
ATOM     30  C   UNL     1      48.952   6.334  17.830  0.00  0.00    +0.000 A 
BRANCH  22  32
ATOM     31  C   UNL     1      47.283   3.966  16.130  0.00  0.00    +0.000 C 
ATOM     32  O   UNL     1      48.601   4.469  16.336  0.00  0.00    +0.000 OA
ENDBRANCH  22  32
ENDBRANCH  18  29
ENDBRANCH   1  20
TORSDOF 7
ENDMDL
MODEL 3
REMARK VINA RESULT:    -7.039      3.343      9.420
REMARK INTER + INTRA:         -10.980
REMARK INTER:                 -10.076
REMARK INTRA:                  -0.904
REMARK UNBOUND:                -1.061
REMARK  Name = 
REMARK  9 active torsions:
REMARK  status: ('A' for Active; 'I' for Inactive)
REMARK    1  A    between atoms: C_1  and  O_2
REMARK    2  A    between atoms: O_2  and  C_3
REMARK    3  A    between atoms: C_10  and  C_11
REMARK    4  A    between atoms: N_13  and  C_14
REMARK    5  A    between atoms: C_14  and  C_15
REMARK    6  A    between atoms: C_18  and  N_19
REMARK    7  A    between atoms: N_19  and  C_20
REMARK    8  A    between atoms: C_20  and  C_21
REMARK    9  A    between atoms: N_24  and  C_25
REMARK                            x       y       z     vdW  Elec       q    Type
REMARK                         _______ _______ _______ _____ _____    ______ ____
ROOT
ATOM      1  C   UNL     1      47.173   3.673  16.861  0.00  0.00    +0.000 C 
ENDROOT
BRANCH   1   2
ATOM      2  C   UNL     1      48.637   3.386  17.099  0.00  0.00    +0.000 A 
ATOM      3  C   UNL     1      49.471   4.337  17.695  0.00  0.00    +0.000 A 
ATOM      4  C   UNL     1      50.814   4.036  17.978  0.00  0.00    +0.000 A 
ATOM      5  C   UNL     1      51.377   2.804  17.628  0.00  0.00    +0.000 A 
ATOM      6  C   UNL     1      50.535   1.856  17.041  0.00  0.00    +0.000 A 
ATOM      7  C   UNL     1      49.188   2.140  16.774  0.00  0.00    +0.000 A 
BRANCH   5   8
ATOM      8  N   UNL     1      52.693   2.443  17.893  0.00  0.00    +0.000 N 
ATOM      9  H   UNL     1      53.171   2.968  18.617  0.00  0.00    +0.000 HD
BRANCH   8  10
ATOM     10  C   UNL     1      53.188   1.140  17.515  0.00  0.00    +0.000 C 
BRANCH  10  11
ATOM     11  C   UNL     1      54.724   1.034  17.553  0.00  0.00    +0.000 C 
ATOM     12  C   UNL     1      55.364   0.293  16.370  0.00  0.00    +0.000 C 
ATOM     13  C   UNL     1      54.984  -1.187  16.349  0.00  0.00    +0.000 C 
ATOM     14  N   UNL     1      55.354  -1.849  17.610  0.00  0.00    +0.000 NA
ATOM     15  C   UNL     1      54.959  -3.257  17.559  0.00  0.00    +0.000 C 
ATOM     16  C   UNL     1      54.744  -1.195  18.775  0.00  0.00    +0.000 C 
ATOM     17  C   UNL     1      55.117   0.293  18.843  0.00  0.00    +0.000 C 
ENDBRANCH  10  11
ENDBRANCH   8  10
ENDBRANCH   5   8
ENDBRANCH   1   2
BRANCH   1  20
ATOM     18  C   UNL     1      46.991   4.311  14.465  0.00  0.00    +0.000 C 
ATOM     19  O   UNL     1      47.191   3.176  14.062  0.00  0.00    +0.000 OA
ATOM     20  N   UNL     1      46.953   4.634  15.801  0.00  0.00    +0.000 N 
ATOM     21  H   UNL     1      46.778   5.590  16.073  0.00  0.00    +0.000 HD
BRANCH  18  29
ATOM     22  C   UNL     1      44.224   5.159  12.675  0.00  0.00    +0.000 A 
ATOM     23  N   UNL     1      43.270   5.720  11.910  0.00  0.00    +0.000 NA
ATOM     24  C   UNL     1      43.554   6.867  11.288  0.00  0.00    +0.000 A 
ATOM     25  N   UNL     1      44.711   7.524  11.316  0.00  0.00    +0.000 NA
ATOM     26  C   UNL     1      45.642   6.922  12.072  0.00  0.00    +0.000 A 
ATOM     27  S   UNL     1      47.189   7.607  12.226  0.00  0.00    +0.000 S 
ATOM     28  C   UNL     1      47.696   6.363  13.275  0.00  0.00    +0.000 A 
ATOM     29  C   UNL     1      46.712   5.419  13.530  0.00  0.00    +0.000 A 
ATOM     30  C   UNL     1      45.496   5.739  12.793  0.00  0.00    +0.000 A 
BRANCH  22  32
ATOM     31  C   UNL     1      43.677   2.898  12.420  0.00  0.00    +0.000 C 
ATOM     32  O   UNL     1      43.935   3.974  13.319  0.00  0.00    +0.000 OA
ENDBRANCH  22  32
ENDBRANCH  18  29
ENDBRANCH   1  20
TORSDOF 7
ENDMDL
MODEL 4
REMARK VINA RESULT:    -6.548      2.466      4.422
REMARK INTER + INTRA:         -10.289
REMARK INTER:                  -9.072
REMARK INTRA:                  -1.217
REMARK UNBOUND:                -1.061
REMARK  Name = 
REMARK  9 active torsions:
REMARK  status: ('A' for Active; 'I' for Inactive)
REMARK    1  A    between atoms: C_1  and  O_2
REMARK    2  A    between atoms: O_2  and  C_3
REMARK    3  A    between atoms: C_10  and  C_11
REMARK    4  A    between atoms: N_13  and  C_14
REMARK    5  A    between atoms: C_14  and  C_15
REMARK    6  A    between atoms: C_18  and  N_19
REMARK    7  A    between atoms: N_19  and  C_20
REMARK    8  A    between atoms: C_20  and  C_21
REMARK    9  A    between atoms: N_24  and  C_25
REMARK                            x       y       z     vdW  Elec       q    Type
REMARK                         _______ _______ _______ _____ _____    ______ ____
ROOT
ATOM      1  C   UNL     1      48.682   3.276  18.190  0.00  0.00    +0.000 C 
ENDROOT
BRANCH   1   2
ATOM      2  C   UNL     1      48.349   4.131  16.990  0.00  0.00    +0.000 A 
ATOM      3  C   UNL     1      47.466   3.679  16.004  0.00  0.00    +0.000 A 
ATOM      4  C   UNL     1      47.106   4.508  14.929  0.00  0.00    +0.000 A 
ATOM      5  C   UNL     1      47.654   5.786  14.776  0.00  0.00    +0.000 A 
ATOM      6  C   UNL     1      48.528   6.234  15.768  0.00  0.00    +0.000 A 
ATOM      7  C   UNL     1      48.877   5.421  16.857  0.00  0.00    +0.000 A 
BRANCH   5   8
ATOM      8  N   UNL     1      47.328   6.656  13.742  0.00  0.00    +0.000 N 
ATOM      9  H   UNL     1      47.517   7.640  13.899  0.00  0.00    +0.000 HD
BRANCH   8  10
ATOM     10  C   UNL     1      47.177   6.169  12.391  0.00  0.00    +0.000 C 
BRANCH  10  11
ATOM     11  C   UNL     1      45.931   6.723  11.675  0.00  0.00    +0.000 C 
ATOM     12  C   UNL     1      44.658   6.797  12.530  0.00  0.00    +0.000 C 
ATOM     13  C   UNL     1      44.155   5.412  12.929  0.00  0.00    +0.000 C 
ATOM     14  N   UNL     1      43.911   4.572  11.746  0.00  0.00    +0.000 NA
ATOM     15  C   UNL     1      43.449   3.249  12.169  0.00  0.00    +0.000 C 
ATOM     16  C   UNL     1      45.109   4.444  10.906  0.00  0.00    +0.000 C 
ATOM     17  C   UNL     1      45.636   5.817  10.466  0.00  0.00    +0.000 C 
ENDBRANCH  10  11
ENDBRANCH   8  10
ENDBRANCH   5   8
ENDBRANCH   1   2
BRANCH   1  20
ATOM     18  C   UNL     1      50.763   2.173  17.394  0.00  0.00    +0.000 C 
ATOM     19  O   UNL     1      50.223   1.671  16.421  0.00  0.00    +0.000 OA
ATOM     20  N   UNL     1      50.094   2.973  18.291  0.00  0.00    +0.000 N 
ATOM     21  H   UNL     1      50.597   3.365  19.073  0.00  0.00    +0.000 HD
BRANCH  18  29
ATOM     22  C   UNL     1      53.297   4.407  17.809  0.00  0.00    +0.000 A 
ATOM     23  N   UNL     1      54.445   5.070  18.038  0.00  0.00    +0.000 NA
ATOM     24  C   UNL     1      55.541   4.358  18.312  0.00  0.00    +0.000 A 
ATOM     25  N   UNL     1      55.639   3.032  18.359  0.00  0.00    +0.000 NA
ATOM     26  C   UNL     1      54.478   2.407  18.104  0.00  0.00    +0.000 A 
ATOM     27  S   UNL     1      54.404   0.710  18.113  0.00  0.00    +0.000 S 
ATOM     28  C   UNL     1      52.736   0.726  17.764  0.00  0.00    +0.000 A 
ATOM     29  C   UNL     1      52.208   2.003  17.642  0.00  0.00    +0.000 A 
ATOM     30  C   UNL     1      53.253   3.004  17.821  0.00  0.00    +0.000 A 
BRANCH  22  32
ATOM     31  C   UNL     1      52.409   6.232  16.643  0.00  0.00    +0.000 C 
ATOM     32  O   UNL     1      52.163   5.139  17.525  0.00  0.00    +0.000 OA
ENDBRANCH  22  32
ENDBRANCH  18  29
ENDBRANCH   1  20
TORSDOF 7
ENDMDL
MODEL 5
REMARK VINA RESULT:    -6.480      1.672      2.598
REMARK INTER + INTRA:         -10.193
REMARK INTER:                  -9.083
REMARK INTRA:                  -1.110
REMARK UNBOUND:                -1.061
REMARK  Name = 
REMARK  9 active torsions:
REMARK  status: ('A' for Active; 'I' for Inactive)
REMARK    1  A    between atoms: C_1  and  O_2
REMARK    2  A    between atoms: O_2  and  C_3
REMARK    3  A    between atoms: C_10  and  C_11
REMARK    4  A    between atoms: N_13  and  C_14
REMARK    5  A    between atoms: C_14  and  C_15
REMARK    6  A    between atoms: C_18  and  N_19
REMARK    7  A    between atoms: N_19  and  C_20
REMARK    8  A    between atoms: C_20  and  C_21
REMARK    9  A    between atoms: N_24  and  C_25
REMARK                            x       y       z     vdW  Elec       q    Type
REMARK                         _______ _______ _______ _____ _____    ______ ____
ROOT
ATOM      1  C   UNL     1      50.842   7.428  16.174  0.00  0.00    +0.000 C 
ENDROOT
BRANCH   1   2
ATOM      2  C   UNL     1      49.750   7.051  15.201  0.00  0.00    +0.000 A 
ATOM      3  C   UNL     1      49.822   7.423  13.855  0.00  0.00    +0.000 A 
ATOM      4  C   UNL     1      48.839   7.008  12.942  0.00  0.00    +0.000 A 
ATOM      5  C   UNL     1      47.731   6.258  13.352  0.00  0.00    +0.000 A 
ATOM      6  C   UNL     1      47.670   5.882  14.696  0.00  0.00    +0.000 A 
ATOM      7  C   UNL     1      48.658   6.275  15.610  0.00  0.00    +0.000 A 
BRANCH   5   8
ATOM      8  N   UNL     1      46.734   5.807  12.495  0.00  0.00    +0.000 N 
ATOM      9  H   UNL     1      46.914   5.893  11.501  0.00  0.00    +0.000 HD
BRANCH   8  10
ATOM     10  C   UNL     1      45.737   4.869  12.957  0.00  0.00    +0.000 C 
BRANCH  10  11
ATOM     11  C   UNL     1      44.334   5.132  12.378  0.00  0.00    +0.000 C 
ATOM     12  C   UNL     1      43.403   3.912  12.324  0.00  0.00    +0.000 C 
ATOM     13  C   UNL     1      43.909   2.849  11.352  0.00  0.00    +0.000 C 
ATOM     14  N   UNL     1      44.082   3.403  10.000  0.00  0.00    +0.000 NA
ATOM     15  C   UNL     1      44.584   2.362   9.103  0.00  0.00    +0.000 C 
ATOM     16  C   UNL     1      44.988   4.558   9.990  0.00  0.00    +0.000 C 
ATOM     17  C   UNL     1      44.503   5.661  10.943  0.00  0.00    +0.000 C 
ENDBRANCH  10  11
ENDBRANCH   8  10
ENDBRANCH   5   8
ENDBRANCH   1   2
BRANCH   1  20
ATOM     18  C   UNL     1      51.641   5.998  18.045  0.00  0.00    +0.000 C 
ATOM     19  O   UNL     1      51.115   6.686  18.905  0.00  0.00    +0.000 OA
ATOM     20  N   UNL     1      51.547   6.278  16.702  0.00  0.00    +0.000 N 
ATOM     21  H   UNL     1      51.999   5.668  16.037  0.00  0.00    +0.000 HD
BRANCH  18  29
ATOM     22  C   UNL     1      51.025   2.711  17.414  0.00  0.00    +0.000 A 
ATOM     23  N   UNL     1      51.030   1.374  17.268  0.00  0.00    +0.000 NA
ATOM     24  C   UNL     1      52.071   0.690  17.750  0.00  0.00    +0.000 A 
ATOM     25  N   UNL     1      53.119   1.189  18.401  0.00  0.00    +0.000 NA
ATOM     26  C   UNL     1      53.066   2.522  18.545  0.00  0.00    +0.000 A 
ATOM     27  S   UNL     1      54.314   3.342  19.356  0.00  0.00    +0.000 S 
ATOM     28  C   UNL     1      53.566   4.851  19.095  0.00  0.00    +0.000 A 
ATOM     29  C   UNL     1      52.373   4.765  18.391  0.00  0.00    +0.000 A 
ATOM     30  C   UNL     1      52.064   3.373  18.086  0.00  0.00    +0.000 A 
BRANCH  22  32
ATOM     31  C   UNL     1      48.738   2.671  16.918  0.00  0.00    +0.000 C 
ATOM     32  O   UNL     1      49.951   3.420  16.917  0.00  0.00    +0.000 OA
ENDBRANCH  22  32
ENDBRANCH  18  29
ENDBRANCH   1  20
TORSDOF 7
ENDMDL
MODEL 6
REMARK VINA RESULT:    -6.313      5.637      7.443
REMARK INTER + INTRA:          -9.957
REMARK INTER:                  -8.780
REMARK INTRA:                  -1.177
REMARK UNBOUND:                -1.061
REMARK  Name = 
REMARK  9 active torsions:
REMARK  status: ('A' for Active; 'I' for Inactive)
REMARK    1  A    between atoms: C_1  and  O_2
REMARK    2  A    between atoms: O_2  and  C_3
REMARK    3  A    between atoms: C_10  and  C_11
REMARK    4  A    between atoms: N_13  and  C_14
REMARK    5  A    between atoms: C_14  and  C_15
REMARK    6  A    between atoms: C_18  and  N_19
REMARK    7  A    between atoms: N_19  and  C_20
REMARK    8  A    between atoms: C_20  and  C_21
REMARK    9  A    between atoms: N_24  and  C_25
REMARK                            x       y       z     vdW  Elec       q    Type
REMARK                         _______ _______ _______ _____ _____    ______ ____
ROOT
ATOM      1  C   UNL     1      51.356   8.365  12.071  0.00  0.00    +0.000 C 
ENDROOT
BRANCH   1   2
ATOM      2  C   UNL     1      49.980   7.850  12.426  0.00  0.00    +0.000 A 
ATOM      3  C   UNL     1      49.671   7.463  13.734  0.00  0.00    +0.000 A 
ATOM      4  C   UNL     1      48.370   7.053  14.071  0.00  0.00    +0.000 A 
ATOM      5  C   UNL     1      47.357   6.968  13.109  0.00  0.00    +0.000 A 
ATOM      6  C   UNL     1      47.672   7.366  11.807  0.00  0.00    +0.000 A 
ATOM      7  C   UNL     1      48.962   7.795  11.466  0.00  0.00    +0.000 A 
BRANCH   5   8
ATOM      8  N   UNL     1      46.050   6.583  13.383  0.00  0.00    +0.000 N 
ATOM      9  H   UNL     1      45.741   6.675  14.345  0.00  0.00    +0.000 HD
BRANCH   8  10
ATOM     10  C   UNL     1      45.069   6.509  12.326  0.00  0.00    +0.000 C 
BRANCH  10  11
ATOM     11  C   UNL     1      43.879   5.590  12.658  0.00  0.00    +0.000 C 
ATOM     12  C   UNL     1      44.246   4.156  13.068  0.00  0.00    +0.000 C 
ATOM     13  C   UNL     1      44.883   3.379  11.918  0.00  0.00    +0.000 C 
ATOM     14  N   UNL     1      44.001   3.350  10.741  0.00  0.00    +0.000 NA
ATOM     15  C   UNL     1      44.653   2.613   9.657  0.00  0.00    +0.000 C 
ATOM     16  C   UNL     1      43.641   4.700  10.290  0.00  0.00    +0.000 C 
ATOM     17  C   UNL     1      42.978   5.510  11.413  0.00  0.00    +0.000 C 
ENDBRANCH  10  11
ENDBRANCH   8  10
ENDBRANCH   5   8
ENDBRANCH   1   2
BRANCH   1  20
ATOM     18  C   UNL     1      52.733   8.765  10.041  0.00  0.00    +0.000 C 
ATOM     19  O   UNL     1      53.443   9.596  10.585  0.00  0.00    +0.000 OA
ATOM     20  N   UNL     1      51.711   8.114  10.691  0.00  0.00    +0.000 N 
ATOM     21  H   UNL     1      51.162   7.432  10.188  0.00  0.00    +0.000 HD
BRANCH  18  29
ATOM     22  C   UNL     1      53.513   5.767   8.632  0.00  0.00    +0.000 A 
ATOM     23  N   UNL     1      53.779   4.712   7.841  0.00  0.00    +0.000 NA
ATOM     24  C   UNL     1      53.797   4.903   6.520  0.00  0.00    +0.000 A 
ATOM     25  N   UNL     1      53.603   6.052   5.878  0.00  0.00    +0.000 NA
ATOM     26  C   UNL     1      53.361   7.083   6.703  0.00  0.00    +0.000 A 
ATOM     27  S   UNL     1      53.095   8.637   6.069  0.00  0.00    +0.000 S 
ATOM     28  C   UNL     1      52.857   9.291   7.625  0.00  0.00    +0.000 A 
ATOM     29  C   UNL     1      52.968   8.354   8.642  0.00  0.00    +0.000 A 
ATOM     30  C   UNL     1      53.293   7.043   8.093  0.00  0.00    +0.000 A 
BRANCH  22  32
ATOM     31  C   UNL     1      54.789   5.638  10.589  0.00  0.00    +0.000 C 
ATOM     32  O   UNL     1      53.494   5.573   9.998  0.00  0.00    +0.000 OA
ENDBRANCH  22  32
ENDBRANCH  18  29
ENDBRANCH   1  20
TORSDOF 7
ENDMDL
MODEL 7
REMARK VINA RESULT:    -6.296      5.533      7.320
REMARK INTER + INTRA:          -9.933
REMARK INTER:                  -8.952
REMARK INTRA:                  -0.981
REMARK UNBOUND:                -1.061
REMARK  Name = 
REMARK  9 active torsions:
REMARK  status: ('A' for Active; 'I' for Inactive)
REMARK    1  A    between atoms: C_1  and  O_2
REMARK    2  A    between atoms: O_2  and  C_3
REMARK    3  A    between atoms: C_10  and  C_11
REMARK    4  A    between atoms: N_13  and  C_14
REMARK    5  A    between atoms: C_14  and  C_15
REMARK    6  A    between atoms: C_18  and  N_19
REMARK    7  A    between atoms: N_19  and  C_20
REMARK    8  A    between atoms: C_20  and  C_21
REMARK    9  A    between atoms: N_24  and  C_25
REMARK                            x       y       z     vdW  Elec       q    Type
REMARK                         _______ _______ _______ _____ _____    ______ ____
ROOT
ATOM      1  C   UNL     1      50.921   8.791  11.067  0.00  0.00    +0.000 C 
ENDROOT
BRANCH   1   2
ATOM      2  C   UNL     1      49.626   8.318  11.684  0.00  0.00    +0.000 A 
ATOM      3  C   UNL     1      48.494   9.139  11.705  0.00  0.00    +0.000 A 
ATOM      4  C   UNL     1      47.274   8.667  12.216  0.00  0.00    +0.000 A 
ATOM      5  C   UNL     1      47.159   7.386  12.768  0.00  0.00    +0.000 A 
ATOM      6  C   UNL     1      48.292   6.568  12.735  0.00  0.00    +0.000 A 
ATOM      7  C   UNL     1      49.508   7.024  12.208  0.00  0.00    +0.000 A 
BRANCH   5   8
ATOM      8  N   UNL     1      45.979   6.857  13.276  0.00  0.00    +0.000 N 
ATOM      9  H   UNL     1      45.837   6.940  14.277  0.00  0.00    +0.000 HD
BRANCH   8  10
ATOM     10  C   UNL     1      44.842   6.636  12.414  0.00  0.00    +0.000 C 
BRANCH  10  11
ATOM     11  C   UNL     1      43.912   5.509  12.903  0.00  0.00    +0.000 C 
ATOM     12  C   UNL     1      44.595   4.161  13.175  0.00  0.00    +0.000 C 
ATOM     13  C   UNL     1      45.145   3.531  11.898  0.00  0.00    +0.000 C 
ATOM     14  N   UNL     1      44.087   3.358  10.890  0.00  0.00    +0.000 NA
ATOM     15  C   UNL     1      44.655   2.770   9.677  0.00  0.00    +0.000 C 
ATOM     16  C   UNL     1      43.418   4.626  10.572  0.00  0.00    +0.000 C 
ATOM     17  C   UNL     1      42.833   5.284  11.830  0.00  0.00    +0.000 C 
ENDBRANCH  10  11
ENDBRANCH   8  10
ENDBRANCH   5   8
ENDBRANCH   1   2
BRANCH   1  20
ATOM     18  C   UNL     1      52.990   7.884  10.030  0.00  0.00    +0.000 C 
ATOM     19  O   UNL     1      53.469   8.988   9.822  0.00  0.00    +0.000 OA
ATOM     20  N   UNL     1      51.771   7.700  10.638  0.00  0.00    +0.000 N 
ATOM     21  H   UNL     1      51.431   6.762  10.789  0.00  0.00    +0.000 HD
BRANCH  18  29
ATOM     22  C   UNL     1      53.072   5.954   7.228  0.00  0.00    +0.000 A 
ATOM     23  N   UNL     1      53.307   5.064   6.247  0.00  0.00    +0.000 NA
ATOM     24  C   UNL     1      54.214   4.109   6.467  0.00  0.00    +0.000 A 
ATOM     25  N   UNL     1      54.911   3.913   7.583  0.00  0.00    +0.000 NA
ATOM     26  C   UNL     1      54.632   4.808   8.544  0.00  0.00    +0.000 A 
ATOM     27  S   UNL     1      55.419   4.718  10.047  0.00  0.00    +0.000 S 
ATOM     28  C   UNL     1      54.600   6.099  10.620  0.00  0.00    +0.000 A 
ATOM     29  C   UNL     1      53.729   6.652   9.692  0.00  0.00    +0.000 A 
ATOM     30  C   UNL     1      53.731   5.867   8.463  0.00  0.00    +0.000 A 
BRANCH  22  32
ATOM     31  C   UNL     1      52.682   8.098   6.373  0.00  0.00    +0.000 C 
ATOM     32  O   UNL     1      52.135   6.942   7.005  0.00  0.00    +0.000 OA
ENDBRANCH  22  32
ENDBRANCH  18  29
ENDBRANCH   1  20
TORSDOF 7
ENDMDL
MODEL 8
REMARK VINA RESULT:    -6.143      3.226      8.686
REMARK INTER + INTRA:          -9.718
REMARK INTER:                  -8.807
REMARK INTRA:                  -0.911
REMARK UNBOUND:                -1.061
REMARK  Name = 
REMARK  9 active torsions:
REMARK  status: ('A' for Active; 'I' for Inactive)
REMARK    1  A    between atoms: C_1  and  O_2
REMARK    2  A    between atoms: O_2  and  C_3
REMARK    3  A    between atoms: C_10  and  C_11
REMARK    4  A    between atoms: N_13  and  C_14
REMARK    5  A    between atoms: C_14  and  C_15
REMARK    6  A    between atoms: C_18  and  N_19
REMARK    7  A    between atoms: N_19  and  C_20
REMARK    8  A    between atoms: C_20  and  C_21
REMARK    9  A    between atoms: N_24  and  C_25
REMARK                            x       y       z     vdW  Elec       q    Type
REMARK                         _______ _______ _______ _____ _____    ______ ____
ROOT
ATOM      1  C   UNL     1      48.238   8.077  12.090  0.00  0.00    +0.000 C 
ENDROOT
BRANCH   1   2
ATOM      2  C   UNL     1      48.997   7.693  13.338  0.00  0.00    +0.000 A 
ATOM      3  C   UNL     1      50.334   8.067  13.514  0.00  0.00    +0.000 A 
ATOM      4  C   UNL     1      51.011   7.769  14.708  0.00  0.00    +0.000 A 
ATOM      5  C   UNL     1      50.396   7.044  15.736  0.00  0.00    +0.000 A 
ATOM      6  C   UNL     1      49.059   6.682  15.556  0.00  0.00    +0.000 A 
ATOM      7  C   UNL     1      48.369   6.994  14.377  0.00  0.00    +0.000 A 
BRANCH   5   8
ATOM      8  N   UNL     1      51.009   6.730  16.943  0.00  0.00    +0.000 N 
ATOM      9  H   UNL     1      50.709   7.257  17.756  0.00  0.00    +0.000 HD
BRANCH   8  10
ATOM     10  C   UNL     1      51.664   5.455  17.124  0.00  0.00    +0.000 C 
BRANCH  10  11
ATOM     11  C   UNL     1      51.234   4.723  18.409  0.00  0.00    +0.000 C 
ATOM     12  C   UNL     1      52.375   4.101  19.228  0.00  0.00    +0.000 C 
ATOM     13  C   UNL     1      53.063   2.963  18.477  0.00  0.00    +0.000 C 
ATOM     14  N   UNL     1      52.100   1.919  18.094  0.00  0.00    +0.000 NA
ATOM     15  C   UNL     1      52.792   0.857  17.362  0.00  0.00    +0.000 C 
ATOM     16  C   UNL     1      50.999   2.457  17.283  0.00  0.00    +0.000 C 
ATOM     17  C   UNL     1      50.268   3.593  18.011  0.00  0.00    +0.000 C 
ENDBRANCH  10  11
ENDBRANCH   8  10
ENDBRANCH   5   8
ENDBRANCH   1   2
BRANCH   1  20
ATOM     18  C   UNL     1      46.158   6.875  11.450  0.00  0.00    +0.000 C 
ATOM     19  O   UNL     1      45.422   7.746  11.885  0.00  0.00    +0.000 OA
ATOM     20  N   UNL     1      47.530   6.963  11.497  0.00  0.00    +0.000 N 
ATOM     21  H   UNL     1      48.086   6.212  11.115  0.00  0.00    +0.000 HD
BRANCH  18  29
ATOM     22  C   UNL     1      44.430   4.181  12.606  0.00  0.00    +0.000 A 
ATOM     23  N   UNL     1      43.719   3.055  12.799  0.00  0.00    +0.000 NA
ATOM     24  C   UNL     1      43.413   2.312  11.734  0.00  0.00    +0.000 A 
ATOM     25  N   UNL     1      43.762   2.546  10.471  0.00  0.00    +0.000 NA
ATOM     26  C   UNL     1      44.487   3.666  10.323  0.00  0.00    +0.000 A 
ATOM     27  S   UNL     1      45.032   4.130   8.782  0.00  0.00    +0.000 S 
ATOM     28  C   UNL     1      45.771   5.533   9.406  0.00  0.00    +0.000 A 
ATOM     29  C   UNL     1      45.616   5.678  10.777  0.00  0.00    +0.000 A 
ATOM     30  C   UNL     1      44.872   4.551  11.326  0.00  0.00    +0.000 A 
BRANCH  22  32
ATOM     31  C   UNL     1      46.026   4.638  14.255  0.00  0.00    +0.000 C 
ATOM     32  O   UNL     1      44.749   4.952  13.704  0.00  0.00    +0.000 OA
ENDBRANCH  22  32
ENDBRANCH  18  29
ENDBRANCH   1  20
TORSDOF 7
ENDMDL
MODEL 9
REMARK VINA RESULT:    -6.125      5.746      7.789
REMARK INTER + INTRA:          -9.692
REMARK INTER:                  -8.770
REMARK INTRA:                  -0.922
REMARK UNBOUND:                -1.061
REMARK  Name = 
REMARK  9 active torsions:
REMARK  status: ('A' for Active; 'I' for Inactive)
REMARK    1  A    between atoms: C_1  and  O_2
REMARK    2  A    between atoms: O_2  and  C_3
REMARK    3  A    between atoms: C_10  and  C_11
REMARK    4  A    between atoms: N_13  and  C_14
REMARK    5  A    between atoms: C_14  and  C_15
REMARK    6  A    between atoms: C_18  and  N_19
REMARK    7  A    between atoms: N_19  and  C_20
REMARK    8  A    between atoms: C_20  and  C_21
REMARK    9  A    between atoms: N_24  and  C_25
REMARK                            x       y       z     vdW  Elec       q    Type
REMARK                         _______ _______ _______ _____ _____    ______ ____
ROOT
ATOM      1  C   UNL     1      50.958   8.141  12.157  0.00  0.00    +0.000 C 
ENDROOT
BRANCH   1   2
ATOM      2  C   UNL     1      49.616   7.556  12.531  0.00  0.00    +0.000 A 
ATOM      3  C   UNL     1      49.356   7.122  13.835  0.00  0.00    +0.000 A 
ATOM      4  C   UNL     1      48.084   6.646  14.192  0.00  0.00    +0.000 A 
ATOM      5  C   UNL     1      47.053   6.539  13.251  0.00  0.00    +0.000 A 
ATOM      6  C   UNL     1      47.318   6.983  11.954  0.00  0.00    +0.000 A 
ATOM      7  C   UNL     1      48.579   7.479  11.593  0.00  0.00    +0.000 A 
BRANCH   5   8
ATOM      8  N   UNL     1      45.771   6.089  13.546  0.00  0.00    +0.000 N 
ATOM      9  H   UNL     1      45.566   5.909  14.522  0.00  0.00    +0.000 HD
BRANCH   8  10
ATOM     10  C   UNL     1      44.685   6.307  12.619  0.00  0.00    +0.000 C 
BRANCH  10  11
ATOM     11  C   UNL     1      43.517   5.319  12.801  0.00  0.00    +0.000 C 
ATOM     12  C   UNL     1      43.922   3.865  13.086  0.00  0.00    +0.000 C 
ATOM     13  C   UNL     1      44.642   3.228  11.899  0.00  0.00    +0.000 C 
ATOM     14  N   UNL     1      43.818   3.286  10.682  0.00  0.00    +0.000 NA
ATOM     15  C   UNL     1      44.547   2.684   9.565  0.00  0.00    +0.000 C 
ATOM     16  C   UNL     1      43.426   4.661  10.347  0.00  0.00    +0.000 C 
ATOM     17  C   UNL     1      42.680   5.332  11.510  0.00  0.00    +0.000 C 
ENDBRANCH  10  11
ENDBRANCH   8  10
ENDBRANCH   5   8
ENDBRANCH   1   2
BRANCH   1  20
ATOM     18  C   UNL     1      52.812   7.562  10.606  0.00  0.00    +0.000 C 
ATOM     19  O   UNL     1      53.684   7.929  11.379  0.00  0.00    +0.000 OA
ATOM     20  N   UNL     1      51.472   7.618  10.909  0.00  0.00    +0.000 N 
ATOM     21  H   UNL     1      50.799   7.294  10.231  0.00  0.00    +0.000 HD
BRANCH  18  29
ATOM     22  C   UNL     1      52.938   8.858   7.462  0.00  0.00    +0.000 A 
ATOM     23  N   UNL     1      53.096   9.131   6.154  0.00  0.00    +0.000 NA
ATOM     24  C   UNL     1      53.538   8.156   5.356  0.00  0.00    +0.000 A 
ATOM     25  N   UNL     1      53.821   6.904   5.708  0.00  0.00    +0.000 NA
ATOM     26  C   UNL     1      53.630   6.667   7.015  0.00  0.00    +0.000 A 
ATOM     27  S   UNL     1      53.932   5.122   7.654  0.00  0.00    +0.000 S 
ATOM     28  C   UNL     1      53.515   5.631   9.226  0.00  0.00    +0.000 A 
ATOM     29  C   UNL     1      53.148   6.967   9.297  0.00  0.00    +0.000 A 
ATOM     30  C   UNL     1      53.193   7.577   7.974  0.00  0.00    +0.000 A 
BRANCH  22  32
ATOM     31  C   UNL     1      53.529  10.689   8.795  0.00  0.00    +0.000 C 
ATOM     32  O   UNL     1      52.482   9.863   8.290  0.00  0.00    +0.000 OA
ENDBRANCH  22  32
ENDBRANCH  18  29
ENDBRANCH   1  20
TORSDOF 7
ENDMDL
