MODEL 1
REMARK VINA RESULT:    -8.040      0.000      0.000
REMARK INTER + INTRA:         -13.744
REMARK INTER:                 -12.506
REMARK INTRA:                  -1.238
REMARK UNBOUND:                -1.238
REMARK  Name = 
REMARK  10 active torsions:
REMARK  status: ('A' for Active; 'I' for Inactive)
REMARK    1  A    between atoms: N_1  and  C_2
REMARK    2  A    between atoms: C_2  and  C_3
REMARK    3  A    between atoms: C_3  and  N_4
REMARK    4  A    between atoms: N_4  and  C_5
REMARK    5  A    between atoms: N_4  and  C_26
REMARK    6  A    between atoms: C_5  and  C_6
REMARK    7  A    between atoms: C_9  and  C_10
REMARK    8  A    between atoms: C_10  and  N_11
REMARK    9  A    between atoms: C_12  and  C_14
REMARK   10  A    between atoms: C_26  and  C_27
REMARK                            x       y       z     vdW  Elec       q    Type
REMARK                         _______ _______ _______ _____ _____    ______ ____
ROOT
ATOM      1  C   UNL     1      45.996   4.393  12.561  0.00  0.00    +0.000 A 
ATOM      2  C   UNL     1      46.249   5.536  11.795  0.00  0.00    +0.000 A 
ATOM      3  C   UNL     1      47.013   6.587  12.317  0.00  0.00    +0.000 A 
ATOM      4  C   UNL     1      47.563   6.502  13.605  0.00  0.00    +0.000 A 
ATOM      5  C   UNL     1      47.275   5.377  14.386  0.00  0.00    +0.000 A 
ATOM      6  C   UNL     1      46.490   4.343  13.875  0.00  0.00    +0.000 A 
ENDROOT
BRANCH   1   7
ATOM      7  C   UNL     1      45.255   3.200  11.980  0.00  0.00    +0.000 C 
BRANCH   7   8
ATOM      8  N   UNL     1      44.305   3.541  10.896  0.00  0.00    +0.000 NA
BRANCH   8   9
ATOM      9  C   UNL     1      42.948   3.813  11.443  0.00  0.00    +0.000 C 
BRANCH   9  10
ATOM     10  C   UNL     1      42.659   5.280  11.850  0.00  0.00    +0.000 C 
BRANCH  10  11
ATOM     11  N   UNL     1      42.624   5.491  13.297  0.00  0.00    +0.000 NA
ATOM     12  H   UNL     1      41.931   4.853  13.691  0.00  0.00    +0.000 HD
ATOM     13  H   UNL     1      42.259   6.427  13.481  0.00  0.00    +0.000 HD
ENDBRANCH  10  11
ENDBRANCH   9  10
ENDBRANCH   8   9
BRANCH   8  14
ATOM     14  C   UNL     1      44.267   2.467   9.876  0.00  0.00    +0.000 C 
BRANCH  14  15
ATOM     15  C   UNL     1      45.302   2.559   8.774  0.00  0.00    +0.000 A 
ATOM     16  C   UNL     1      45.600   3.791   8.197  0.00  0.00    +0.000 A 
ATOM     17  C   UNL     1      46.624   3.855   7.252  0.00  0.00    +0.000 A 
ATOM     18  C   UNL     1      47.316   2.697   6.925  0.00  0.00    +0.000 A 
ATOM     19  C   UNL     1      46.950   1.512   7.544  0.00  0.00    +0.000 A 
ATOM     20  N   UNL     1      45.961   1.415   8.451  0.00  0.00    +0.000 NA
ENDBRANCH  14  15
ENDBRANCH   8  14
ENDBRANCH   7   8
ENDBRANCH   1   7
BRANCH   4  21
ATOM     21  C   UNL     1      48.441   7.593  14.165  0.00  0.00    +0.000 C 
BRANCH  21  22
ATOM     22  N   UNL     1      48.451   7.572  15.603  0.00  0.00    +0.000 N 
ATOM     23  C   UNL     1      49.502   7.031  16.300  0.00  0.00    +0.000 C 
ATOM     24  O   UNL     1      50.495   6.576  15.741  0.00  0.00    +0.000 OA
ATOM     25  H   UNL     1      47.555   7.674  16.068  0.00  0.00    +0.000 HD
BRANCH  23  26
ATOM     26  C   UNL     1      49.401   7.072  17.763  0.00  0.00    +0.000 A 
ATOM     27  C   UNL     1      49.627   8.263  18.440  0.00  0.00    +0.000 A 
ATOM     28  S   UNL     1      49.464   8.129  20.134  0.00  0.00    +0.000 S 
ATOM     29  C   UNL     1      49.115   6.466  20.025  0.00  0.00    +0.000 A 
ATOM     30  N   UNL     1      48.900   5.722  21.139  0.00  0.00    +0.000 NA
ATOM     31  C   UNL     1      48.662   4.472  20.910  0.00  0.00    +0.000 A 
ATOM     32  N   UNL     1      48.610   3.904  19.664  0.00  0.00    +0.000 N 
ATOM     33  C   UNL     1      48.801   4.621  18.511  0.00  0.00    +0.000 A 
ATOM     34  O   UNL     1      48.704   4.089  17.409  0.00  0.00    +0.000 OA
ATOM     35  C   UNL     1      49.092   6.029  18.712  0.00  0.00    +0.000 A 
ATOM     36  H   UNL     1      48.399   2.923  19.550  0.00  0.00    +0.000 HD
ENDBRANCH  23  26
ENDBRANCH  21  22
ENDBRANCH   4  21
TORSDOF 10
ENDMDL
MODEL 2
REMARK VINA RESULT:    -7.941      2.348      2.882
REMARK INTER + INTRA:         -13.590
REMARK INTER:                 -12.598
REMARK INTRA:                  -0.992
REMARK UNBOUND:                -1.238
REMARK  Name = 
REMARK  10 active torsions:
REMARK  status: ('A' for Active; 'I' for Inactive)
REMARK    1  A    between atoms: N_1  and  C_2
REMARK    2  A    between atoms: C_2  and  C_3
REMARK    3  A    between atoms: C_3  and  N_4
REMARK    4  A    between atoms: N_4  and  C_5
REMARK    5  A    between atoms: N_4  and  C_26
REMARK    6  A    between atoms: C_5  and  C_6
REMARK    7  A    between atoms: C_9  and  C_10
REMARK    8  A    between atoms: C_10  and  N_11
REMARK    9  A    between atoms: C_12  and  C_14
REMARK   10  A    between atoms: C_26  and  C_27
REMARK                            x       y       z     vdW  Elec       q    Type
REMARK                         _______ _______ _______ _____ _____    ______ ____
ROOT
ATOM      1  C   UNL     1      46.194   4.698  12.592  0.00  0.00    +0.000 A 
ATOM      2  C   UNL     1      46.435   4.135  13.850  0.00  0.00    +0.000 A 
ATOM      3  C   UNL     1      47.243   4.797  14.783  0.00  0.00    +0.000 A 
ATOM      4  C   UNL     1      47.802   6.049  14.485  0.00  0.00    +0.000 A 
ATOM      5  C   UNL     1      47.596   6.592  13.212  0.00  0.00    +0.000 A 
ATOM      6  C   UNL     1      46.813   5.918  12.273  0.00  0.00    +0.000 A 
ENDROOT
BRANCH   1   7
ATOM      7  C   UNL     1      45.241   4.046  11.603  0.00  0.00    +0.000 C 
BRANCH   7   8
ATOM      8  N   UNL     1      44.718   4.965  10.566  0.00  0.00    +0.000 NA
BRANCH   8   9
ATOM      9  C   UNL     1      43.636   5.826  11.115  0.00  0.00    +0.000 C 
BRANCH   9  10
ATOM     10  C   UNL     1      42.540   5.101  11.937  0.00  0.00    +0.000 C 
BRANCH  10  11
ATOM     11  N   UNL     1      42.569   5.422  13.364  0.00  0.00    +0.000 NA
ATOM     12  H   UNL     1      41.736   5.972  13.580  0.00  0.00    +0.000 HD
ATOM     13  H   UNL     1      43.355   6.050  13.541  0.00  0.00    +0.000 HD
ENDBRANCH  10  11
ENDBRANCH   9  10
ENDBRANCH   8   9
BRANCH   8  14
ATOM     14  C   UNL     1      44.251   4.206   9.382  0.00  0.00    +0.000 C 
BRANCH  14  15
ATOM     15  C   UNL     1      45.321   3.482   8.592  0.00  0.00    +0.000 A 
ATOM     16  C   UNL     1      45.495   2.109   8.747  0.00  0.00    +0.000 A 
ATOM     17  C   UNL     1      46.424   1.458   7.936  0.00  0.00    +0.000 A 
ATOM     18  C   UNL     1      47.137   2.193   6.998  0.00  0.00    +0.000 A 
ATOM     19  C   UNL     1      46.906   3.557   6.915  0.00  0.00    +0.000 A 
ATOM     20  N   UNL     1      46.024   4.216   7.689  0.00  0.00    +0.000 NA
ENDBRANCH  14  15
ENDBRANCH   8  14
ENDBRANCH   7   8
ENDBRANCH   1   7
BRANCH   4  21
ATOM     21  C   UNL     1      48.623   6.810  15.495  0.00  0.00    +0.000 C 
BRANCH  21  22
ATOM     22  N   UNL     1      49.669   5.990  16.045  0.00  0.00    +0.000 N 
ATOM     23  C   UNL     1      49.791   5.805  17.399  0.00  0.00    +0.000 C 
ATOM     24  O   UNL     1      49.002   6.293  18.202  0.00  0.00    +0.000 OA
ATOM     25  H   UNL     1      50.474   5.815  15.451  0.00  0.00    +0.000 HD
BRANCH  23  26
ATOM     26  C   UNL     1      50.895   4.943  17.840  0.00  0.00    +0.000 A 
ATOM     27  C   UNL     1      51.980   5.494  18.508  0.00  0.00    +0.000 A 
ATOM     28  S   UNL     1      53.165   4.349  18.949  0.00  0.00    +0.000 S 
ATOM     29  C   UNL     1      52.285   3.079  18.234  0.00  0.00    +0.000 A 
ATOM     30  N   UNL     1      52.766   1.810  18.229  0.00  0.00    +0.000 NA
ATOM     31  C   UNL     1      52.003   0.951  17.639  0.00  0.00    +0.000 A 
ATOM     32  N   UNL     1      50.795   1.247  17.063  0.00  0.00    +0.000 N 
ATOM     33  C   UNL     1      50.261   2.510  17.062  0.00  0.00    +0.000 A 
ATOM     34  O   UNL     1      49.155   2.732  16.577  0.00  0.00    +0.000 OA
ATOM     35  C   UNL     1      51.088   3.520  17.696  0.00  0.00    +0.000 A 
ATOM     36  H   UNL     1      50.233   0.525  16.634  0.00  0.00    +0.000 HD
ENDBRANCH  23  26
ENDBRANCH  21  22
ENDBRANCH   4  21
TORSDOF 10
ENDMDL
MODEL 3
REMARK VINA RESULT:    -7.670      2.077      2.294
REMARK INTER + INTRA:         -13.169
REMARK INTER:                 -12.180
REMARK INTRA:                  -0.988
REMARK UNBOUND:                -1.238
REMARK  Name = 
REMARK  10 active torsions:
REMARK  status: ('A' for Active; 'I' for Inactive)
REMARK    1  A    between atoms: N_1  and  C_2
REMARK    2  A    between atoms: C_2  and  C_3
REMARK    3  A    between atoms: C_3  and  N_4
REMARK    4  A    between atoms: N_4  and  C_5
REMARK    5  A    between atoms: N_4  and  C_26
REMARK    6  A    between atoms: C_5  and  C_6
REMARK    7  A    between atoms: C_9  and  C_10
REMARK    8  A    between atoms: C_10  and  N_11
REMARK    9  A    between atoms: C_12  and  C_14
REMARK   10  A    between atoms: C_26  and  C_27
REMARK                            x       y       z     vdW  Elec       q    Type
REMARK                         _______ _______ _______ _____ _____    ______ ____
ROOT
ATOM      1  C   UNL     1      46.084   5.018  12.373  0.00  0.00    +0.000 A 
ATOM      2  C   UNL     1      46.438   6.084  11.539  0.00  0.00    +0.000 A 
ATOM      3  C   UNL     1      47.375   7.036  11.961  0.00  0.00    +0.000 A 
ATOM      4  C   UNL     1      47.997   6.923  13.213  0.00  0.00    +0.000 A 
ATOM      5  C   UNL     1      47.612   5.880  14.063  0.00  0.00    +0.000 A 
ATOM      6  C   UNL     1      46.658   4.949  13.653  0.00  0.00    +0.000 A 
ENDROOT
BRANCH   1   7
ATOM      7  C   UNL     1      45.146   3.920  11.898  0.00  0.00    +0.000 C 
BRANCH   7   8
ATOM      8  N   UNL     1      44.741   4.037  10.478  0.00  0.00    +0.000 NA
BRANCH   8   9
ATOM      9  C   UNL     1      43.453   4.773  10.351  0.00  0.00    +0.000 C 
BRANCH   9  10
ATOM     10  C   UNL     1      42.663   4.994  11.666  0.00  0.00    +0.000 C 
BRANCH  10  11
ATOM     11  N   UNL     1      42.161   6.358  11.826  0.00  0.00    +0.000 NA
ATOM     12  H   UNL     1      42.876   6.902  12.313  0.00  0.00    +0.000 HD
ATOM     13  H   UNL     1      41.363   6.340  12.462  0.00  0.00    +0.000 HD
ENDBRANCH  10  11
ENDBRANCH   9  10
ENDBRANCH   8   9
BRANCH   8  14
ATOM     14  C   UNL     1      44.659   2.700   9.845  0.00  0.00    +0.000 C 
BRANCH  14  15
ATOM     15  C   UNL     1      45.532   2.486   8.627  0.00  0.00    +0.000 A 
ATOM     16  C   UNL     1      45.828   3.554   7.782  0.00  0.00    +0.000 A 
ATOM     17  C   UNL     1      46.711   3.344   6.724  0.00  0.00    +0.000 A 
ATOM     18  C   UNL     1      47.272   2.086   6.551  0.00  0.00    +0.000 A 
ATOM     19  C   UNL     1      46.919   1.078   7.434  0.00  0.00    +0.000 A 
ATOM     20  N   UNL     1      46.062   1.246   8.458  0.00  0.00    +0.000 NA
ENDBRANCH  14  15
ENDBRANCH   8  14
ENDBRANCH   7   8
ENDBRANCH   1   7
BRANCH   4  21
ATOM     21  C   UNL     1      49.054   7.899  13.663  0.00  0.00    +0.000 C 
BRANCH  21  22
ATOM     22  N   UNL     1      50.125   7.232  14.354  0.00  0.00    +0.000 N 
ATOM     23  C   UNL     1      50.301   7.380  15.706  0.00  0.00    +0.000 C 
ATOM     24  O   UNL     1      49.541   8.052  16.397  0.00  0.00    +0.000 OA
ATOM     25  H   UNL     1      50.906   6.914  13.789  0.00  0.00    +0.000 HD
BRANCH  23  26
ATOM     26  C   UNL     1      51.424   6.645  16.299  0.00  0.00    +0.000 A 
ATOM     27  C   UNL     1      52.721   7.114  16.139  0.00  0.00    +0.000 A 
ATOM     28  S   UNL     1      53.900   6.140  16.895  0.00  0.00    +0.000 S 
ATOM     29  C   UNL     1      52.721   5.037  17.438  0.00  0.00    +0.000 A 
ATOM     30  N   UNL     1      53.070   3.928  18.137  0.00  0.00    +0.000 NA
ATOM     31  C   UNL     1      52.077   3.172  18.471  0.00  0.00    +0.000 A 
ATOM     32  N   UNL     1      50.764   3.434  18.177  0.00  0.00    +0.000 N 
ATOM     33  C   UNL     1      50.364   4.551  17.492  0.00  0.00    +0.000 A 
ATOM     34  O   UNL     1      49.176   4.778  17.283  0.00  0.00    +0.000 OA
ATOM     35  C   UNL     1      51.444   5.427  17.074  0.00  0.00    +0.000 A 
ATOM     36  H   UNL     1      50.030   2.813  18.485  0.00  0.00    +0.000 HD
ENDBRANCH  23  26
ENDBRANCH  21  22
ENDBRANCH   4  21
TORSDOF 10
ENDMDL
MODEL 4
REMARK VINA RESULT:    -7.147      3.436      8.911
REMARK INTER + INTRA:         -12.354
REMARK INTER:                 -10.674
REMARK INTRA:                  -1.681
REMARK UNBOUND:                -1.238
REMARK  Name = 
REMARK  10 active torsions:
REMARK  status: ('A' for Active; 'I' for Inactive)
REMARK    1  A    between atoms: N_1  and  C_2
REMARK    2  A    between atoms: C_2  and  C_3
REMARK    3  A    between atoms: C_3  and  N_4
REMARK    4  A    between atoms: N_4  and  C_5
REMARK    5  A    between atoms: N_4  and  C_26
REMARK    6  A    between atoms: C_5  and  C_6
REMARK    7  A    between atoms: C_9  and  C_10
REMARK    8  A    between atoms: C_10  and  N_11
REMARK    9  A    between atoms: C_12  and  C_14
REMARK   10  A    between atoms: C_26  and  C_27
REMARK                            x       y       z     vdW  Elec       q    Type
REMARK                         _______ _______ _______ _____ _____    ______ ____
ROOT
ATOM      1  C   UNL     1      49.001   7.973  15.806  0.00  0.00    +0.000 A 
ATOM      2  C   UNL     1      48.150   9.008  15.402  0.00  0.00    +0.000 A 
ATOM      3  C   UNL     1      47.582   9.002  14.122  0.00  0.00    +0.000 A 
ATOM      4  C   UNL     1      47.832   7.947  13.231  0.00  0.00    +0.000 A 
ATOM      5  C   UNL     1      48.716   6.935  13.621  0.00  0.00    +0.000 A 
ATOM      6  C   UNL     1      49.303   6.955  14.886  0.00  0.00    +0.000 A 
ENDROOT
BRANCH   1   7
ATOM      7  C   UNL     1      49.548   7.907  17.223  0.00  0.00    +0.000 C 
BRANCH   7   8
ATOM      8  N   UNL     1      49.178   6.677  17.961  0.00  0.00    +0.000 NA
BRANCH   8   9
ATOM      9  C   UNL     1      48.605   7.010  19.294  0.00  0.00    +0.000 C 
BRANCH   9  10
ATOM     10  C   UNL     1      47.460   6.092  19.791  0.00  0.00    +0.000 C 
BRANCH  10  11
ATOM     11  N   UNL     1      46.718   5.441  18.711  0.00  0.00    +0.000 NA
ATOM     12  H   UNL     1      46.971   4.451  18.708  0.00  0.00    +0.000 HD
ATOM     13  H   UNL     1      47.056   5.804  17.819  0.00  0.00    +0.000 HD
ENDBRANCH  10  11
ENDBRANCH   9  10
ENDBRANCH   8   9
BRANCH   8  14
ATOM     14  C   UNL     1      50.344   5.772  18.089  0.00  0.00    +0.000 C 
BRANCH  14  15
ATOM     15  C   UNL     1      50.162   4.372  17.543  0.00  0.00    +0.000 A 
ATOM     16  C   UNL     1      51.193   3.441  17.649  0.00  0.00    +0.000 A 
ATOM     17  C   UNL     1      50.959   2.135  17.222  0.00  0.00    +0.000 A 
ATOM     18  C   UNL     1      49.710   1.802  16.714  0.00  0.00    +0.000 A 
ATOM     19  C   UNL     1      48.743   2.792  16.639  0.00  0.00    +0.000 A 
ATOM     20  N   UNL     1      48.940   4.063  17.033  0.00  0.00    +0.000 NA
ENDBRANCH  14  15
ENDBRANCH   8  14
ENDBRANCH   7   8
ENDBRANCH   1   7
BRANCH   4  21
ATOM     21  C   UNL     1      47.183   7.887  11.872  0.00  0.00    +0.000 C 
BRANCH  21  22
ATOM     22  N   UNL     1      46.585   6.601  11.632  0.00  0.00    +0.000 N 
ATOM     23  C   UNL     1      45.227   6.463  11.494  0.00  0.00    +0.000 C 
ATOM     24  O   UNL     1      44.462   7.421  11.529  0.00  0.00    +0.000 OA
ATOM     25  H   UNL     1      47.139   5.787  11.875  0.00  0.00    +0.000 HD
BRANCH  23  26
ATOM     26  C   UNL     1      44.735   5.102  11.247  0.00  0.00    +0.000 A 
ATOM     27  C   UNL     1      43.960   4.461  12.204  0.00  0.00    +0.000 A 
ATOM     28  S   UNL     1      43.473   2.890  11.751  0.00  0.00    +0.000 S 
ATOM     29  C   UNL     1      44.309   2.997  10.270  0.00  0.00    +0.000 A 
ATOM     30  N   UNL     1      44.328   1.956   9.401  0.00  0.00    +0.000 NA
ATOM     31  C   UNL     1      45.013   2.170   8.326  0.00  0.00    +0.000 A 
ATOM     32  N   UNL     1      45.670   3.337   8.040  0.00  0.00    +0.000 N 
ATOM     33  C   UNL     1      45.661   4.421   8.879  0.00  0.00    +0.000 A 
ATOM     34  O   UNL     1      46.225   5.468   8.571  0.00  0.00    +0.000 OA
ATOM     35  C   UNL     1      44.922   4.228  10.113  0.00  0.00    +0.000 A 
ATOM     36  H   UNL     1      46.173   3.450   7.171  0.00  0.00    +0.000 HD
ENDBRANCH  23  26
ENDBRANCH  21  22
ENDBRANCH   4  21
TORSDOF 10
ENDMDL
MODEL 5
REMARK VINA RESULT:    -6.427      4.107      9.286
REMARK INTER + INTRA:         -11.234
REMARK INTER:                  -9.786
REMARK INTRA:                  -1.448
REMARK UNBOUND:                -1.238
REMARK  Name = 
REMARK  10 active torsions:
REMARK  status: ('A' for Active; 'I' for Inactive)
REMARK    1  A    between atoms: N_1  and  C_2
REMARK    2  A    between atoms: C_2  and  C_3
REMARK    3  A    between atoms: C_3  and  N_4
REMARK    4  A    between atoms: N_4  and  C_5
REMARK    5  A    between atoms: N_4  and  C_26
REMARK    6  A    between atoms: C_5  and  C_6
REMARK    7  A    between atoms: C_9  and  C_10
REMARK    8  A    between atoms: C_10  and  N_11
REMARK    9  A    between atoms: C_12  and  C_14
REMARK   10  A    between atoms: C_26  and  C_27
REMARK                            x       y       z     vdW  Elec       q    Type
REMARK                         _______ _______ _______ _____ _____    ______ ____
ROOT
ATOM      1  C   UNL     1      51.334   3.684  18.111  0.00  0.00    +0.000 A 
ATOM      2  C   UNL     1      50.461   4.760  18.305  0.00  0.00    +0.000 A 
ATOM      3  C   UNL     1      49.129   4.680  17.880  0.00  0.00    +0.000 A 
ATOM      4  C   UNL     1      48.636   3.512  17.279  0.00  0.00    +0.000 A 
ATOM      5  C   UNL     1      49.521   2.452  17.047  0.00  0.00    +0.000 A 
ATOM      6  C   UNL     1      50.855   2.543  17.445  0.00  0.00    +0.000 A 
ENDROOT
BRANCH   1   7
ATOM      7  C   UNL     1      52.754   3.709  18.652  0.00  0.00    +0.000 C 
BRANCH   7   8
ATOM      8  N   UNL     1      53.804   3.694  17.608  0.00  0.00    +0.000 NA
BRANCH   8   9
ATOM      9  C   UNL     1      54.766   2.582  17.838  0.00  0.00    +0.000 C 
BRANCH   9  10
ATOM     10  C   UNL     1      54.238   1.154  17.546  0.00  0.00    +0.000 C 
BRANCH  10  11
ATOM     11  N   UNL     1      53.991   0.363  18.751  0.00  0.00    +0.000 NA
ATOM     12  H   UNL     1      53.695  -0.570  18.460  0.00  0.00    +0.000 HD
ATOM     13  H   UNL     1      53.185   0.757  19.240  0.00  0.00    +0.000 HD
ENDBRANCH  10  11
ENDBRANCH   9  10
ENDBRANCH   8   9
BRANCH   8  14
ATOM     14  C   UNL     1      54.500   5.001  17.547  0.00  0.00    +0.000 C 
BRANCH  14  15
ATOM     15  C   UNL     1      54.126   5.900  16.388  0.00  0.00    +0.000 A 
ATOM     16  C   UNL     1      52.968   6.672  16.447  0.00  0.00    +0.000 A 
ATOM     17  C   UNL     1      52.703   7.559  15.405  0.00  0.00    +0.000 A 
ATOM     18  C   UNL     1      53.601   7.652  14.350  0.00  0.00    +0.000 A 
ATOM     19  C   UNL     1      54.726   6.842  14.368  0.00  0.00    +0.000 A 
ATOM     20  N   UNL     1      55.005   5.970  15.353  0.00  0.00    +0.000 NA
ENDBRANCH  14  15
ENDBRANCH   8  14
ENDBRANCH   7   8
ENDBRANCH   1   7
BRANCH   4  21
ATOM     21  C   UNL     1      47.192   3.380  16.870  0.00  0.00    +0.000 C 
BRANCH  21  22
ATOM     22  N   UNL     1      46.829   4.373  15.895  0.00  0.00    +0.000 N 
ATOM     23  C   UNL     1      46.943   4.125  14.550  0.00  0.00    +0.000 C 
ATOM     24  O   UNL     1      47.321   3.043  14.112  0.00  0.00    +0.000 OA
ATOM     25  H   UNL     1      46.789   5.335  16.215  0.00  0.00    +0.000 HD
BRANCH  23  26
ATOM     26  C   UNL     1      46.538   5.214  13.653  0.00  0.00    +0.000 A 
ATOM     27  C   UNL     1      47.385   6.294  13.447  0.00  0.00    +0.000 A 
ATOM     28  S   UNL     1      46.757   7.462  12.374  0.00  0.00    +0.000 S 
ATOM     29  C   UNL     1      45.314   6.580  12.169  0.00  0.00    +0.000 A 
ATOM     30  N   UNL     1      44.313   7.049  11.384  0.00  0.00    +0.000 NA
ATOM     31  C   UNL     1      43.271   6.286  11.332  0.00  0.00    +0.000 A 
ATOM     32  N   UNL     1      43.148   5.090  11.989  0.00  0.00    +0.000 N 
ATOM     33  C   UNL     1      44.141   4.568  12.777  0.00  0.00    +0.000 A 
ATOM     34  O   UNL     1      44.015   3.472  13.316  0.00  0.00    +0.000 OA
ATOM     35  C   UNL     1      45.329   5.396  12.886  0.00  0.00    +0.000 A 
ATOM     36  H   UNL     1      42.314   4.528  11.892  0.00  0.00    +0.000 HD
ENDBRANCH  23  26
ENDBRANCH  21  22
ENDBRANCH   4  21
TORSDOF 10
ENDMDL
MODEL 6
REMARK VINA RESULT:    -6.376      3.532      9.199
REMARK INTER + INTRA:         -11.156
REMARK INTER:                  -9.626
REMARK INTRA:                  -1.530
REMARK UNBOUND:                -1.238
REMARK  Name = 
REMARK  10 active torsions:
REMARK  status: ('A' for Active; 'I' for Inactive)
REMARK    1  A    between atoms: N_1  and  C_2
REMARK    2  A    between atoms: C_2  and  C_3
REMARK    3  A    between atoms: C_3  and  N_4
REMARK    4  A    between atoms: N_4  and  C_5
REMARK    5  A    between atoms: N_4  and  C_26
REMARK    6  A    between atoms: C_5  and  C_6
REMARK    7  A    between atoms: C_9  and  C_10
REMARK    8  A    between atoms: C_10  and  N_11
REMARK    9  A    between atoms: C_12  and  C_14
REMARK   10  A    between atoms: C_26  and  C_27
REMARK                            x       y       z     vdW  Elec       q    Type
REMARK                         _______ _______ _______ _____ _____    ______ ____
ROOT
ATOM      1  C   UNL     1      50.170   7.858  15.105  0.00  0.00    +0.000 A 
ATOM      2  C   UNL     1      48.814   8.083  15.366  0.00  0.00    +0.000 A 
ATOM      3  C   UNL     1      47.891   8.167  14.316  0.00  0.00    +0.000 A 
ATOM      4  C   UNL     1      48.303   7.998  12.985  0.00  0.00    +0.000 A 
ATOM      5  C   UNL     1      49.665   7.815  12.722  0.00  0.00    +0.000 A 
ATOM      6  C   UNL     1      50.587   7.759  13.768  0.00  0.00    +0.000 A 
ENDROOT
BRANCH   1   7
ATOM      7  C   UNL     1      51.171   7.663  16.232  0.00  0.00    +0.000 C 
BRANCH   7   8
ATOM      8  N   UNL     1      50.611   7.011  17.438  0.00  0.00    +0.000 NA
BRANCH   8   9
ATOM      9  C   UNL     1      51.198   7.590  18.677  0.00  0.00    +0.000 C 
BRANCH   9  10
ATOM     10  C   UNL     1      52.746   7.626  18.745  0.00  0.00    +0.000 C 
BRANCH  10  11
ATOM     11  N   UNL     1      53.304   8.977  18.697  0.00  0.00    +0.000 NA
ATOM     12  H   UNL     1      54.297   8.916  18.927  0.00  0.00    +0.000 HD
ATOM     13  H   UNL     1      52.890   9.528  19.451  0.00  0.00    +0.000 HD
ENDBRANCH  10  11
ENDBRANCH   9  10
ENDBRANCH   8   9
BRANCH   8  14
ATOM     14  C   UNL     1      50.816   5.544  17.383  0.00  0.00    +0.000 C 
BRANCH  14  15
ATOM     15  C   UNL     1      49.561   4.696  17.405  0.00  0.00    +0.000 A 
ATOM     16  C   UNL     1      48.333   5.274  17.717  0.00  0.00    +0.000 A 
ATOM     17  C   UNL     1      47.185   4.486  17.636  0.00  0.00    +0.000 A 
ATOM     18  C   UNL     1      47.301   3.160  17.240  0.00  0.00    +0.000 A 
ATOM     19  C   UNL     1      48.563   2.665  16.953  0.00  0.00    +0.000 A 
ATOM     20  N   UNL     1      49.690   3.396  17.031  0.00  0.00    +0.000 NA
ENDBRANCH  14  15
ENDBRANCH   8  14
ENDBRANCH   7   8
ENDBRANCH   1   7
BRANCH   4  21
ATOM     21  C   UNL     1      47.320   8.022  11.843  0.00  0.00    +0.000 C 
BRANCH  21  22
ATOM     22  N   UNL     1      46.671   6.748  11.683  0.00  0.00    +0.000 N 
ATOM     23  C   UNL     1      45.310   6.656  11.535  0.00  0.00    +0.000 C 
ATOM     24  O   UNL     1      44.586   7.645  11.494  0.00  0.00    +0.000 OA
ATOM     25  H   UNL     1      47.189   5.930  11.988  0.00  0.00    +0.000 HD
BRANCH  23  26
ATOM     26  C   UNL     1      44.765   5.302  11.374  0.00  0.00    +0.000 A 
ATOM     27  C   UNL     1      44.011   4.734  12.391  0.00  0.00    +0.000 A 
ATOM     28  S   UNL     1      43.455   3.161  12.035  0.00  0.00    +0.000 S 
ATOM     29  C   UNL     1      44.231   3.170  10.518  0.00  0.00    +0.000 A 
ATOM     30  N   UNL     1      44.180   2.089   9.700  0.00  0.00    +0.000 NA
ATOM     31  C   UNL     1      44.826   2.229   8.589  0.00  0.00    +0.000 A 
ATOM     32  N   UNL     1      45.508   3.359   8.221  0.00  0.00    +0.000 N 
ATOM     33  C   UNL     1      45.569   4.480   9.006  0.00  0.00    +0.000 A 
ATOM     34  O   UNL     1      46.152   5.492   8.626  0.00  0.00    +0.000 OA
ATOM     35  C   UNL     1      44.876   4.371  10.277  0.00  0.00    +0.000 A 
ATOM     36  H   UNL     1      45.977   3.414   7.327  0.00  0.00    +0.000 HD
ENDBRANCH  23  26
ENDBRANCH  21  22
ENDBRANCH   4  21
TORSDOF 10
ENDMDL
MODEL 7
REMARK VINA RESULT:    -6.341      3.389      8.642
REMARK INTER + INTRA:         -11.101
REMARK INTER:                  -9.581
REMARK INTRA:                  -1.520
REMARK UNBOUND:                -1.238
REMARK  Name = 
REMARK  10 active torsions:
REMARK  status: ('A' for Active; 'I' for Inactive)
REMARK    1  A    between atoms: N_1  and  C_2
REMARK    2  A    between atoms: C_2  and  C_3
REMARK    3  A    between atoms: C_3  and  N_4
REMARK    4  A    between atoms: N_4  and  C_5
REMARK    5  A    between atoms: N_4  and  C_26
REMARK    6  A    between atoms: C_5  and  C_6
REMARK    7  A    between atoms: C_9  and  C_10
REMARK    8  A    between atoms: C_10  and  N_11
REMARK    9  A    between atoms: C_12  and  C_14
REMARK   10  A    between atoms: C_26  and  C_27
REMARK                            x       y       z     vdW  Elec       q    Type
REMARK                         _______ _______ _______ _____ _____    ______ ____
ROOT
ATOM      1  C   UNL     1      49.982   7.216  15.876  0.00  0.00    +0.000 A 
ATOM      2  C   UNL     1      50.524   8.228  15.075  0.00  0.00    +0.000 A 
ATOM      3  C   UNL     1      49.973   8.514  13.820  0.00  0.00    +0.000 A 
ATOM      4  C   UNL     1      48.850   7.813  13.354  0.00  0.00    +0.000 A 
ATOM      5  C   UNL     1      48.335   6.774  14.137  0.00  0.00    +0.000 A 
ATOM      6  C   UNL     1      48.902   6.471  15.375  0.00  0.00    +0.000 A 
ENDROOT
BRANCH   1   7
ATOM      7  C   UNL     1      50.501   6.956  17.281  0.00  0.00    +0.000 C 
BRANCH   7   8
ATOM      8  N   UNL     1      49.441   6.840  18.309  0.00  0.00    +0.000 NA
BRANCH   8   9
ATOM      9  C   UNL     1      49.445   8.022  19.213  0.00  0.00    +0.000 C 
BRANCH   9  10
ATOM     10  C   UNL     1      48.908   7.785  20.648  0.00  0.00    +0.000 C 
BRANCH  10  11
ATOM     11  N   UNL     1      47.495   8.124  20.808  0.00  0.00    +0.000 NA
ATOM     12  H   UNL     1      46.951   7.265  20.706  0.00  0.00    +0.000 HD
ATOM     13  H   UNL     1      47.210   8.713  20.024  0.00  0.00    +0.000 HD
ENDBRANCH  10  11
ENDBRANCH   9  10
ENDBRANCH   8   9
BRANCH   8  14
ATOM     14  C   UNL     1      49.590   5.580  19.074  0.00  0.00    +0.000 C 
BRANCH  14  15
ATOM     15  C   UNL     1      49.406   4.299  18.287  0.00  0.00    +0.000 A 
ATOM     16  C   UNL     1      48.153   3.965  17.778  0.00  0.00    +0.000 A 
ATOM     17  C   UNL     1      48.038   2.829  16.979  0.00  0.00    +0.000 A 
ATOM     18  C   UNL     1      49.172   2.073  16.710  0.00  0.00    +0.000 A 
ATOM     19  C   UNL     1      50.378   2.474  17.262  0.00  0.00    +0.000 A 
ATOM     20  N   UNL     1      50.520   3.559  18.045  0.00  0.00    +0.000 NA
ENDBRANCH  14  15
ENDBRANCH   8  14
ENDBRANCH   7   8
ENDBRANCH   1   7
BRANCH   4  21
ATOM     21  C   UNL     1      48.201   8.145  12.035  0.00  0.00    +0.000 C 
BRANCH  21  22
ATOM     22  N   UNL     1      47.531   7.001  11.477  0.00  0.00    +0.000 N 
ATOM     23  C   UNL     1      46.164   6.961  11.365  0.00  0.00    +0.000 C 
ATOM     24  O   UNL     1      45.451   7.902  11.697  0.00  0.00    +0.000 OA
ATOM     25  H   UNL     1      48.051   6.129  11.462  0.00  0.00    +0.000 HD
BRANCH  23  26
ATOM     26  C   UNL     1      45.597   5.742  10.776  0.00  0.00    +0.000 A 
ATOM     27  C   UNL     1      45.757   5.490   9.420  0.00  0.00    +0.000 A 
ATOM     28  S   UNL     1      45.037   4.030   8.906  0.00  0.00    +0.000 S 
ATOM     29  C   UNL     1      44.459   3.698  10.473  0.00  0.00    +0.000 A 
ATOM     30  N   UNL     1      43.716   2.591  10.725  0.00  0.00    +0.000 NA
ATOM     31  C   UNL     1      43.330   2.474  11.953  0.00  0.00    +0.000 A 
ATOM     32  N   UNL     1      43.632   3.361  12.953  0.00  0.00    +0.000 N 
ATOM     33  C   UNL     1      44.394   4.482  12.749  0.00  0.00    +0.000 A 
ATOM     34  O   UNL     1      44.682   5.233  13.676  0.00  0.00    +0.000 OA
ATOM     35  C   UNL     1      44.839   4.673  11.380  0.00  0.00    +0.000 A 
ATOM     36  H   UNL     1      43.317   3.202  13.900  0.00  0.00    +0.000 HD
ENDBRANCH  23  26
ENDBRANCH  21  22
ENDBRANCH   4  21
TORSDOF 10
ENDMDL
MODEL 8
REMARK VINA RESULT:    -6.076      1.957      3.309
REMARK INTER + INTRA:         -10.689
REMARK INTER:                 -10.660
REMARK INTRA:                  -0.029
REMARK UNBOUND:                -1.238
REMARK  Name = 
REMARK  10 active torsions:
REMARK  status: ('A' for Active; 'I' for Inactive)
REMARK    1  A    between atoms: N_1  and  C_2
REMARK    2  A    between atoms: C_2  and  C_3
REMARK    3  A    between atoms: C_3  and  N_4
REMARK    4  A    between atoms: N_4  and  C_5
REMARK    5  A    between atoms: N_4  and  C_26
REMARK    6  A    between atoms: C_5  and  C_6
REMARK    7  A    between atoms: C_9  and  C_10
REMARK    8  A    between atoms: C_10  and  N_11
REMARK    9  A    between atoms: C_12  and  C_14
REMARK   10  A    between atoms: C_26  and  C_27
REMARK                            x       y       z     vdW  Elec       q    Type
REMARK                         _______ _______ _______ _____ _____    ______ ____
ROOT
ATOM      1  C   UNL     1      45.829   4.740  12.144  0.00  0.00    +0.000 A 
ATOM      2  C   UNL     1      45.988   5.857  12.972  0.00  0.00    +0.000 A 
ATOM      3  C   UNL     1      46.491   5.714  14.271  0.00  0.00    +0.000 A 
ATOM      4  C   UNL     1      46.872   4.455  14.758  0.00  0.00    +0.000 A 
ATOM      5  C   UNL     1      46.674   3.333  13.945  0.00  0.00    +0.000 A 
ATOM      6  C   UNL     1      46.147   3.472  12.661  0.00  0.00    +0.000 A 
ENDROOT
BRANCH   1   7
ATOM      7  C   UNL     1      45.381   4.883  10.699  0.00  0.00    +0.000 C 
BRANCH   7   8
ATOM      8  N   UNL     1      44.172   4.098  10.357  0.00  0.00    +0.000 NA
BRANCH   8   9
ATOM      9  C   UNL     1      43.197   4.106  11.481  0.00  0.00    +0.000 C 
BRANCH   9  10
ATOM     10  C   UNL     1      42.537   5.471  11.802  0.00  0.00    +0.000 C 
BRANCH  10  11
ATOM     11  N   UNL     1      42.720   6.472  10.752  0.00  0.00    +0.000 NA
ATOM     12  H   UNL     1      42.970   5.983   9.891  0.00  0.00    +0.000 HD
ATOM     13  H   UNL     1      43.538   7.039  10.981  0.00  0.00    +0.000 HD
ENDBRANCH  10  11
ENDBRANCH   9  10
ENDBRANCH   8   9
BRANCH   8  14
ATOM     14  C   UNL     1      44.537   2.715   9.972  0.00  0.00    +0.000 C 
BRANCH  14  15
ATOM     15  C   UNL     1      45.368   2.571   8.714  0.00  0.00    +0.000 A 
ATOM     16  C   UNL     1      45.477   3.636   7.823  0.00  0.00    +0.000 A 
ATOM     17  C   UNL     1      46.325   3.504   6.725  0.00  0.00    +0.000 A 
ATOM     18  C   UNL     1      47.038   2.324   6.559  0.00  0.00    +0.000 A 
ATOM     19  C   UNL     1      46.866   1.312   7.490  0.00  0.00    +0.000 A 
ATOM     20  N   UNL     1      46.048   1.405   8.555  0.00  0.00    +0.000 NA
ENDBRANCH  14  15
ENDBRANCH   8  14
ENDBRANCH   7   8
ENDBRANCH   1   7
BRANCH   4  21
ATOM     21  C   UNL     1      47.474   4.285  16.129  0.00  0.00    +0.000 C 
BRANCH  21  22
ATOM     22  N   UNL     1      48.708   5.015  16.254  0.00  0.00    +0.000 N 
ATOM     23  C   UNL     1      48.855   6.008  17.189  0.00  0.00    +0.000 C 
ATOM     24  O   UNL     1      47.967   6.299  17.984  0.00  0.00    +0.000 OA
ATOM     25  H   UNL     1      49.334   4.995  15.456  0.00  0.00    +0.000 HD
BRANCH  23  26
ATOM     26  C   UNL     1      50.162   6.677  17.225  0.00  0.00    +0.000 A 
ATOM     27  C   UNL     1      50.844   6.800  18.427  0.00  0.00    +0.000 A 
ATOM     28  S   UNL     1      52.344   7.600  18.284  0.00  0.00    +0.000 S 
ATOM     29  C   UNL     1      52.121   7.838  16.613  0.00  0.00    +0.000 A 
ATOM     30  N   UNL     1      53.042   8.504  15.872  0.00  0.00    +0.000 NA
ATOM     31  C   UNL     1      52.737   8.626  14.622  0.00  0.00    +0.000 A 
ATOM     32  N   UNL     1      51.596   8.130  14.047  0.00  0.00    +0.000 N 
ATOM     33  C   UNL     1      50.649   7.434  14.752  0.00  0.00    +0.000 A 
ATOM     34  O   UNL     1      49.659   6.966  14.196  0.00  0.00    +0.000 OA
ATOM     35  C   UNL     1      50.933   7.285  16.168  0.00  0.00    +0.000 A 
ATOM     36  H   UNL     1      51.424   8.240  13.057  0.00  0.00    +0.000 HD
ENDBRANCH  23  26
ENDBRANCH  21  22
ENDBRANCH   4  21
TORSDOF 10
ENDMDL
MODEL 9
REMARK VINA RESULT:    -5.766      5.617      8.071
REMARK INTER + INTRA:         -10.206
REMARK INTER:                  -8.928
REMARK INTRA:                  -1.278
REMARK UNBOUND:                -1.238
REMARK  Name = 
REMARK  10 active torsions:
REMARK  status: ('A' for Active; 'I' for Inactive)
REMARK    1  A    between atoms: N_1  and  C_2
REMARK    2  A    between atoms: C_2  and  C_3
REMARK    3  A    between atoms: C_3  and  N_4
REMARK    4  A    between atoms: N_4  and  C_5
REMARK    5  A    between atoms: N_4  and  C_26
REMARK    6  A    between atoms: C_5  and  C_6
REMARK    7  A    between atoms: C_9  and  C_10
REMARK    8  A    between atoms: C_10  and  N_11
REMARK    9  A    between atoms: C_12  and  C_14
REMARK   10  A    between atoms: C_26  and  C_27
REMARK                            x       y       z     vdW  Elec       q    Type
REMARK                         _______ _______ _______ _____ _____    ______ ____
ROOT
ATOM      1  C   UNL     1      47.397   8.007  12.694  0.00  0.00    +0.000 A 
ATOM      2  C   UNL     1      48.234   8.552  13.673  0.00  0.00    +0.000 A 
ATOM      3  C   UNL     1      49.612   8.662  13.449  0.00  0.00    +0.000 A 
ATOM      4  C   UNL     1      50.175   8.256  12.230  0.00  0.00    +0.000 A 
ATOM      5  C   UNL     1      49.343   7.672  11.268  0.00  0.00    +0.000 A 
ATOM      6  C   UNL     1      47.975   7.537  11.503  0.00  0.00    +0.000 A 
ENDROOT
BRANCH   1   7
ATOM      7  C   UNL     1      45.888   7.970  12.875  0.00  0.00    +0.000 C 
BRANCH   7   8
ATOM      8  N   UNL     1      45.154   7.355  11.745  0.00  0.00    +0.000 NA
BRANCH   8   9
ATOM      9  C   UNL     1      43.980   8.184  11.359  0.00  0.00    +0.000 C 
BRANCH   9  10
ATOM     10  C   UNL     1      44.285   9.643  10.937  0.00  0.00    +0.000 C 
BRANCH  10  11
ATOM     11  N   UNL     1      43.640  10.039   9.686  0.00  0.00    +0.000 NA
ATOM     12  H   UNL     1      43.928  10.995   9.472  0.00  0.00    +0.000 HD
ATOM     13  H   UNL     1      42.632  10.094   9.841  0.00  0.00    +0.000 HD
ENDBRANCH  10  11
ENDBRANCH   9  10
ENDBRANCH   8   9
BRANCH   8  14
ATOM     14  C   UNL     1      44.747   5.969  12.077  0.00  0.00    +0.000 C 
BRANCH  14  15
ATOM     15  C   UNL     1      44.737   4.985  10.926  0.00  0.00    +0.000 A 
ATOM     16  C   UNL     1      45.444   5.267   9.760  0.00  0.00    +0.000 A 
ATOM     17  C   UNL     1      45.491   4.298   8.758  0.00  0.00    +0.000 A 
ATOM     18  C   UNL     1      44.844   3.086   8.957  0.00  0.00    +0.000 A 
ATOM     19  C   UNL     1      44.159   2.891  10.146  0.00  0.00    +0.000 A 
ATOM     20  N   UNL     1      44.085   3.809  11.127  0.00  0.00    +0.000 NA
ENDBRANCH  14  15
ENDBRANCH   8  14
ENDBRANCH   7   8
ENDBRANCH   1   7
BRANCH   4  21
ATOM     21  C   UNL     1      51.645   8.422  11.942  0.00  0.00    +0.000 C 
BRANCH  21  22
ATOM     22  N   UNL     1      51.966   8.015  10.601  0.00  0.00    +0.000 N 
ATOM     23  C   UNL     1      52.851   8.730   9.833  0.00  0.00    +0.000 C 
ATOM     24  O   UNL     1      53.437   9.720  10.257  0.00  0.00    +0.000 OA
ATOM     25  H   UNL     1      51.309   7.393  10.142  0.00  0.00    +0.000 HD
BRANCH  23  26
ATOM     26  C   UNL     1      53.102   8.213   8.482  0.00  0.00    +0.000 A 
ATOM     27  C   UNL     1      53.031   9.067   7.390  0.00  0.00    +0.000 A 
ATOM     28  S   UNL     1      53.354   8.301   5.900  0.00  0.00    +0.000 S 
ATOM     29  C   UNL     1      53.570   6.791   6.659  0.00  0.00    +0.000 A 
ATOM     30  N   UNL     1      53.842   5.677   5.935  0.00  0.00    +0.000 NA
ATOM     31  C   UNL     1      53.965   4.599   6.637  0.00  0.00    +0.000 A 
ATOM     32  N   UNL     1      53.851   4.541   8.002  0.00  0.00    +0.000 N 
ATOM     33  C   UNL     1      53.596   5.644   8.775  0.00  0.00    +0.000 A 
ATOM     34  O   UNL     1      53.544   5.565   9.999  0.00  0.00    +0.000 OA
ATOM     35  C   UNL     1      53.429   6.881   8.033  0.00  0.00    +0.000 A 
ATOM     36  H   UNL     1      53.978   3.670   8.497  0.00  0.00    +0.000 HD
ENDBRANCH  23  26
ENDBRANCH  21  22
ENDBRANCH   4  21
TORSDOF 10
ENDMDL
