MODEL 1
REMARK VINA RESULT:    -8.207      0.000      0.000
REMARK INTER + INTRA:         -12.255
REMARK INTER:                 -11.325
REMARK INTRA:                  -0.930
REMARK UNBOUND:                -0.930
REMARK  Name = 
REMARK  7 active torsions:
REMARK  status: ('A' for Active; 'I' for Inactive)
REMARK    1  A    between atoms: N_1  and  C_2
REMARK    2  A    between atoms: C_2  and  C_3
REMARK    3  A    between atoms: C_6  and  C_7
REMARK    4  A    between atoms: C_7  and  C_10
REMARK    5  A    between atoms: C_10  and  O_11
REMARK    6  A    between atoms: O_11  and  C_12
REMARK    7  A    between atoms: C_15  and  C_16
REMARK                            x       y       z     vdW  Elec       q    Type
REMARK                         _______ _______ _______ _____ _____    ______ ____
ROOT
ATOM      1  C   UNL     1      43.742   4.627  12.454  0.00  0.00    +0.000 C 
ATOM      2  F   UNL     1      43.726   3.365  12.975  0.00  0.00    +0.000 F 
ATOM      3  F   UNL     1      42.808   5.328  13.165  0.00  0.00    +0.000 F 
ENDROOT
BRANCH   1   7
ATOM      4  C   UNL     1      47.688   6.429  12.750  0.00  0.00    +0.000 A 
ATOM      5  C   UNL     1      46.838   6.747  11.681  0.00  0.00    +0.000 A 
ATOM      6  C   UNL     1      45.565   6.174  11.586  0.00  0.00    +0.000 A 
ATOM      7  C   UNL     1      45.117   5.267  12.556  0.00  0.00    +0.000 A 
ATOM      8  C   UNL     1      45.963   4.961  13.634  0.00  0.00    +0.000 A 
ATOM      9  C   UNL     1      47.234   5.536  13.728  0.00  0.00    +0.000 A 
BRANCH   4  10
ATOM     10  C   UNL     1      49.081   7.006  12.823  0.00  0.00    +0.000 C 
BRANCH  10  11
ATOM     11  N   UNL     1      49.671   6.829  14.143  0.00  0.00    +0.000 NA
ATOM     12  H   UNL     1      50.119   7.700  14.424  0.00  0.00    +0.000 HD
ATOM     13  H   UNL     1      50.414   6.134  14.081  0.00  0.00    +0.000 HD
ENDBRANCH  10  11
ENDBRANCH   4  10
ENDBRANCH   1   7
BRANCH   1  14
ATOM     14  C   UNL     1      43.291   4.560  10.984  0.00  0.00    +0.000 C 
BRANCH  14  15
ATOM     15  O   UNL     1      43.483   3.242  10.437  0.00  0.00    +0.000 OA
BRANCH  15  16
ATOM     16  C   UNL     1      44.438   3.128   9.464  0.00  0.00    +0.000 A 
ATOM     17  C   UNL     1      44.919   4.165   8.668  0.00  0.00    +0.000 A 
ATOM     18  C   UNL     1      45.911   3.910   7.721  0.00  0.00    +0.000 A 
ATOM     19  C   UNL     1      46.390   2.614   7.597  0.00  0.00    +0.000 A 
ATOM     20  N   UNL     1      45.943   1.568   8.345  0.00  0.00    +0.000 NA
ATOM     21  C   UNL     1      44.976   1.859   9.256  0.00  0.00    +0.000 A 
BRANCH  19  22
ATOM     22  C   UNL     1      47.470   2.330   6.598  0.00  0.00    +0.000 C 
ATOM     23  N   UNL     1      47.413   3.064   5.445  0.00  0.00    +0.000 N 
ATOM     24  O   UNL     1      48.343   1.495   6.790  0.00  0.00    +0.000 OA
ATOM     25  H   UNL     1      46.669   3.739   5.316  0.00  0.00    +0.000 HD
ATOM     26  H   UNL     1      48.102   2.907   4.723  0.00  0.00    +0.000 HD
ENDBRANCH  19  22
ENDBRANCH  15  16
ENDBRANCH  14  15
ENDBRANCH   1  14
TORSDOF 7
ENDMDL
MODEL 2
REMARK VINA RESULT:    -7.667      2.368      6.064
REMARK INTER + INTRA:         -11.510
REMARK INTER:                 -10.625
REMARK INTRA:                  -0.885
REMARK UNBOUND:                -0.930
REMARK  Name = 
REMARK  7 active torsions:
REMARK  status: ('A' for Active; 'I' for Inactive)
REMARK    1  A    between atoms: N_1  and  C_2
REMARK    2  A    between atoms: C_2  and  C_3
REMARK    3  A    between atoms: C_6  and  C_7
REMARK    4  A    between atoms: C_7  and  C_10
REMARK    5  A    between atoms: C_10  and  O_11
REMARK    6  A    between atoms: O_11  and  C_12
REMARK    7  A    between atoms: C_15  and  C_16
REMARK                            x       y       z     vdW  Elec       q    Type
REMARK                         _______ _______ _______ _____ _____    ______ ____
ROOT
ATOM      1  C   UNL     1      44.073   3.280  10.851  0.00  0.00    +0.000 C 
ATOM      2  F   UNL     1      43.293   4.401  10.826  0.00  0.00    +0.000 F 
ATOM      3  F   UNL     1      43.206   2.234  10.991  0.00  0.00    +0.000 F 
ENDROOT
BRANCH   1   7
ATOM      4  C   UNL     1      46.457   2.871   7.237  0.00  0.00    +0.000 A 
ATOM      5  C   UNL     1      46.077   4.138   7.701  0.00  0.00    +0.000 A 
ATOM      6  C   UNL     1      45.316   4.274   8.867  0.00  0.00    +0.000 A 
ATOM      7  C   UNL     1      44.913   3.144   9.591  0.00  0.00    +0.000 A 
ATOM      8  C   UNL     1      45.307   1.876   9.135  0.00  0.00    +0.000 A 
ATOM      9  C   UNL     1      46.069   1.743   7.971  0.00  0.00    +0.000 A 
BRANCH   4  10
ATOM     10  C   UNL     1      47.232   2.722   5.951  0.00  0.00    +0.000 C 
BRANCH  10  11
ATOM     11  N   UNL     1      48.388   1.850   6.113  0.00  0.00    +0.000 NA
ATOM     12  H   UNL     1      48.277   1.311   6.971  0.00  0.00    +0.000 HD
ATOM     13  H   UNL     1      49.219   2.425   6.244  0.00  0.00    +0.000 HD
ENDBRANCH  10  11
ENDBRANCH   4  10
ENDBRANCH   1   7
BRANCH   1  14
ATOM     14  C   UNL     1      44.978   3.338  12.095  0.00  0.00    +0.000 C 
BRANCH  14  15
ATOM     15  O   UNL     1      44.910   4.626  12.734  0.00  0.00    +0.000 OA
BRANCH  15  16
ATOM     16  C   UNL     1      46.044   5.390  12.671  0.00  0.00    +0.000 A 
ATOM     17  C   UNL     1      46.305   6.386  11.733  0.00  0.00    +0.000 A 
ATOM     18  C   UNL     1      47.500   7.101  11.796  0.00  0.00    +0.000 A 
ATOM     19  C   UNL     1      48.406   6.791  12.800  0.00  0.00    +0.000 A 
ATOM     20  N   UNL     1      48.198   5.819  13.731  0.00  0.00    +0.000 NA
ATOM     21  C   UNL     1      47.021   5.145  13.635  0.00  0.00    +0.000 A 
BRANCH  19  22
ATOM     22  C   UNL     1      49.685   7.565  12.891  0.00  0.00    +0.000 C 
ATOM     23  N   UNL     1      50.532   7.430  11.825  0.00  0.00    +0.000 N 
ATOM     24  O   UNL     1      49.964   8.267  13.852  0.00  0.00    +0.000 OA
ATOM     25  H   UNL     1      50.273   6.830  11.051  0.00  0.00    +0.000 HD
ATOM     26  H   UNL     1      51.420   7.912  11.833  0.00  0.00    +0.000 HD
ENDBRANCH  19  22
ENDBRANCH  15  16
ENDBRANCH  14  15
ENDBRANCH   1  14
TORSDOF 7
ENDMDL
MODEL 3
REMARK VINA RESULT:    -7.304      2.328      6.098
REMARK INTER + INTRA:         -11.010
REMARK INTER:                 -10.186
REMARK INTRA:                  -0.824
REMARK UNBOUND:                -0.930
REMARK  Name = 
REMARK  7 active torsions:
REMARK  status: ('A' for Active; 'I' for Inactive)
REMARK    1  A    between atoms: N_1  and  C_2
REMARK    2  A    between atoms: C_2  and  C_3
REMARK    3  A    between atoms: C_6  and  C_7
REMARK    4  A    between atoms: C_7  and  C_10
REMARK    5  A    between atoms: C_10  and  O_11
REMARK    6  A    between atoms: O_11  and  C_12
REMARK    7  A    between atoms: C_15  and  C_16
REMARK                            x       y       z     vdW  Elec       q    Type
REMARK                         _______ _______ _______ _____ _____    ______ ____
ROOT
ATOM      1  C   UNL     1      44.339   3.396  10.938  0.00  0.00    +0.000 C 
ATOM      2  F   UNL     1      43.143   2.736  10.951  0.00  0.00    +0.000 F 
ATOM      3  F   UNL     1      45.055   2.876  11.979  0.00  0.00    +0.000 F 
ENDROOT
BRANCH   1   7
ATOM      4  C   UNL     1      46.449   2.919   7.166  0.00  0.00    +0.000 A 
ATOM      5  C   UNL     1      46.022   1.797   7.891  0.00  0.00    +0.000 A 
ATOM      6  C   UNL     1      45.337   1.947   9.102  0.00  0.00    +0.000 A 
ATOM      7  C   UNL     1      45.069   3.223   9.616  0.00  0.00    +0.000 A 
ATOM      8  C   UNL     1      45.483   4.345   8.882  0.00  0.00    +0.000 A 
ATOM      9  C   UNL     1      46.166   4.194   7.672  0.00  0.00    +0.000 A 
BRANCH   4  10
ATOM     10  C   UNL     1      47.235   2.756   5.888  0.00  0.00    +0.000 C 
BRANCH  10  11
ATOM     11  N   UNL     1      48.343   1.824   6.049  0.00  0.00    +0.000 NA
ATOM     12  H   UNL     1      49.196   2.263   5.704  0.00  0.00    +0.000 HD
ATOM     13  H   UNL     1      48.179   1.013   5.455  0.00  0.00    +0.000 HD
ENDBRANCH  10  11
ENDBRANCH   4  10
ENDBRANCH   1   7
BRANCH   1  14
ATOM     14  C   UNL     1      44.081   4.888  11.216  0.00  0.00    +0.000 C 
BRANCH  14  15
ATOM     15  O   UNL     1      44.580   5.275  12.509  0.00  0.00    +0.000 OA
BRANCH  15  16
ATOM     16  C   UNL     1      45.814   5.866  12.526  0.00  0.00    +0.000 A 
ATOM     17  C   UNL     1      46.228   6.913  11.706  0.00  0.00    +0.000 A 
ATOM     18  C   UNL     1      47.514   7.433  11.840  0.00  0.00    +0.000 A 
ATOM     19  C   UNL     1      48.355   6.881  12.797  0.00  0.00    +0.000 A 
ATOM     20  N   UNL     1      47.998   5.852  13.612  0.00  0.00    +0.000 NA
ATOM     21  C   UNL     1      46.736   5.373  13.449  0.00  0.00    +0.000 A 
BRANCH  19  22
ATOM     22  C   UNL     1      49.733   7.444  12.966  0.00  0.00    +0.000 C 
ATOM     23  N   UNL     1      50.564   7.301  11.888  0.00  0.00    +0.000 N 
ATOM     24  O   UNL     1      50.100   7.991  13.996  0.00  0.00    +0.000 OA
ATOM     25  H   UNL     1      50.229   6.833  11.055  0.00  0.00    +0.000 HD
ATOM     26  H   UNL     1      51.512   7.644  11.945  0.00  0.00    +0.000 HD
ENDBRANCH  19  22
ENDBRANCH  15  16
ENDBRANCH  14  15
ENDBRANCH   1  14
TORSDOF 7
ENDMDL
MODEL 4
REMARK VINA RESULT:    -7.252      2.621      6.782
REMARK INTER + INTRA:         -10.937
REMARK INTER:                 -10.421
REMARK INTRA:                  -0.516
REMARK UNBOUND:                -0.930
REMARK  Name = 
REMARK  7 active torsions:
REMARK  status: ('A' for Active; 'I' for Inactive)
REMARK    1  A    between atoms: N_1  and  C_2
REMARK    2  A    between atoms: C_2  and  C_3
REMARK    3  A    between atoms: C_6  and  C_7
REMARK    4  A    between atoms: C_7  and  C_10
REMARK    5  A    between atoms: C_10  and  O_11
REMARK    6  A    between atoms: O_11  and  C_12
REMARK    7  A    between atoms: C_15  and  C_16
REMARK                            x       y       z     vdW  Elec       q    Type
REMARK                         _______ _______ _______ _____ _____    ______ ____
ROOT
ATOM      1  C   UNL     1      44.073   3.844  10.611  0.00  0.00    +0.000 C 
ATOM      2  F   UNL     1      43.314   4.937  10.303  0.00  0.00    +0.000 F 
ATOM      3  F   UNL     1      43.185   2.879  10.995  0.00  0.00    +0.000 F 
ENDROOT
BRANCH   1   7
ATOM      4  C   UNL     1      46.512   2.563   7.247  0.00  0.00    +0.000 A 
ATOM      5  C   UNL     1      46.055   1.633   8.192  0.00  0.00    +0.000 A 
ATOM      6  C   UNL     1      45.265   2.040   9.272  0.00  0.00    +0.000 A 
ATOM      7  C   UNL     1      44.919   3.389   9.433  0.00  0.00    +0.000 A 
ATOM      8  C   UNL     1      45.363   4.317   8.479  0.00  0.00    +0.000 A 
ATOM      9  C   UNL     1      46.152   3.908   7.400  0.00  0.00    +0.000 A 
BRANCH   4  10
ATOM     10  C   UNL     1      47.409   2.131   6.113  0.00  0.00    +0.000 C 
BRANCH  10  11
ATOM     11  N   UNL     1      48.790   2.541   6.329  0.00  0.00    +0.000 NA
ATOM     12  H   UNL     1      49.285   1.792   6.813  0.00  0.00    +0.000 HD
ATOM     13  H   UNL     1      48.801   3.342   6.958  0.00  0.00    +0.000 HD
ENDBRANCH  10  11
ENDBRANCH   4  10
ENDBRANCH   1   7
BRANCH   1  14
ATOM     14  C   UNL     1      44.970   4.191  11.813  0.00  0.00    +0.000 C 
BRANCH  14  15
ATOM     15  O   UNL     1      45.478   5.534  11.718  0.00  0.00    +0.000 OA
BRANCH  15  16
ATOM     16  C   UNL     1      46.376   5.908  12.681  0.00  0.00    +0.000 A 
ATOM     17  C   UNL     1      46.945   7.172  12.818  0.00  0.00    +0.000 A 
ATOM     18  C   UNL     1      47.838   7.421  13.860  0.00  0.00    +0.000 A 
ATOM     19  C   UNL     1      48.138   6.387  14.736  0.00  0.00    +0.000 A 
ATOM     20  N   UNL     1      47.615   5.135  14.634  0.00  0.00    +0.000 NA
ATOM     21  C   UNL     1      46.749   4.933  13.605  0.00  0.00    +0.000 A 
BRANCH  19  22
ATOM     22  C   UNL     1      49.080   6.646  15.871  0.00  0.00    +0.000 C 
ATOM     23  N   UNL     1      48.553   7.336  16.929  0.00  0.00    +0.000 N 
ATOM     24  O   UNL     1      50.245   6.275  15.859  0.00  0.00    +0.000 OA
ATOM     25  H   UNL     1      47.586   7.637  16.899  0.00  0.00    +0.000 HD
ATOM     26  H   UNL     1      49.141   7.558  17.719  0.00  0.00    +0.000 HD
ENDBRANCH  19  22
ENDBRANCH  15  16
ENDBRANCH  14  15
ENDBRANCH   1  14
TORSDOF 7
ENDMDL
MODEL 5
REMARK VINA RESULT:    -6.297      3.841      7.740
REMARK INTER + INTRA:          -9.620
REMARK INTER:                  -9.125
REMARK INTRA:                  -0.495
REMARK UNBOUND:                -0.930
REMARK  Name = 
REMARK  7 active torsions:
REMARK  status: ('A' for Active; 'I' for Inactive)
REMARK    1  A    between atoms: N_1  and  C_2
REMARK    2  A    between atoms: C_2  and  C_3
REMARK    3  A    between atoms: C_6  and  C_7
REMARK    4  A    between atoms: C_7  and  C_10
REMARK    5  A    between atoms: C_10  and  O_11
REMARK    6  A    between atoms: O_11  and  C_12
REMARK    7  A    between atoms: C_15  and  C_16
REMARK                            x       y       z     vdW  Elec       q    Type
REMARK                         _______ _______ _______ _____ _____    ______ ____
ROOT
ATOM      1  C   UNL     1      45.113   5.211  12.966  0.00  0.00    +0.000 C 
ATOM      2  F   UNL     1      44.764   6.527  13.073  0.00  0.00    +0.000 F 
ATOM      3  F   UNL     1      44.142   4.519  13.634  0.00  0.00    +0.000 F 
ENDROOT
BRANCH   1   7
ATOM      4  C   UNL     1      45.442   3.950   8.818  0.00  0.00    +0.000 A 
ATOM      5  C   UNL     1      44.992   3.057   9.801  0.00  0.00    +0.000 A 
ATOM      6  C   UNL     1      44.879   3.461  11.135  0.00  0.00    +0.000 A 
ATOM      7  C   UNL     1      45.219   4.766  11.516  0.00  0.00    +0.000 A 
ATOM      8  C   UNL     1      45.654   5.664  10.529  0.00  0.00    +0.000 A 
ATOM      9  C   UNL     1      45.766   5.259   9.196  0.00  0.00    +0.000 A 
BRANCH   4  10
ATOM     10  C   UNL     1      45.616   3.497   7.388  0.00  0.00    +0.000 C 
BRANCH  10  11
ATOM     11  N   UNL     1      46.794   4.092   6.771  0.00  0.00    +0.000 NA
ATOM     12  H   UNL     1      47.104   4.878   7.341  0.00  0.00    +0.000 HD
ATOM     13  H   UNL     1      46.531   4.482   5.868  0.00  0.00    +0.000 HD
ENDBRANCH  10  11
ENDBRANCH   4  10
ENDBRANCH   1   7
BRANCH   1  14
ATOM     14  C   UNL     1      46.454   4.997  13.690  0.00  0.00    +0.000 C 
BRANCH  14  15
ATOM     15  O   UNL     1      46.330   4.028  14.748  0.00  0.00    +0.000 OA
BRANCH  15  16
ATOM     16  C   UNL     1      47.205   4.162  15.792  0.00  0.00    +0.000 A 
ATOM     17  C   UNL     1      47.250   3.355  16.926  0.00  0.00    +0.000 A 
ATOM     18  C   UNL     1      48.209   3.595  17.911  0.00  0.00    +0.000 A 
ATOM     19  C   UNL     1      49.096   4.646  17.729  0.00  0.00    +0.000 A 
ATOM     20  N   UNL     1      49.082   5.467  16.643  0.00  0.00    +0.000 NA
ATOM     21  C   UNL     1      48.133   5.200  15.707  0.00  0.00    +0.000 A 
BRANCH  19  22
ATOM     22  C   UNL     1      50.143   4.903  18.768  0.00  0.00    +0.000 C 
ATOM     23  N   UNL     1      51.097   3.931  18.896  0.00  0.00    +0.000 N 
ATOM     24  O   UNL     1      50.149   5.908  19.465  0.00  0.00    +0.000 OA
ATOM     25  H   UNL     1      51.055   3.106  18.309  0.00  0.00    +0.000 HD
ATOM     26  H   UNL     1      51.822   4.035  19.592  0.00  0.00    +0.000 HD
ENDBRANCH  19  22
ENDBRANCH  15  16
ENDBRANCH  14  15
ENDBRANCH   1  14
TORSDOF 7
ENDMDL
MODEL 6
REMARK VINA RESULT:    -6.281      4.917      6.378
REMARK INTER + INTRA:          -9.598
REMARK INTER:                  -9.085
REMARK INTRA:                  -0.512
REMARK UNBOUND:                -0.930
REMARK  Name = 
REMARK  7 active torsions:
REMARK  status: ('A' for Active; 'I' for Inactive)
REMARK    1  A    between atoms: N_1  and  C_2
REMARK    2  A    between atoms: C_2  and  C_3
REMARK    3  A    between atoms: C_6  and  C_7
REMARK    4  A    between atoms: C_7  and  C_10
REMARK    5  A    between atoms: C_10  and  O_11
REMARK    6  A    between atoms: O_11  and  C_12
REMARK    7  A    between atoms: C_15  and  C_16
REMARK                            x       y       z     vdW  Elec       q    Type
REMARK                         _______ _______ _______ _____ _____    ______ ____
ROOT
ATOM      1  C   UNL     1      48.291   4.867  17.082  0.00  0.00    +0.000 C 
ATOM      2  F   UNL     1      47.499   4.935  18.192  0.00  0.00    +0.000 F 
ATOM      3  F   UNL     1      48.682   6.152  16.832  0.00  0.00    +0.000 F 
ENDROOT
BRANCH   1   7
ATOM      4  C   UNL     1      51.705   2.236  17.653  0.00  0.00    +0.000 A 
ATOM      5  C   UNL     1      51.798   3.601  17.962  0.00  0.00    +0.000 A 
ATOM      6  C   UNL     1      50.699   4.449  17.785  0.00  0.00    +0.000 A 
ATOM      7  C   UNL     1      49.486   3.951  17.291  0.00  0.00    +0.000 A 
ATOM      8  C   UNL     1      49.389   2.582  16.998  0.00  0.00    +0.000 A 
ATOM      9  C   UNL     1      50.488   1.735  17.176  0.00  0.00    +0.000 A 
BRANCH   4  10
ATOM     10  C   UNL     1      52.906   1.332  17.793  0.00  0.00    +0.000 C 
BRANCH  10  11
ATOM     11  N   UNL     1      52.527  -0.011  18.210  0.00  0.00    +0.000 NA
ATOM     12  H   UNL     1      52.669  -0.097  19.216  0.00  0.00    +0.000 HD
ATOM     13  H   UNL     1      53.159  -0.681  17.775  0.00  0.00    +0.000 HD
ENDBRANCH  10  11
ENDBRANCH   4  10
ENDBRANCH   1   7
BRANCH   1  14
ATOM     14  C   UNL     1      47.439   4.374  15.899  0.00  0.00    +0.000 C 
BRANCH  14  15
ATOM     15  O   UNL     1      47.713   5.128  14.704  0.00  0.00    +0.000 OA
BRANCH  15  16
ATOM     16  C   UNL     1      46.859   4.925  13.654  0.00  0.00    +0.000 A 
ATOM     17  C   UNL     1      46.501   5.873  12.699  0.00  0.00    +0.000 A 
ATOM     18  C   UNL     1      45.629   5.526  11.669  0.00  0.00    +0.000 A 
ATOM     19  C   UNL     1      45.134   4.230  11.630  0.00  0.00    +0.000 A 
ATOM     20  N   UNL     1      45.447   3.274  12.547  0.00  0.00    +0.000 NA
ATOM     21  C   UNL     1      46.300   3.653  13.535  0.00  0.00    +0.000 A 
BRANCH  19  22
ATOM     22  C   UNL     1      44.212   3.836  10.517  0.00  0.00    +0.000 C 
ATOM     23  N   UNL     1      44.008   4.789   9.556  0.00  0.00    +0.000 N 
ATOM     24  O   UNL     1      43.669   2.742  10.466  0.00  0.00    +0.000 OA
ATOM     25  H   UNL     1      44.466   5.689   9.637  0.00  0.00    +0.000 HD
ATOM     26  H   UNL     1      43.382   4.593   8.788  0.00  0.00    +0.000 HD
ENDBRANCH  19  22
ENDBRANCH  15  16
ENDBRANCH  14  15
ENDBRANCH   1  14
TORSDOF 7
ENDMDL
MODEL 7
REMARK VINA RESULT:    -5.876      4.151      7.380
REMARK INTER + INTRA:          -9.038
REMARK INTER:                  -8.098
REMARK INTRA:                  -0.940
REMARK UNBOUND:                -0.930
REMARK  Name = 
REMARK  7 active torsions:
REMARK  status: ('A' for Active; 'I' for Inactive)
REMARK    1  A    between atoms: N_1  and  C_2
REMARK    2  A    between atoms: C_2  and  C_3
REMARK    3  A    between atoms: C_6  and  C_7
REMARK    4  A    between atoms: C_7  and  C_10
REMARK    5  A    between atoms: C_10  and  O_11
REMARK    6  A    between atoms: O_11  and  C_12
REMARK    7  A    between atoms: C_15  and  C_16
REMARK                            x       y       z     vdW  Elec       q    Type
REMARK                         _______ _______ _______ _____ _____    ______ ____
ROOT
ATOM      1  C   UNL     1      47.064   8.115  12.149  0.00  0.00    +0.000 C 
ATOM      2  F   UNL     1      48.179   7.933  11.382  0.00  0.00    +0.000 F 
ATOM      3  F   UNL     1      46.541   9.315  11.755  0.00  0.00    +0.000 F 
ENDROOT
BRANCH   1   7
ATOM      4  C   UNL     1      44.178   4.901  11.652  0.00  0.00    +0.000 A 
ATOM      5  C   UNL     1      45.283   5.006  10.795  0.00  0.00    +0.000 A 
ATOM      6  C   UNL     1      46.217   6.035  10.956  0.00  0.00    +0.000 A 
ATOM      7  C   UNL     1      46.063   6.985  11.976  0.00  0.00    +0.000 A 
ATOM      8  C   UNL     1      44.966   6.870  12.843  0.00  0.00    +0.000 A 
ATOM      9  C   UNL     1      44.034   5.841  12.681  0.00  0.00    +0.000 A 
BRANCH   4  10
ATOM     10  C   UNL     1      43.142   3.823  11.445  0.00  0.00    +0.000 C 
BRANCH  10  11
ATOM     11  N   UNL     1      43.719   2.627  10.846  0.00  0.00    +0.000 NA
ATOM     12  H   UNL     1      43.537   2.639   9.843  0.00  0.00    +0.000 HD
ATOM     13  H   UNL     1      43.235   1.809  11.214  0.00  0.00    +0.000 HD
ENDBRANCH  10  11
ENDBRANCH   4  10
ENDBRANCH   1   7
BRANCH   1  14
ATOM     14  C   UNL     1      47.495   8.228  13.623  0.00  0.00    +0.000 C 
BRANCH  14  15
ATOM     15  O   UNL     1      48.552   7.302  13.933  0.00  0.00    +0.000 OA
BRANCH  15  16
ATOM     16  C   UNL     1      48.231   6.288  14.795  0.00  0.00    +0.000 A 
ATOM     17  C   UNL     1      47.439   5.183  14.496  0.00  0.00    +0.000 A 
ATOM     18  C   UNL     1      47.205   4.213  15.469  0.00  0.00    +0.000 A 
ATOM     19  C   UNL     1      47.773   4.384  16.724  0.00  0.00    +0.000 A 
ATOM     20  N   UNL     1      48.544   5.452  17.064  0.00  0.00    +0.000 NA
ATOM     21  C   UNL     1      48.748   6.375  16.087  0.00  0.00    +0.000 A 
BRANCH  19  22
ATOM     22  C   UNL     1      47.546   3.339  17.773  0.00  0.00    +0.000 C 
ATOM     23  N   UNL     1      48.447   3.333  18.803  0.00  0.00    +0.000 N 
ATOM     24  O   UNL     1      46.623   2.538  17.718  0.00  0.00    +0.000 OA
ATOM     25  H   UNL     1      49.205   4.004  18.810  0.00  0.00    +0.000 HD
ATOM     26  H   UNL     1      48.360   2.641  19.534  0.00  0.00    +0.000 HD
ENDBRANCH  19  22
ENDBRANCH  15  16
ENDBRANCH  14  15
ENDBRANCH   1  14
TORSDOF 7
ENDMDL
MODEL 8
REMARK VINA RESULT:    -5.629      4.729      8.596
REMARK INTER + INTRA:          -8.698
REMARK INTER:                  -7.972
REMARK INTRA:                  -0.727
REMARK UNBOUND:                -0.930
REMARK  Name = 
REMARK  7 active torsions:
REMARK  status: ('A' for Active; 'I' for Inactive)
REMARK    1  A    between atoms: N_1  and  C_2
REMARK    2  A    between atoms: C_2  and  C_3
REMARK    3  A    between atoms: C_6  and  C_7
REMARK    4  A    between atoms: C_7  and  C_10
REMARK    5  A    between atoms: C_10  and  O_11
REMARK    6  A    between atoms: O_11  and  C_12
REMARK    7  A    between atoms: C_15  and  C_16
REMARK                            x       y       z     vdW  Elec       q    Type
REMARK                         _______ _______ _______ _____ _____    ______ ____
ROOT
ATOM      1  C   UNL     1      47.902   6.963  12.598  0.00  0.00    +0.000 C 
ATOM      2  F   UNL     1      49.110   6.440  12.235  0.00  0.00    +0.000 F 
ATOM      3  F   UNL     1      47.778   8.125  11.890  0.00  0.00    +0.000 F 
ENDROOT
BRANCH   1   7
ATOM      4  C   UNL     1      44.638   4.221  11.737  0.00  0.00    +0.000 A 
ATOM      5  C   UNL     1      45.394   4.084  12.910  0.00  0.00    +0.000 A 
ATOM      6  C   UNL     1      46.440   4.968  13.194  0.00  0.00    +0.000 A 
ATOM      7  C   UNL     1      46.757   6.006  12.307  0.00  0.00    +0.000 A 
ATOM      8  C   UNL     1      45.990   6.152  11.140  0.00  0.00    +0.000 A 
ATOM      9  C   UNL     1      44.944   5.268  10.859  0.00  0.00    +0.000 A 
BRANCH   4  10
ATOM     10  C   UNL     1      43.545   3.235  11.406  0.00  0.00    +0.000 C 
BRANCH  10  11
ATOM     11  N   UNL     1      43.474   2.157  12.383  0.00  0.00    +0.000 NA
ATOM     12  H   UNL     1      42.675   1.564  12.164  0.00  0.00    +0.000 HD
ATOM     13  H   UNL     1      43.289   2.557  13.301  0.00  0.00    +0.000 HD
ENDBRANCH  10  11
ENDBRANCH   4  10
ENDBRANCH   1   7
BRANCH   1  14
ATOM     14  C   UNL     1      47.945   7.305  14.098  0.00  0.00    +0.000 C 
BRANCH  14  15
ATOM     15  O   UNL     1      49.025   6.622  14.761  0.00  0.00    +0.000 OA
BRANCH  15  16
ATOM     16  C   UNL     1      48.769   6.181  16.031  0.00  0.00    +0.000 A 
ATOM     17  C   UNL     1      48.256   4.932  16.372  0.00  0.00    +0.000 A 
ATOM     18  C   UNL     1      48.058   4.606  17.714  0.00  0.00    +0.000 A 
ATOM     19  C   UNL     1      48.379   5.551  18.679  0.00  0.00    +0.000 A 
ATOM     20  N   UNL     1      48.872   6.786  18.391  0.00  0.00    +0.000 NA
ATOM     21  C   UNL     1      49.050   7.064  17.073  0.00  0.00    +0.000 A 
BRANCH  19  22
ATOM     22  C   UNL     1      48.190   5.206  20.124  0.00  0.00    +0.000 C 
ATOM     23  N   UNL     1      48.488   3.916  20.467  0.00  0.00    +0.000 N 
ATOM     24  O   UNL     1      47.791   6.017  20.949  0.00  0.00    +0.000 OA
ATOM     25  H   UNL     1      48.806   3.268  19.755  0.00  0.00    +0.000 HD
ATOM     26  H   UNL     1      48.365   3.615  21.423  0.00  0.00    +0.000 HD
ENDBRANCH  19  22
ENDBRANCH  15  16
ENDBRANCH  14  15
ENDBRANCH   1  14
TORSDOF 7
ENDMDL
MODEL 9
REMARK VINA RESULT:    -5.374      4.231      5.937
REMARK INTER + INTRA:          -8.346
REMARK INTER:                  -7.749
REMARK INTRA:                  -0.597
REMARK UNBOUND:                -0.930
REMARK  Name = 
REMARK  7 active torsions:
REMARK  status: ('A' for Active; 'I' for Inactive)
REMARK    1  A    between atoms: N_1  and  C_2
REMARK    2  A    between atoms: C_2  and  C_3
REMARK    3  A    between atoms: C_6  and  C_7
REMARK    4  A    between atoms: C_7  and  C_10
REMARK    5  A    between atoms: C_10  and  O_11
REMARK    6  A    between atoms: O_11  and  C_12
REMARK    7  A    between atoms: C_15  and  C_16
REMARK                            x       y       z     vdW  Elec       q    Type
REMARK                         _______ _______ _______ _____ _____    ______ ____
ROOT
ATOM      1  C   UNL     1      48.994   7.543  14.827  0.00  0.00    +0.000 C 
ATOM      2  F   UNL     1      48.347   8.745  14.855  0.00  0.00    +0.000 F 
ATOM      3  F   UNL     1      50.285   7.830  14.482  0.00  0.00    +0.000 F 
ENDROOT
BRANCH   1   7
ATOM      4  C   UNL     1      48.761   5.511  18.664  0.00  0.00    +0.000 A 
ATOM      5  C   UNL     1      48.611   4.795  17.467  0.00  0.00    +0.000 A 
ATOM      6  C   UNL     1      48.692   5.444  16.231  0.00  0.00    +0.000 A 
ATOM      7  C   UNL     1      48.920   6.826  16.165  0.00  0.00    +0.000 A 
ATOM      8  C   UNL     1      49.086   7.539  17.362  0.00  0.00    +0.000 A 
ATOM      9  C   UNL     1      49.006   6.888  18.597  0.00  0.00    +0.000 A 
BRANCH   4  10
ATOM     10  C   UNL     1      48.621   4.819  19.998  0.00  0.00    +0.000 C 
BRANCH  10  11
ATOM     11  N   UNL     1      48.374   3.391  19.844  0.00  0.00    +0.000 NA
ATOM     12  H   UNL     1      48.205   3.189  18.859  0.00  0.00    +0.000 HD
ATOM     13  H   UNL     1      47.515   3.150  20.335  0.00  0.00    +0.000 HD
ENDBRANCH  10  11
ENDBRANCH   4  10
ENDBRANCH   1   7
BRANCH   1  14
ATOM     14  C   UNL     1      48.372   6.675  13.718  0.00  0.00    +0.000 C 
BRANCH  14  15
ATOM     15  O   UNL     1      46.976   6.975  13.539  0.00  0.00    +0.000 OA
BRANCH  15  16
ATOM     16  C   UNL     1      46.243   6.044  12.855  0.00  0.00    +0.000 A 
ATOM     17  C   UNL     1      45.870   6.123  11.515  0.00  0.00    +0.000 A 
ATOM     18  C   UNL     1      45.134   5.089  10.937  0.00  0.00    +0.000 A 
ATOM     19  C   UNL     1      44.786   4.002  11.727  0.00  0.00    +0.000 A 
ATOM     20  N   UNL     1      45.119   3.887  13.042  0.00  0.00    +0.000 NA
ATOM     21  C   UNL     1      45.837   4.916  13.567  0.00  0.00    +0.000 A 
BRANCH  19  22
ATOM     22  C   UNL     1      44.012   2.876  11.115  0.00  0.00    +0.000 C 
ATOM     23  N   UNL     1      44.583   2.300  10.013  0.00  0.00    +0.000 N 
ATOM     24  O   UNL     1      42.939   2.494  11.560  0.00  0.00    +0.000 OA
ATOM     25  H   UNL     1      45.468   2.649   9.665  0.00  0.00    +0.000 HD
ATOM     26  H   UNL     1      44.102   1.546   9.542  0.00  0.00    +0.000 HD
ENDBRANCH  19  22
ENDBRANCH  15  16
ENDBRANCH  14  15
ENDBRANCH   1  14
TORSDOF 7
ENDMDL
