MODEL 1
REMARK VINA RESULT:    -7.791      0.000      0.000
REMARK INTER + INTRA:          -9.777
REMARK INTER:                  -9.841
REMARK INTRA:                   0.064
REMARK UNBOUND:                 0.064
REMARK  Name = 
REMARK  6 active torsions:
REMARK  status: ('A' for Active; 'I' for Inactive)
REMARK    1  A    between atoms: C_1  and  C_2
REMARK    2  A    between atoms: C_2  and  O_3
REMARK    3  A    between atoms: C_2  and  C_14
REMARK    4  A    between atoms: O_3  and  C_4
REMARK    5  A    between atoms: C_7  and  C_8
REMARK    6  A    between atoms: C_12  and  N_13
REMARK                            x       y       z     vdW  Elec       q    Type
REMARK                         _______ _______ _______ _____ _____    ______ ____
ROOT
ATOM      1  C   UNL     1      44.898   4.067   9.271  0.00  0.00    +0.000 A 
ATOM      2  N   UNL     1      45.655   4.733   8.363  0.00  0.00    +0.000 NA
ATOM      3  C   UNL     1      46.459   3.947   7.599  0.00  0.00    +0.000 A 
ATOM      4  C   UNL     1      46.503   2.569   7.745  0.00  0.00    +0.000 A 
ATOM      5  N   UNL     1      45.734   1.893   8.645  0.00  0.00    +0.000 NA
ATOM      6  C   UNL     1      44.916   2.659   9.391  0.00  0.00    +0.000 A 
ENDROOT
BRANCH   4   7
ATOM      7  C   UNL     1      47.396   1.746   6.886  0.00  0.00    +0.000 C 
ATOM      8  N   UNL     1      48.507   2.388   6.411  0.00  0.00    +0.000 N 
ATOM      9  O   UNL     1      47.156   0.572   6.623  0.00  0.00    +0.000 OA
ATOM     10  H   UNL     1      48.665   3.360   6.646  0.00  0.00    +0.000 HD
ATOM     11  H   UNL     1      49.168   1.893   5.829  0.00  0.00    +0.000 HD
ENDBRANCH   4   7
BRANCH   6  12
ATOM     12  N   UNL     1      44.116   1.962  10.298  0.00  0.00    +0.000 N 
ATOM     13  H   UNL     1      43.247   2.476  10.407  0.00  0.00    +0.000 HD
ATOM     14  H   UNL     1      44.606   1.836  11.180  0.00  0.00    +0.000 HD
ENDBRANCH   6  12
BRANCH   1  15
ATOM     15  O   UNL     1      44.042   4.774  10.096  0.00  0.00    +0.000 OA
BRANCH  15  17
ATOM     16  C   UNL     1      43.076   5.162  12.313  0.00  0.00    +0.000 C 
ATOM     17  C   UNL     1      44.242   4.575  11.506  0.00  0.00    +0.000 C 
BRANCH  17  18
ATOM     18  C   UNL     1      45.522   5.282  11.931  0.00  0.00    +0.000 A 
ATOM     19  C   UNL     1      45.881   6.554  11.471  0.00  0.00    +0.000 A 
ATOM     20  C   UNL     1      47.028   7.176  11.962  0.00  0.00    +0.000 A 
ATOM     21  C   UNL     1      47.784   6.506  12.909  0.00  0.00    +0.000 A 
ATOM     22  N   UNL     1      47.477   5.279  13.380  0.00  0.00    +0.000 NA
ATOM     23  C   UNL     1      46.358   4.699  12.882  0.00  0.00    +0.000 A 
ENDBRANCH  17  18
ENDBRANCH  15  17
ENDBRANCH   1  15
TORSDOF 5
ENDMDL
MODEL 2
REMARK VINA RESULT:    -7.231      1.303      2.028
REMARK INTER + INTRA:          -9.070
REMARK INTER:                  -8.539
REMARK INTRA:                  -0.530
REMARK UNBOUND:                 0.064
REMARK  Name = 
REMARK  6 active torsions:
REMARK  status: ('A' for Active; 'I' for Inactive)
REMARK    1  A    between atoms: C_1  and  C_2
REMARK    2  A    between atoms: C_2  and  O_3
REMARK    3  A    between atoms: C_2  and  C_14
REMARK    4  A    between atoms: O_3  and  C_4
REMARK    5  A    between atoms: C_7  and  C_8
REMARK    6  A    between atoms: C_12  and  N_13
REMARK                            x       y       z     vdW  Elec       q    Type
REMARK                         _______ _______ _______ _____ _____    ______ ____
ROOT
ATOM      1  C   UNL     1      44.927   3.493   9.607  0.00  0.00    +0.000 A 
ATOM      2  N   UNL     1      44.969   2.159   9.367  0.00  0.00    +0.000 NA
ATOM      3  C   UNL     1      45.758   1.788   8.324  0.00  0.00    +0.000 A 
ATOM      4  C   UNL     1      46.461   2.709   7.562  0.00  0.00    +0.000 A 
ATOM      5  N   UNL     1      46.434   4.050   7.808  0.00  0.00    +0.000 NA
ATOM      6  C   UNL     1      45.675   4.426   8.855  0.00  0.00    +0.000 A 
ENDROOT
BRANCH   4   7
ATOM      7  C   UNL     1      47.316   2.260   6.431  0.00  0.00    +0.000 C 
ATOM      8  N   UNL     1      47.330   3.090   5.342  0.00  0.00    +0.000 N 
ATOM      9  O   UNL     1      47.967   1.222   6.471  0.00  0.00    +0.000 OA
ATOM     10  H   UNL     1      46.773   3.935   5.347  0.00  0.00    +0.000 HD
ATOM     11  H   UNL     1      47.895   2.859   4.537  0.00  0.00    +0.000 HD
ENDBRANCH   4   7
BRANCH   6  12
ATOM     12  N   UNL     1      45.664   5.797   9.115  0.00  0.00    +0.000 N 
ATOM     13  H   UNL     1      44.953   5.976   9.817  0.00  0.00    +0.000 HD
ATOM     14  H   UNL     1      45.507   6.321   8.259  0.00  0.00    +0.000 HD
ENDBRANCH   6  12
BRANCH   1  15
ATOM     15  O   UNL     1      44.156   3.975  10.650  0.00  0.00    +0.000 OA
BRANCH  15  17
ATOM     16  C   UNL     1      43.554   3.394  12.951  0.00  0.00    +0.000 C 
ATOM     17  C   UNL     1      44.680   3.733  11.966  0.00  0.00    +0.000 C 
BRANCH  17  18
ATOM     18  C   UNL     1      45.385   4.989  12.459  0.00  0.00    +0.000 A 
ATOM     19  C   UNL     1      46.730   5.010  12.846  0.00  0.00    +0.000 A 
ATOM     20  C   UNL     1      47.333   6.212  13.212  0.00  0.00    +0.000 A 
ATOM     21  C   UNL     1      46.571   7.368  13.175  0.00  0.00    +0.000 A 
ATOM     22  N   UNL     1      45.271   7.395  12.811  0.00  0.00    +0.000 NA
ATOM     23  C   UNL     1      44.712   6.211  12.463  0.00  0.00    +0.000 A 
ENDBRANCH  17  18
ENDBRANCH  15  17
ENDBRANCH   1  15
TORSDOF 5
ENDMDL
MODEL 3
REMARK VINA RESULT:    -6.854      2.511      6.136
REMARK INTER + INTRA:          -8.594
REMARK INTER:                  -8.059
REMARK INTRA:                  -0.534
REMARK UNBOUND:                 0.064
REMARK  Name = 
REMARK  6 active torsions:
REMARK  status: ('A' for Active; 'I' for Inactive)
REMARK    1  A    between atoms: C_1  and  C_2
REMARK    2  A    between atoms: C_2  and  O_3
REMARK    3  A    between atoms: C_2  and  C_14
REMARK    4  A    between atoms: O_3  and  C_4
REMARK    5  A    between atoms: C_7  and  C_8
REMARK    6  A    between atoms: C_12  and  N_13
REMARK                            x       y       z     vdW  Elec       q    Type
REMARK                         _______ _______ _______ _____ _____    ______ ____
ROOT
ATOM      1  C   UNL     1      45.861   5.407  13.033  0.00  0.00    +0.000 A 
ATOM      2  N   UNL     1      45.917   6.735  12.759  0.00  0.00    +0.000 NA
ATOM      3  C   UNL     1      47.001   7.380  13.265  0.00  0.00    +0.000 A 
ATOM      4  C   UNL     1      47.972   6.726  14.010  0.00  0.00    +0.000 A 
ATOM      5  N   UNL     1      47.929   5.390  14.275  0.00  0.00    +0.000 NA
ATOM      6  C   UNL     1      46.872   4.736  13.757  0.00  0.00    +0.000 A 
ENDROOT
BRANCH   4   7
ATOM      7  C   UNL     1      49.145   7.470  14.543  0.00  0.00    +0.000 C 
ATOM      8  N   UNL     1      50.282   7.391  13.785  0.00  0.00    +0.000 N 
ATOM      9  O   UNL     1      49.097   8.113  15.585  0.00  0.00    +0.000 OA
ATOM     10  H   UNL     1      50.282   6.844  12.933  0.00  0.00    +0.000 HD
ATOM     11  H   UNL     1      51.119   7.878  14.075  0.00  0.00    +0.000 HD
ENDBRANCH   4   7
BRANCH   6  12
ATOM     12  N   UNL     1      46.840   3.364  14.014  0.00  0.00    +0.000 N 
ATOM     13  H   UNL     1      46.978   3.230  15.011  0.00  0.00    +0.000 HD
ATOM     14  H   UNL     1      47.540   2.882  13.456  0.00  0.00    +0.000 HD
ENDBRANCH   6  12
BRANCH   1  15
ATOM     15  O   UNL     1      44.800   4.657  12.559  0.00  0.00    +0.000 OA
BRANCH  15  17
ATOM     16  C   UNL     1      42.671   4.966  11.389  0.00  0.00    +0.000 C 
ATOM     17  C   UNL     1      44.195   5.142  11.349  0.00  0.00    +0.000 C 
BRANCH  17  18
ATOM     18  C   UNL     1      44.737   4.345  10.169  0.00  0.00    +0.000 A 
ATOM     19  C   UNL     1      44.499   2.978   9.996  0.00  0.00    +0.000 A 
ATOM     20  C   UNL     1      44.959   2.328   8.852  0.00  0.00    +0.000 A 
ATOM     21  C   UNL     1      45.643   3.070   7.905  0.00  0.00    +0.000 A 
ATOM     22  N   UNL     1      45.897   4.390   8.031  0.00  0.00    +0.000 NA
ATOM     23  C   UNL     1      45.440   4.993   9.154  0.00  0.00    +0.000 A 
ENDBRANCH  17  18
ENDBRANCH  15  17
ENDBRANCH   1  15
TORSDOF 5
ENDMDL
MODEL 4
REMARK VINA RESULT:    -6.452      4.073      6.101
REMARK INTER + INTRA:          -8.085
REMARK INTER:                  -7.576
REMARK INTRA:                  -0.509
REMARK UNBOUND:                 0.064
REMARK  Name = 
REMARK  6 active torsions:
REMARK  status: ('A' for Active; 'I' for Inactive)
REMARK    1  A    between atoms: C_1  and  C_2
REMARK    2  A    between atoms: C_2  and  O_3
REMARK    3  A    between atoms: C_2  and  C_14
REMARK    4  A    between atoms: O_3  and  C_4
REMARK    5  A    between atoms: C_7  and  C_8
REMARK    6  A    between atoms: C_12  and  N_13
REMARK                            x       y       z     vdW  Elec       q    Type
REMARK                         _______ _______ _______ _____ _____    ______ ____
ROOT
ATOM      1  C   UNL     1      46.898   4.668  14.114  0.00  0.00    +0.000 A 
ATOM      2  N   UNL     1      46.601   3.387  13.778  0.00  0.00    +0.000 NA
ATOM      3  C   UNL     1      45.757   3.251  12.722  0.00  0.00    +0.000 A 
ATOM      4  C   UNL     1      45.235   4.343  12.045  0.00  0.00    +0.000 A 
ATOM      5  N   UNL     1      45.541   5.632  12.368  0.00  0.00    +0.000 NA
ATOM      6  C   UNL     1      46.397   5.778  13.398  0.00  0.00    +0.000 A 
ENDROOT
BRANCH   4   7
ATOM      7  C   UNL     1      44.316   4.150  10.892  0.00  0.00    +0.000 C 
ATOM      8  N   UNL     1      43.821   5.300  10.338  0.00  0.00    +0.000 N 
ATOM      9  O   UNL     1      44.024   3.039  10.463  0.00  0.00    +0.000 OA
ATOM     10  H   UNL     1      44.082   6.198  10.727  0.00  0.00    +0.000 HD
ATOM     11  H   UNL     1      43.197   5.252   9.544  0.00  0.00    +0.000 HD
ENDBRANCH   4   7
BRANCH   6  12
ATOM     12  N   UNL     1      46.723   7.098  13.714  0.00  0.00    +0.000 N 
ATOM     13  H   UNL     1      45.989   7.467  14.309  0.00  0.00    +0.000 HD
ATOM     14  H   UNL     1      46.850   7.645  12.867  0.00  0.00    +0.000 HD
ENDBRANCH   6  12
BRANCH   1  15
ATOM     15  O   UNL     1      47.753   4.916  15.172  0.00  0.00    +0.000 OA
BRANCH  15  17
ATOM     16  C   UNL     1      47.066   4.862  17.523  0.00  0.00    +0.000 C 
ATOM     17  C   UNL     1      47.579   4.064  16.317  0.00  0.00    +0.000 C 
BRANCH  17  18
ATOM     18  C   UNL     1      48.922   3.449  16.687  0.00  0.00    +0.000 A 
ATOM     19  C   UNL     1      49.879   4.112  17.463  0.00  0.00    +0.000 A 
ATOM     20  C   UNL     1      51.055   3.460  17.831  0.00  0.00    +0.000 A 
ATOM     21  C   UNL     1      51.239   2.153  17.414  0.00  0.00    +0.000 A 
ATOM     22  N   UNL     1      50.345   1.475  16.664  0.00  0.00    +0.000 NA
ATOM     23  C   UNL     1      49.213   2.135  16.320  0.00  0.00    +0.000 A 
ENDBRANCH  17  18
ENDBRANCH  15  17
ENDBRANCH   1  15
TORSDOF 5
ENDMDL
MODEL 5
REMARK VINA RESULT:    -6.450      4.195      6.141
REMARK INTER + INTRA:          -8.083
REMARK INTER:                  -7.614
REMARK INTRA:                  -0.469
REMARK UNBOUND:                 0.064
REMARK  Name = 
REMARK  6 active torsions:
REMARK  status: ('A' for Active; 'I' for Inactive)
REMARK    1  A    between atoms: C_1  and  C_2
REMARK    2  A    between atoms: C_2  and  O_3
REMARK    3  A    between atoms: C_2  and  C_14
REMARK    4  A    between atoms: O_3  and  C_4
REMARK    5  A    between atoms: C_7  and  C_8
REMARK    6  A    between atoms: C_12  and  N_13
REMARK                            x       y       z     vdW  Elec       q    Type
REMARK                         _______ _______ _______ _____ _____    ______ ____
ROOT
ATOM      1  C   UNL     1      46.949   5.674  13.483  0.00  0.00    +0.000 A 
ATOM      2  N   UNL     1      46.455   6.903  13.190  0.00  0.00    +0.000 NA
ATOM      3  C   UNL     1      45.230   6.903  12.600  0.00  0.00    +0.000 A 
ATOM      4  C   UNL     1      44.545   5.732  12.314  0.00  0.00    +0.000 A 
ATOM      5  N   UNL     1      45.030   4.495  12.620  0.00  0.00    +0.000 NA
ATOM      6  C   UNL     1      46.231   4.484  13.228  0.00  0.00    +0.000 A 
ENDROOT
BRANCH   4   7
ATOM      7  C   UNL     1      43.205   5.777  11.669  0.00  0.00    +0.000 C 
ATOM      8  N   UNL     1      42.822   7.005  11.201  0.00  0.00    +0.000 N 
ATOM      9  O   UNL     1      42.494   4.785  11.560  0.00  0.00    +0.000 OA
ATOM     10  H   UNL     1      43.437   7.802  11.316  0.00  0.00    +0.000 HD
ATOM     11  H   UNL     1      41.929   7.116  10.740  0.00  0.00    +0.000 HD
ENDBRANCH   4   7
BRANCH   6  12
ATOM     12  N   UNL     1      46.717   3.217  13.557  0.00  0.00    +0.000 N 
ATOM     13  H   UNL     1      47.149   3.276  14.473  0.00  0.00    +0.000 HD
ATOM     14  H   UNL     1      47.361   2.887  12.843  0.00  0.00    +0.000 HD
ENDBRANCH   6  12
BRANCH   1  15
ATOM     15  O   UNL     1      48.187   5.563  14.090  0.00  0.00    +0.000 OA
BRANCH  15  17
ATOM     16  C   UNL     1      49.601   7.049  15.429  0.00  0.00    +0.000 C 
ATOM     17  C   UNL     1      48.310   6.222  15.362  0.00  0.00    +0.000 C 
BRANCH  17  18
ATOM     18  C   UNL     1      48.357   5.172  16.463  0.00  0.00    +0.000 A 
ATOM     19  C   UNL     1      47.284   4.324  16.758  0.00  0.00    +0.000 A 
ATOM     20  C   UNL     1      47.423   3.332  17.727  0.00  0.00    +0.000 A 
ATOM     21  C   UNL     1      48.642   3.210  18.373  0.00  0.00    +0.000 A 
ATOM     22  N   UNL     1      49.703   4.006  18.123  0.00  0.00    +0.000 NA
ATOM     23  C   UNL     1      49.537   4.963  17.178  0.00  0.00    +0.000 A 
ENDBRANCH  17  18
ENDBRANCH  15  17
ENDBRANCH   1  15
TORSDOF 5
ENDMDL
MODEL 6
REMARK VINA RESULT:    -6.293      3.100      4.931
REMARK INTER + INTRA:          -7.884
REMARK INTER:                  -7.381
REMARK INTRA:                  -0.504
REMARK UNBOUND:                 0.064
REMARK  Name = 
REMARK  6 active torsions:
REMARK  status: ('A' for Active; 'I' for Inactive)
REMARK    1  A    between atoms: C_1  and  C_2
REMARK    2  A    between atoms: C_2  and  O_3
REMARK    3  A    between atoms: C_2  and  C_14
REMARK    4  A    between atoms: O_3  and  C_4
REMARK    5  A    between atoms: C_7  and  C_8
REMARK    6  A    between atoms: C_12  and  N_13
REMARK                            x       y       z     vdW  Elec       q    Type
REMARK                         _______ _______ _______ _____ _____    ______ ____
ROOT
ATOM      1  C   UNL     1      45.996   5.944  12.673  0.00  0.00    +0.000 A 
ATOM      2  N   UNL     1      45.447   6.130  11.447  0.00  0.00    +0.000 NA
ATOM      3  C   UNL     1      44.781   5.055  10.948  0.00  0.00    +0.000 A 
ATOM      4  C   UNL     1      44.680   3.859  11.641  0.00  0.00    +0.000 A 
ATOM      5  N   UNL     1      45.217   3.671  12.880  0.00  0.00    +0.000 NA
ATOM      6  C   UNL     1      45.857   4.738  13.395  0.00  0.00    +0.000 A 
ENDROOT
BRANCH   4   7
ATOM      7  C   UNL     1      43.940   2.707  11.059  0.00  0.00    +0.000 C 
ATOM      8  N   UNL     1      44.467   2.196   9.903  0.00  0.00    +0.000 N 
ATOM      9  O   UNL     1      42.930   2.244  11.578  0.00  0.00    +0.000 OA
ATOM     10  H   UNL     1      45.299   2.612   9.504  0.00  0.00    +0.000 HD
ATOM     11  H   UNL     1      44.027   1.406   9.452  0.00  0.00    +0.000 HD
ENDBRANCH   4   7
BRANCH   6  12
ATOM     12  N   UNL     1      46.390   4.549  14.671  0.00  0.00    +0.000 N 
ATOM     13  H   UNL     1      45.747   4.957  15.342  0.00  0.00    +0.000 HD
ATOM     14  H   UNL     1      47.322   4.950  14.731  0.00  0.00    +0.000 HD
ENDBRANCH   6  12
BRANCH   1  15
ATOM     15  O   UNL     1      46.691   6.979  13.274  0.00  0.00    +0.000 OA
BRANCH  15  17
ATOM     16  C   UNL     1      49.099   7.144  13.693  0.00  0.00    +0.000 C 
ATOM     17  C   UNL     1      47.960   7.296  12.676  0.00  0.00    +0.000 C 
BRANCH  17  18
ATOM     18  C   UNL     1      47.935   8.742  12.199  0.00  0.00    +0.000 A 
ATOM     19  C   UNL     1      49.013   9.350  11.547  0.00  0.00    +0.000 A 
ATOM     20  C   UNL     1      48.894  10.653  11.066  0.00  0.00    +0.000 A 
ATOM     21  C   UNL     1      47.691  11.313  11.247  0.00  0.00    +0.000 A 
ATOM     22  N   UNL     1      46.625  10.767  11.871  0.00  0.00    +0.000 NA
ATOM     23  C   UNL     1      46.772   9.501  12.329  0.00  0.00    +0.000 A 
ENDBRANCH  17  18
ENDBRANCH  15  17
ENDBRANCH   1  15
TORSDOF 5
ENDMDL
MODEL 7
REMARK VINA RESULT:    -6.240      3.752      5.536
REMARK INTER + INTRA:          -7.817
REMARK INTER:                  -7.264
REMARK INTRA:                  -0.553
REMARK UNBOUND:                 0.064
REMARK  Name = 
REMARK  6 active torsions:
REMARK  status: ('A' for Active; 'I' for Inactive)
REMARK    1  A    between atoms: C_1  and  C_2
REMARK    2  A    between atoms: C_2  and  O_3
REMARK    3  A    between atoms: C_2  and  C_14
REMARK    4  A    between atoms: O_3  and  C_4
REMARK    5  A    between atoms: C_7  and  C_8
REMARK    6  A    between atoms: C_12  and  N_13
REMARK                            x       y       z     vdW  Elec       q    Type
REMARK                         _______ _______ _______ _____ _____    ______ ____
ROOT
ATOM      1  C   UNL     1      46.997   5.476  12.897  0.00  0.00    +0.000 A 
ATOM      2  N   UNL     1      46.477   6.034  11.775  0.00  0.00    +0.000 NA
ATOM      3  C   UNL     1      45.244   5.581  11.426  0.00  0.00    +0.000 A 
ATOM      4  C   UNL     1      44.574   4.615  12.162  0.00  0.00    +0.000 A 
ATOM      5  N   UNL     1      45.085   4.061  13.299  0.00  0.00    +0.000 NA
ATOM      6  C   UNL     1      46.296   4.522  13.667  0.00  0.00    +0.000 A 
ENDROOT
BRANCH   4   7
ATOM      7  C   UNL     1      43.225   4.147  11.746  0.00  0.00    +0.000 C 
ATOM      8  N   UNL     1      42.244   5.103  11.761  0.00  0.00    +0.000 N 
ATOM      9  O   UNL     1      43.005   2.990  11.410  0.00  0.00    +0.000 OA
ATOM     10  H   UNL     1      42.466   6.047  12.052  0.00  0.00    +0.000 HD
ATOM     11  H   UNL     1      41.302   4.866  11.482  0.00  0.00    +0.000 HD
ENDBRANCH   4   7
BRANCH   6  12
ATOM     12  N   UNL     1      46.807   3.967  14.842  0.00  0.00    +0.000 N 
ATOM     13  H   UNL     1      46.223   3.176  15.093  0.00  0.00    +0.000 HD
ATOM     14  H   UNL     1      46.852   4.668  15.577  0.00  0.00    +0.000 HD
ENDBRANCH   6  12
BRANCH   1  15
ATOM     15  O   UNL     1      48.245   5.873  13.342  0.00  0.00    +0.000 OA
BRANCH  15  17
ATOM     16  C   UNL     1      49.761   7.677  12.675  0.00  0.00    +0.000 C 
ATOM     17  C   UNL     1      48.459   7.293  13.390  0.00  0.00    +0.000 C 
BRANCH  17  18
ATOM     18  C   UNL     1      48.566   7.730  14.845  0.00  0.00    +0.000 A 
ATOM     19  C   UNL     1      48.249   9.022  15.280  0.00  0.00    +0.000 A 
ATOM     20  C   UNL     1      48.293   9.331  16.639  0.00  0.00    +0.000 A 
ATOM     21  C   UNL     1      48.650   8.333  17.529  0.00  0.00    +0.000 A 
ATOM     22  N   UNL     1      48.966   7.075  17.154  0.00  0.00    +0.000 NA
ATOM     23  C   UNL     1      48.916   6.805  15.828  0.00  0.00    +0.000 A 
ENDBRANCH  17  18
ENDBRANCH  15  17
ENDBRANCH   1  15
TORSDOF 5
ENDMDL
MODEL 8
REMARK VINA RESULT:    -6.188      4.590      7.623
REMARK INTER + INTRA:          -7.752
REMARK INTER:                  -7.319
REMARK INTRA:                  -0.433
REMARK UNBOUND:                 0.064
REMARK  Name = 
REMARK  6 active torsions:
REMARK  status: ('A' for Active; 'I' for Inactive)
REMARK    1  A    between atoms: C_1  and  C_2
REMARK    2  A    between atoms: C_2  and  O_3
REMARK    3  A    between atoms: C_2  and  C_14
REMARK    4  A    between atoms: O_3  and  C_4
REMARK    5  A    between atoms: C_7  and  C_8
REMARK    6  A    between atoms: C_12  and  N_13
REMARK                            x       y       z     vdW  Elec       q    Type
REMARK                         _______ _______ _______ _____ _____    ______ ____
ROOT
ATOM      1  C   UNL     1      47.616   3.888  15.725  0.00  0.00    +0.000 A 
ATOM      2  N   UNL     1      47.930   2.581  15.542  0.00  0.00    +0.000 NA
ATOM      3  C   UNL     1      49.030   2.155  16.220  0.00  0.00    +0.000 A 
ATOM      4  C   UNL     1      49.774   3.000  17.030  0.00  0.00    +0.000 A 
ATOM      5  N   UNL     1      49.454   4.310  17.229  0.00  0.00    +0.000 NA
ATOM      6  C   UNL     1      48.352   4.736  16.582  0.00  0.00    +0.000 A 
ENDROOT
BRANCH   4   7
ATOM      7  C   UNL     1      50.969   2.492  17.756  0.00  0.00    +0.000 C 
ATOM      8  N   UNL     1      51.156   1.137  17.700  0.00  0.00    +0.000 N 
ATOM      9  O   UNL     1      51.736   3.234  18.358  0.00  0.00    +0.000 OA
ATOM     10  H   UNL     1      50.495   0.559  17.196  0.00  0.00    +0.000 HD
ATOM     11  H   UNL     1      51.952   0.717  18.160  0.00  0.00    +0.000 HD
ENDBRANCH   4   7
BRANCH   6  12
ATOM     12  N   UNL     1      48.016   6.073  16.802  0.00  0.00    +0.000 N 
ATOM     13  H   UNL     1      47.727   6.166  17.771  0.00  0.00    +0.000 HD
ATOM     14  H   UNL     1      47.296   6.371  16.150  0.00  0.00    +0.000 HD
ENDBRANCH   6  12
BRANCH   1  15
ATOM     15  O   UNL     1      46.512   4.420  15.084  0.00  0.00    +0.000 OA
BRANCH  15  17
ATOM     16  C   UNL     1      47.163   6.051  13.377  0.00  0.00    +0.000 C 
ATOM     17  C   UNL     1      46.663   4.631  13.670  0.00  0.00    +0.000 C 
BRANCH  17  18
ATOM     18  C   UNL     1      45.310   4.452  12.994  0.00  0.00    +0.000 A 
ATOM     19  C   UNL     1      44.279   5.393  13.084  0.00  0.00    +0.000 A 
ATOM     20  C   UNL     1      43.094   5.203  12.375  0.00  0.00    +0.000 A 
ATOM     21  C   UNL     1      42.976   4.071  11.586  0.00  0.00    +0.000 A 
ATOM     22  N   UNL     1      43.942   3.136  11.470  0.00  0.00    +0.000 NA
ATOM     23  C   UNL     1      45.081   3.348  12.172  0.00  0.00    +0.000 A 
ENDBRANCH  17  18
ENDBRANCH  15  17
ENDBRANCH   1  15
TORSDOF 5
ENDMDL
MODEL 9
REMARK VINA RESULT:    -6.169      4.265      6.260
REMARK INTER + INTRA:          -7.728
REMARK INTER:                  -7.336
REMARK INTRA:                  -0.392
REMARK UNBOUND:                 0.064
REMARK  Name = 
REMARK  6 active torsions:
REMARK  status: ('A' for Active; 'I' for Inactive)
REMARK    1  A    between atoms: C_1  and  C_2
REMARK    2  A    between atoms: C_2  and  O_3
REMARK    3  A    between atoms: C_2  and  C_14
REMARK    4  A    between atoms: O_3  and  C_4
REMARK    5  A    between atoms: C_7  and  C_8
REMARK    6  A    between atoms: C_12  and  N_13
REMARK                            x       y       z     vdW  Elec       q    Type
REMARK                         _______ _______ _______ _____ _____    ______ ____
ROOT
ATOM      1  C   UNL     1      46.674   5.366  13.435  0.00  0.00    +0.000 A 
ATOM      2  N   UNL     1      45.630   4.580  13.799  0.00  0.00    +0.000 NA
ATOM      3  C   UNL     1      44.477   4.804  13.114  0.00  0.00    +0.000 A 
ATOM      4  C   UNL     1      44.379   5.768  12.122  0.00  0.00    +0.000 A 
ATOM      5  N   UNL     1      45.429   6.550  11.741  0.00  0.00    +0.000 NA
ATOM      6  C   UNL     1      46.583   6.320  12.396  0.00  0.00    +0.000 A 
ENDROOT
BRANCH   4   7
ATOM      7  C   UNL     1      43.099   5.978  11.395  0.00  0.00    +0.000 C 
ATOM      8  N   UNL     1      42.818   7.276  11.066  0.00  0.00    +0.000 N 
ATOM      9  O   UNL     1      42.348   5.053  11.106  0.00  0.00    +0.000 OA
ATOM     10  H   UNL     1      43.463   8.012  11.329  0.00  0.00    +0.000 HD
ATOM     11  H   UNL     1      41.971   7.499  10.562  0.00  0.00    +0.000 HD
ENDBRANCH   4   7
BRANCH   6  12
ATOM     12  N   UNL     1      47.661   7.109  11.991  0.00  0.00    +0.000 N 
ATOM     13  H   UNL     1      47.339   8.071  11.934  0.00  0.00    +0.000 HD
ATOM     14  H   UNL     1      48.038   6.771  11.110  0.00  0.00    +0.000 HD
ENDBRANCH   6  12
BRANCH   1  15
ATOM     15  O   UNL     1      47.895   5.216  14.067  0.00  0.00    +0.000 OA
BRANCH  15  17
ATOM     16  C   UNL     1      49.285   6.850  15.251  0.00  0.00    +0.000 C 
ATOM     17  C   UNL     1      48.045   5.946  15.296  0.00  0.00    +0.000 C 
BRANCH  17  18
ATOM     18  C   UNL     1      48.217   4.958  16.443  0.00  0.00    +0.000 A 
ATOM     19  C   UNL     1      47.365   3.867  16.645  0.00  0.00    +0.000 A 
ATOM     20  C   UNL     1      47.626   2.956  17.668  0.00  0.00    +0.000 A 
ATOM     21  C   UNL     1      48.743   3.161  18.460  0.00  0.00    +0.000 A 
ATOM     22  N   UNL     1      49.591   4.200  18.303  0.00  0.00    +0.000 NA
ATOM     23  C   UNL     1      49.309   5.068  17.302  0.00  0.00    +0.000 A 
ENDBRANCH  17  18
ENDBRANCH  15  17
ENDBRANCH   1  15
TORSDOF 5
ENDMDL
