MODEL 1
REMARK VINA RESULT:    -8.687      0.000      0.000
REMARK INTER + INTRA:         -12.600
REMARK INTER:                 -11.734
REMARK INTRA:                  -0.866
REMARK UNBOUND:                -0.866
REMARK  Name = 
REMARK  8 active torsions:
REMARK  status: ('A' for Active; 'I' for Inactive)
REMARK    1  A    between atoms: C_1  and  C_2
REMARK    2  A    between atoms: C_2  and  N_3
REMARK    3  A    between atoms: C_2  and  C_17
REMARK    4  A    between atoms: C_4  and  C_6
REMARK    5  A    between atoms: N_12  and  C_13
REMARK    6  A    between atoms: C_20  and  O_21
REMARK    7  A    between atoms: O_21  and  C_22
REMARK    8  A    between atoms: C_22  and  C_23
REMARK                            x       y       z     vdW  Elec       q    Type
REMARK                         _______ _______ _______ _____ _____    ______ ____
ROOT
ATOM      1  C   UNL     1      45.901   8.828  12.924  0.00  0.00    +0.000 C 
ATOM      2  C   UNL     1      46.893   7.663  12.885  0.00  0.00    +0.000 C 
ENDROOT
BRANCH   2   3
ATOM      3  C   UNL     1      46.237   6.395  12.368  0.00  0.00    +0.000 A 
ATOM      4  C   UNL     1      45.750   6.327  11.056  0.00  0.00    +0.000 A 
ATOM      5  C   UNL     1      45.232   5.128  10.554  0.00  0.00    +0.000 A 
ATOM      6  C   UNL     1      45.212   3.983  11.350  0.00  0.00    +0.000 A 
ATOM      7  C   UNL     1      45.633   4.058  12.677  0.00  0.00    +0.000 A 
ATOM      8  C   UNL     1      46.152   5.249  13.177  0.00  0.00    +0.000 A 
BRANCH   6   9
ATOM      9  O   UNL     1      44.775   2.834  10.745  0.00  0.00    +0.000 OA
BRANCH   9  10
ATOM     10  C   UNL     1      44.387   3.005   9.375  0.00  0.00    +0.000 C 
BRANCH  10  11
ATOM     11  C   UNL     1      45.455   2.534   8.416  0.00  0.00    +0.000 A 
ATOM     12  C   UNL     1      46.110   3.426   7.570  0.00  0.00    +0.000 A 
ATOM     13  C   UNL     1      47.153   2.957   6.778  0.00  0.00    +0.000 A 
ATOM     14  C   UNL     1      47.527   1.622   6.861  0.00  0.00    +0.000 A 
ATOM     15  C   UNL     1      46.838   0.804   7.738  0.00  0.00    +0.000 A 
ATOM     16  N   UNL     1      45.820   1.227   8.517  0.00  0.00    +0.000 NA
ENDBRANCH  10  11
ENDBRANCH   9  10
ENDBRANCH   6   9
ENDBRANCH   2   3
BRANCH   2  17
ATOM     17  N   UNL     1      47.430   7.399  14.206  0.00  0.00    +0.000 N 
ATOM     18  C   UNL     1      48.765   7.298  14.483  0.00  0.00    +0.000 C 
ATOM     19  O   UNL     1      49.626   7.294  13.609  0.00  0.00    +0.000 OA
ATOM     20  H   UNL     1      46.790   7.534  14.979  0.00  0.00    +0.000 HD
BRANCH  18  21
ATOM     21  C   UNL     1      49.106   7.141  15.904  0.00  0.00    +0.000 A 
ATOM     22  C   UNL     1      49.775   8.156  16.574  0.00  0.00    +0.000 A 
ATOM     23  S   UNL     1      50.072   7.806  18.217  0.00  0.00    +0.000 S 
ATOM     24  C   UNL     1      49.283   6.302  18.098  0.00  0.00    +0.000 A 
ATOM     25  N   UNL     1      49.146   5.498  19.183  0.00  0.00    +0.000 NA
ATOM     26  C   UNL     1      48.501   4.399  18.960  0.00  0.00    +0.000 A 
ATOM     27  N   UNL     1      47.988   4.006  17.742  0.00  0.00    +0.000 N 
ATOM     28  C   UNL     1      47.308   2.737  17.598  0.00  0.00    +0.000 C 
ATOM     29  C   UNL     1      48.154   4.784  16.601  0.00  0.00    +0.000 A 
ATOM     30  O   UNL     1      47.782   4.413  15.489  0.00  0.00    +0.000 OA
ATOM     31  C   UNL     1      48.834   6.051  16.816  0.00  0.00    +0.000 A 
ENDBRANCH  18  21
ENDBRANCH   2  17
TORSDOF 6
ENDMDL
MODEL 2
REMARK VINA RESULT:    -8.580      1.774      2.412
REMARK INTER + INTRA:         -12.455
REMARK INTER:                 -11.440
REMARK INTRA:                  -1.015
REMARK UNBOUND:                -0.866
REMARK  Name = 
REMARK  8 active torsions:
REMARK  status: ('A' for Active; 'I' for Inactive)
REMARK    1  A    between atoms: C_1  and  C_2
REMARK    2  A    between atoms: C_2  and  N_3
REMARK    3  A    between atoms: C_2  and  C_17
REMARK    4  A    between atoms: C_4  and  C_6
REMARK    5  A    between atoms: N_12  and  C_13
REMARK    6  A    between atoms: C_20  and  O_21
REMARK    7  A    between atoms: O_21  and  C_22
REMARK    8  A    between atoms: C_22  and  C_23
REMARK                            x       y       z     vdW  Elec       q    Type
REMARK                         _______ _______ _______ _____ _____    ______ ____
ROOT
ATOM      1  C   UNL     1      46.974   8.364  13.639  0.00  0.00    +0.000 C 
ATOM      2  C   UNL     1      47.450   6.922  13.447  0.00  0.00    +0.000 C 
ENDROOT
BRANCH   2   3
ATOM      3  C   UNL     1      46.513   6.147  12.537  0.00  0.00    +0.000 A 
ATOM      4  C   UNL     1      46.392   6.485  11.183  0.00  0.00    +0.000 A 
ATOM      5  C   UNL     1      45.600   5.711  10.328  0.00  0.00    +0.000 A 
ATOM      6  C   UNL     1      44.937   4.583  10.812  0.00  0.00    +0.000 A 
ATOM      7  C   UNL     1      45.000   4.277  12.171  0.00  0.00    +0.000 A 
ATOM      8  C   UNL     1      45.791   5.044  13.022  0.00  0.00    +0.000 A 
BRANCH   6   9
ATOM      9  O   UNL     1      44.263   3.833   9.885  0.00  0.00    +0.000 OA
BRANCH   9  10
ATOM     10  C   UNL     1      44.777   2.505   9.720  0.00  0.00    +0.000 C 
BRANCH  10  11
ATOM     11  C   UNL     1      45.594   2.360   8.458  0.00  0.00    +0.000 A 
ATOM     12  C   UNL     1      45.721   3.414   7.556  0.00  0.00    +0.000 A 
ATOM     13  C   UNL     1      46.562   3.262   6.459  0.00  0.00    +0.000 A 
ATOM     14  C   UNL     1      47.267   2.076   6.299  0.00  0.00    +0.000 A 
ATOM     15  C   UNL     1      47.100   1.083   7.248  0.00  0.00    +0.000 A 
ATOM     16  N   UNL     1      46.288   1.199   8.320  0.00  0.00    +0.000 NA
ENDBRANCH  10  11
ENDBRANCH   9  10
ENDBRANCH   6   9
ENDBRANCH   2   3
BRANCH   2  17
ATOM     17  N   UNL     1      47.533   6.231  14.719  0.00  0.00    +0.000 N 
ATOM     18  C   UNL     1      48.653   6.199  15.502  0.00  0.00    +0.000 C 
ATOM     19  O   UNL     1      49.734   6.648  15.132  0.00  0.00    +0.000 OA
ATOM     20  H   UNL     1      46.649   5.971  15.139  0.00  0.00    +0.000 HD
BRANCH  18  21
ATOM     21  C   UNL     1      48.496   5.542  16.807  0.00  0.00    +0.000 A 
ATOM     22  C   UNL     1      48.572   4.160  16.903  0.00  0.00    +0.000 A 
ATOM     23  S   UNL     1      48.382   3.577  18.495  0.00  0.00    +0.000 S 
ATOM     24  C   UNL     1      48.230   5.155  19.115  0.00  0.00    +0.000 A 
ATOM     25  N   UNL     1      48.081   5.370  20.447  0.00  0.00    +0.000 NA
ATOM     26  C   UNL     1      48.006   6.616  20.785  0.00  0.00    +0.000 A 
ATOM     27  N   UNL     1      48.047   7.685  19.916  0.00  0.00    +0.000 N 
ATOM     28  C   UNL     1      47.924   9.042  20.402  0.00  0.00    +0.000 C 
ATOM     29  C   UNL     1      48.151   7.497  18.541  0.00  0.00    +0.000 A 
ATOM     30  O   UNL     1      48.101   8.430  17.741  0.00  0.00    +0.000 OA
ATOM     31  C   UNL     1      48.282   6.112  18.120  0.00  0.00    +0.000 A 
ENDBRANCH  18  21
ENDBRANCH   2  17
TORSDOF 6
ENDMDL
MODEL 3
REMARK VINA RESULT:    -8.181      2.126      2.995
REMARK INTER + INTRA:         -11.917
REMARK INTER:                 -10.585
REMARK INTRA:                  -1.331
REMARK UNBOUND:                -0.866
REMARK  Name = 
REMARK  8 active torsions:
REMARK  status: ('A' for Active; 'I' for Inactive)
REMARK    1  A    between atoms: C_1  and  C_2
REMARK    2  A    between atoms: C_2  and  N_3
REMARK    3  A    between atoms: C_2  and  C_17
REMARK    4  A    between atoms: C_4  and  C_6
REMARK    5  A    between atoms: N_12  and  C_13
REMARK    6  A    between atoms: C_20  and  O_21
REMARK    7  A    between atoms: O_21  and  C_22
REMARK    8  A    between atoms: C_22  and  C_23
REMARK                            x       y       z     vdW  Elec       q    Type
REMARK                         _______ _______ _______ _____ _____    ______ ____
ROOT
ATOM      1  C   UNL     1      47.644   8.778  13.668  0.00  0.00    +0.000 C 
ATOM      2  C   UNL     1      47.966   7.285  13.767  0.00  0.00    +0.000 C 
ENDROOT
BRANCH   2   3
ATOM      3  C   UNL     1      46.983   6.453  12.963  0.00  0.00    +0.000 A 
ATOM      4  C   UNL     1      46.774   5.101  13.270  0.00  0.00    +0.000 A 
ATOM      5  C   UNL     1      45.800   4.363  12.589  0.00  0.00    +0.000 A 
ATOM      6  C   UNL     1      45.013   4.970  11.610  0.00  0.00    +0.000 A 
ATOM      7  C   UNL     1      45.259   6.296  11.254  0.00  0.00    +0.000 A 
ATOM      8  C   UNL     1      46.225   7.033  11.933  0.00  0.00    +0.000 A 
BRANCH   6   9
ATOM      9  O   UNL     1      44.024   4.197  11.065  0.00  0.00    +0.000 OA
BRANCH   9  10
ATOM     10  C   UNL     1      43.901   4.323   9.641  0.00  0.00    +0.000 C 
BRANCH  10  11
ATOM     11  C   UNL     1      44.977   3.559   8.905  0.00  0.00    +0.000 A 
ATOM     12  C   UNL     1      45.124   2.183   9.065  0.00  0.00    +0.000 A 
ATOM     13  C   UNL     1      46.065   1.513   8.291  0.00  0.00    +0.000 A 
ATOM     14  C   UNL     1      46.820   2.225   7.368  0.00  0.00    +0.000 A 
ATOM     15  C   UNL     1      46.603   3.587   7.257  0.00  0.00    +0.000 A 
ATOM     16  N   UNL     1      45.701   4.265   7.996  0.00  0.00    +0.000 NA
ENDBRANCH  10  11
ENDBRANCH   9  10
ENDBRANCH   6   9
ENDBRANCH   2   3
BRANCH   2  17
ATOM     17  N   UNL     1      47.928   6.840  15.146  0.00  0.00    +0.000 N 
ATOM     18  C   UNL     1      49.040   6.594  15.903  0.00  0.00    +0.000 C 
ATOM     19  O   UNL     1      50.175   6.608  15.437  0.00  0.00    +0.000 OA
ATOM     20  H   UNL     1      47.041   6.949  15.622  0.00  0.00    +0.000 HD
BRANCH  18  21
ATOM     21  C   UNL     1      48.787   6.262  17.312  0.00  0.00    +0.000 A 
ATOM     22  C   UNL     1      49.063   4.986  17.785  0.00  0.00    +0.000 A 
ATOM     23  S   UNL     1      48.722   4.788  19.445  0.00  0.00    +0.000 S 
ATOM     24  C   UNL     1      48.230   6.410  19.596  0.00  0.00    +0.000 A 
ATOM     25  N   UNL     1      47.845   6.914  20.796  0.00  0.00    +0.000 NA
ATOM     26  C   UNL     1      47.524   8.167  20.775  0.00  0.00    +0.000 A 
ATOM     27  N   UNL     1      47.532   8.977  19.659  0.00  0.00    +0.000 N 
ATOM     28  C   UNL     1      47.124  10.362  19.744  0.00  0.00    +0.000 C 
ATOM     29  C   UNL     1      47.875   8.479  18.406  0.00  0.00    +0.000 A 
ATOM     30  O   UNL     1      47.805   9.159  17.384  0.00  0.00    +0.000 OA
ATOM     31  C   UNL     1      48.286   7.085  18.392  0.00  0.00    +0.000 A 
ENDBRANCH  18  21
ENDBRANCH   2  17
TORSDOF 6
ENDMDL
MODEL 4
REMARK VINA RESULT:    -7.844      2.443      3.528
REMARK INTER + INTRA:         -11.461
REMARK INTER:                 -10.267
REMARK INTRA:                  -1.194
REMARK UNBOUND:                -0.866
REMARK  Name = 
REMARK  8 active torsions:
REMARK  status: ('A' for Active; 'I' for Inactive)
REMARK    1  A    between atoms: C_1  and  C_2
REMARK    2  A    between atoms: C_2  and  N_3
REMARK    3  A    between atoms: C_2  and  C_17
REMARK    4  A    between atoms: C_4  and  C_6
REMARK    5  A    between atoms: N_12  and  C_13
REMARK    6  A    between atoms: C_20  and  O_21
REMARK    7  A    between atoms: O_21  and  C_22
REMARK    8  A    between atoms: C_22  and  C_23
REMARK                            x       y       z     vdW  Elec       q    Type
REMARK                         _______ _______ _______ _____ _____    ______ ____
ROOT
ATOM      1  C   UNL     1      47.050   4.439  15.173  0.00  0.00    +0.000 C 
ATOM      2  C   UNL     1      46.777   5.567  14.176  0.00  0.00    +0.000 C 
ENDROOT
BRANCH   2   3
ATOM      3  C   UNL     1      46.165   5.034  12.892  0.00  0.00    +0.000 A 
ATOM      4  C   UNL     1      45.677   3.722  12.826  0.00  0.00    +0.000 A 
ATOM      5  C   UNL     1      45.030   3.265  11.673  0.00  0.00    +0.000 A 
ATOM      6  C   UNL     1      44.846   4.117  10.584  0.00  0.00    +0.000 A 
ATOM      7  C   UNL     1      45.385   5.403  10.617  0.00  0.00    +0.000 A 
ATOM      8  C   UNL     1      46.026   5.860  11.765  0.00  0.00    +0.000 A 
BRANCH   6   9
ATOM      9  O   UNL     1      44.120   3.614   9.537  0.00  0.00    +0.000 OA
BRANCH   9  10
ATOM     10  C   UNL     1      44.472   2.272   9.172  0.00  0.00    +0.000 C 
BRANCH  10  11
ATOM     11  C   UNL     1      45.550   2.232   8.115  0.00  0.00    +0.000 A 
ATOM     12  C   UNL     1      45.762   3.311   7.259  0.00  0.00    +0.000 A 
ATOM     13  C   UNL     1      46.830   3.263   6.369  0.00  0.00    +0.000 A 
ATOM     14  C   UNL     1      47.667   2.154   6.367  0.00  0.00    +0.000 A 
ATOM     15  C   UNL     1      47.400   1.132   7.260  0.00  0.00    +0.000 A 
ATOM     16  N   UNL     1      46.370   1.148   8.132  0.00  0.00    +0.000 NA
ENDBRANCH  10  11
ENDBRANCH   9  10
ENDBRANCH   6   9
ENDBRANCH   2   3
BRANCH   2  17
ATOM     17  N   UNL     1      48.000   6.272  13.845  0.00  0.00    +0.000 N 
ATOM     18  C   UNL     1      48.124   7.633  13.848  0.00  0.00    +0.000 C 
ATOM     19  O   UNL     1      47.169   8.386  14.007  0.00  0.00    +0.000 OA
ATOM     20  H   UNL     1      48.845   5.714  13.847  0.00  0.00    +0.000 HD
BRANCH  18  21
ATOM     21  C   UNL     1      49.479   8.145  13.596  0.00  0.00    +0.000 A 
ATOM     22  C   UNL     1      49.699   9.047  12.564  0.00  0.00    +0.000 A 
ATOM     23  S   UNL     1      51.326   9.544  12.431  0.00  0.00    +0.000 S 
ATOM     24  C   UNL     1      51.783   8.601  13.772  0.00  0.00    +0.000 A 
ATOM     25  N   UNL     1      53.063   8.606  14.225  0.00  0.00    +0.000 NA
ATOM     26  C   UNL     1      53.267   7.867  15.267  0.00  0.00    +0.000 A 
ATOM     27  N   UNL     1      52.314   7.099  15.903  0.00  0.00    +0.000 N 
ATOM     28  C   UNL     1      52.660   6.285  17.048  0.00  0.00    +0.000 C 
ATOM     29  C   UNL     1      51.005   7.035  15.435  0.00  0.00    +0.000 A 
ATOM     30  O   UNL     1      50.162   6.291  15.932  0.00  0.00    +0.000 OA
ATOM     31  C   UNL     1      50.721   7.885  14.290  0.00  0.00    +0.000 A 
ENDBRANCH  18  21
ENDBRANCH   2  17
TORSDOF 6
ENDMDL
MODEL 5
REMARK VINA RESULT:    -7.752      1.419      1.935
REMARK INTER + INTRA:         -11.336
REMARK INTER:                 -10.075
REMARK INTRA:                  -1.261
REMARK UNBOUND:                -0.866
REMARK  Name = 
REMARK  8 active torsions:
REMARK  status: ('A' for Active; 'I' for Inactive)
REMARK    1  A    between atoms: C_1  and  C_2
REMARK    2  A    between atoms: C_2  and  N_3
REMARK    3  A    between atoms: C_2  and  C_17
REMARK    4  A    between atoms: C_4  and  C_6
REMARK    5  A    between atoms: N_12  and  C_13
REMARK    6  A    between atoms: C_20  and  O_21
REMARK    7  A    between atoms: O_21  and  C_22
REMARK    8  A    between atoms: C_22  and  C_23
REMARK                            x       y       z     vdW  Elec       q    Type
REMARK                         _______ _______ _______ _____ _____    ______ ____
ROOT
ATOM      1  C   UNL     1      47.672   9.447  13.346  0.00  0.00    +0.000 C 
ATOM      2  C   UNL     1      48.109   8.001  13.596  0.00  0.00    +0.000 C 
ENDROOT
BRANCH   2   3
ATOM      3  C   UNL     1      47.158   7.016  12.940  0.00  0.00    +0.000 A 
ATOM      4  C   UNL     1      47.101   5.683  13.372  0.00  0.00    +0.000 A 
ATOM      5  C   UNL     1      46.159   4.803  12.829  0.00  0.00    +0.000 A 
ATOM      6  C   UNL     1      45.253   5.248  11.866  0.00  0.00    +0.000 A 
ATOM      7  C   UNL     1      45.345   6.553  11.385  0.00  0.00    +0.000 A 
ATOM      8  C   UNL     1      46.279   7.432  11.926  0.00  0.00    +0.000 A 
BRANCH   6   9
ATOM      9  O   UNL     1      44.307   4.343  11.462  0.00  0.00    +0.000 OA
BRANCH   9  10
ATOM     10  C   UNL     1      43.963   4.438  10.073  0.00  0.00    +0.000 C 
BRANCH  10  11
ATOM     11  C   UNL     1      44.941   3.699   9.190  0.00  0.00    +0.000 A 
ATOM     12  C   UNL     1      45.099   2.318   9.285  0.00  0.00    +0.000 A 
ATOM     13  C   UNL     1      45.939   1.674   8.384  0.00  0.00    +0.000 A 
ATOM     14  C   UNL     1      46.585   2.416   7.404  0.00  0.00    +0.000 A 
ATOM     15  C   UNL     1      46.364   3.781   7.365  0.00  0.00    +0.000 A 
ATOM     16  N   UNL     1      45.558   4.435   8.227  0.00  0.00    +0.000 NA
ENDBRANCH  10  11
ENDBRANCH   9  10
ENDBRANCH   6   9
ENDBRANCH   2   3
BRANCH   2  17
ATOM     17  N   UNL     1      48.161   7.716  15.017  0.00  0.00    +0.000 N 
ATOM     18  C   UNL     1      49.160   8.141  15.847  0.00  0.00    +0.000 C 
ATOM     19  O   UNL     1      50.173   8.697  15.436  0.00  0.00    +0.000 OA
ATOM     20  H   UNL     1      47.296   7.392  15.434  0.00  0.00    +0.000 HD
BRANCH  18  21
ATOM     21  C   UNL     1      48.967   7.843  17.274  0.00  0.00    +0.000 A 
ATOM     22  C   UNL     1      48.814   8.879  18.185  0.00  0.00    +0.000 A 
ATOM     23  S   UNL     1      48.585   8.346  19.789  0.00  0.00    +0.000 S 
ATOM     24  C   UNL     1      48.643   6.712  19.314  0.00  0.00    +0.000 A 
ATOM     25  N   UNL     1      48.470   5.716  20.220  0.00  0.00    +0.000 NA
ATOM     26  C   UNL     1      48.509   4.523  19.720  0.00  0.00    +0.000 A 
ATOM     27  N   UNL     1      48.724   4.218  18.393  0.00  0.00    +0.000 N 
ATOM     28  C   UNL     1      48.778   2.842  17.947  0.00  0.00    +0.000 C 
ATOM     29  C   UNL     1      48.953   5.214  17.449  0.00  0.00    +0.000 A 
ATOM     30  O   UNL     1      49.235   4.962  16.278  0.00  0.00    +0.000 OA
ATOM     31  C   UNL     1      48.874   6.572  17.960  0.00  0.00    +0.000 A 
ENDBRANCH  18  21
ENDBRANCH   2  17
TORSDOF 6
ENDMDL
MODEL 6
REMARK VINA RESULT:    -7.629      2.223      4.195
REMARK INTER + INTRA:         -11.171
REMARK INTER:                  -9.979
REMARK INTRA:                  -1.191
REMARK UNBOUND:                -0.866
REMARK  Name = 
REMARK  8 active torsions:
REMARK  status: ('A' for Active; 'I' for Inactive)
REMARK    1  A    between atoms: C_1  and  C_2
REMARK    2  A    between atoms: C_2  and  N_3
REMARK    3  A    between atoms: C_2  and  C_17
REMARK    4  A    between atoms: C_4  and  C_6
REMARK    5  A    between atoms: N_12  and  C_13
REMARK    6  A    between atoms: C_20  and  O_21
REMARK    7  A    between atoms: O_21  and  C_22
REMARK    8  A    between atoms: C_22  and  C_23
REMARK                            x       y       z     vdW  Elec       q    Type
REMARK                         _______ _______ _______ _____ _____    ______ ____
ROOT
ATOM      1  C   UNL     1      47.470   3.886  15.618  0.00  0.00    +0.000 C 
ATOM      2  C   UNL     1      47.096   5.166  14.866  0.00  0.00    +0.000 C 
ENDROOT
BRANCH   2   3
ATOM      3  C   UNL     1      46.453   4.852  13.526  0.00  0.00    +0.000 A 
ATOM      4  C   UNL     1      46.009   3.555  13.234  0.00  0.00    +0.000 A 
ATOM      5  C   UNL     1      45.334   3.291  12.038  0.00  0.00    +0.000 A 
ATOM      6  C   UNL     1      45.078   4.319  11.132  0.00  0.00    +0.000 A 
ATOM      7  C   UNL     1      45.573   5.598  11.385  0.00  0.00    +0.000 A 
ATOM      8  C   UNL     1      46.242   5.864  12.576  0.00  0.00    +0.000 A 
BRANCH   6   9
ATOM      9  O   UNL     1      44.330   3.987  10.034  0.00  0.00    +0.000 OA
BRANCH   9  10
ATOM     10  C   UNL     1      44.468   2.619   9.624  0.00  0.00    +0.000 C 
BRANCH  10  11
ATOM     11  C   UNL     1      45.441   2.461   8.480  0.00  0.00    +0.000 A 
ATOM     12  C   UNL     1      45.735   3.525   7.630  0.00  0.00    +0.000 A 
ATOM     13  C   UNL     1      46.711   3.355   6.654  0.00  0.00    +0.000 A 
ATOM     14  C   UNL     1      47.379   2.141   6.561  0.00  0.00    +0.000 A 
ATOM     15  C   UNL     1      47.042   1.139   7.453  0.00  0.00    +0.000 A 
ATOM     16  N   UNL     1      46.097   1.272   8.408  0.00  0.00    +0.000 NA
ENDBRANCH  10  11
ENDBRANCH   9  10
ENDBRANCH   6   9
ENDBRANCH   2   3
BRANCH   2  17
ATOM     17  N   UNL     1      48.266   5.989  14.633  0.00  0.00    +0.000 N 
ATOM     18  C   UNL     1      48.906   6.704  15.608  0.00  0.00    +0.000 C 
ATOM     19  O   UNL     1      48.465   6.812  16.748  0.00  0.00    +0.000 OA
ATOM     20  H   UNL     1      48.754   5.828  13.760  0.00  0.00    +0.000 HD
BRANCH  18  21
ATOM     21  C   UNL     1      50.140   7.382  15.189  0.00  0.00    +0.000 A 
ATOM     22  C   UNL     1      51.338   7.107  15.834  0.00  0.00    +0.000 A 
ATOM     23  S   UNL     1      52.665   7.973  15.204  0.00  0.00    +0.000 S 
ATOM     24  C   UNL     1      51.692   8.717  14.022  0.00  0.00    +0.000 A 
ATOM     25  N   UNL     1      52.228   9.566  13.109  0.00  0.00    +0.000 NA
ATOM     26  C   UNL     1      51.382  10.037  12.251  0.00  0.00    +0.000 A 
ATOM     27  N   UNL     1      50.032   9.758  12.222  0.00  0.00    +0.000 N 
ATOM     28  C   UNL     1      49.169  10.366  11.232  0.00  0.00    +0.000 C 
ATOM     29  C   UNL     1      49.443   8.930  13.173  0.00  0.00    +0.000 A 
ATOM     30  O   UNL     1      48.229   8.737  13.219  0.00  0.00    +0.000 OA
ATOM     31  C   UNL     1      50.366   8.342  14.130  0.00  0.00    +0.000 A 
ENDBRANCH  18  21
ENDBRANCH   2  17
TORSDOF 6
ENDMDL
MODEL 7
REMARK VINA RESULT:    -7.302      4.471      8.801
REMARK INTER + INTRA:         -10.729
REMARK INTER:                 -10.160
REMARK INTRA:                  -0.569
REMARK UNBOUND:                -0.866
REMARK  Name = 
REMARK  8 active torsions:
REMARK  status: ('A' for Active; 'I' for Inactive)
REMARK    1  A    between atoms: C_1  and  C_2
REMARK    2  A    between atoms: C_2  and  N_3
REMARK    3  A    between atoms: C_2  and  C_17
REMARK    4  A    between atoms: C_4  and  C_6
REMARK    5  A    between atoms: N_12  and  C_13
REMARK    6  A    between atoms: C_20  and  O_21
REMARK    7  A    between atoms: O_21  and  C_22
REMARK    8  A    between atoms: C_22  and  C_23
REMARK                            x       y       z     vdW  Elec       q    Type
REMARK                         _______ _______ _______ _____ _____    ______ ____
ROOT
ATOM      1  C   UNL     1      47.131   5.145  18.534  0.00  0.00    +0.000 C 
ATOM      2  C   UNL     1      47.588   4.269  17.365  0.00  0.00    +0.000 C 
ENDROOT
BRANCH   2   3
ATOM      3  C   UNL     1      49.046   3.868  17.512  0.00  0.00    +0.000 A 
ATOM      4  C   UNL     1      49.435   2.529  17.374  0.00  0.00    +0.000 A 
ATOM      5  C   UNL     1      50.788   2.178  17.416  0.00  0.00    +0.000 A 
ATOM      6  C   UNL     1      51.766   3.159  17.577  0.00  0.00    +0.000 A 
ATOM      7  C   UNL     1      51.384   4.485  17.780  0.00  0.00    +0.000 A 
ATOM      8  C   UNL     1      50.038   4.837  17.735  0.00  0.00    +0.000 A 
BRANCH   6   9
ATOM      9  O   UNL     1      53.067   2.734  17.512  0.00  0.00    +0.000 OA
BRANCH   9  10
ATOM     10  C   UNL     1      53.465   1.901  18.609  0.00  0.00    +0.000 C 
BRANCH  10  11
ATOM     11  C   UNL     1      53.972   0.554  18.148  0.00  0.00    +0.000 A 
ATOM     12  C   UNL     1      54.300   0.325  16.813  0.00  0.00    +0.000 A 
ATOM     13  C   UNL     1      54.855  -0.900  16.459  0.00  0.00    +0.000 A 
ATOM     14  C   UNL     1      55.085  -1.855  17.441  0.00  0.00    +0.000 A 
ATOM     15  C   UNL     1      54.748  -1.544  18.747  0.00  0.00    +0.000 A 
ATOM     16  N   UNL     1      54.205  -0.367  19.121  0.00  0.00    +0.000 NA
ENDBRANCH  10  11
ENDBRANCH   9  10
ENDBRANCH   6   9
ENDBRANCH   2   3
BRANCH   2  17
ATOM     17  N   UNL     1      47.426   4.965  16.104  0.00  0.00    +0.000 N 
ATOM     18  C   UNL     1      47.318   4.340  14.893  0.00  0.00    +0.000 C 
ATOM     19  O   UNL     1      47.478   3.132  14.753  0.00  0.00    +0.000 OA
ATOM     20  H   UNL     1      47.147   5.937  16.168  0.00  0.00    +0.000 HD
BRANCH  18  21
ATOM     21  C   UNL     1      47.044   5.221  13.748  0.00  0.00    +0.000 A 
ATOM     22  C   UNL     1      47.650   6.468  13.670  0.00  0.00    +0.000 A 
ATOM     23  S   UNL     1      47.229   7.342  12.268  0.00  0.00    +0.000 S 
ATOM     24  C   UNL     1      46.252   6.069  11.698  0.00  0.00    +0.000 A 
ATOM     25  N   UNL     1      45.618   6.158  10.502  0.00  0.00    +0.000 NA
ATOM     26  C   UNL     1      44.933   5.109  10.178  0.00  0.00    +0.000 A 
ATOM     27  N   UNL     1      44.800   3.972  10.945  0.00  0.00    +0.000 N 
ATOM     28  C   UNL     1      43.982   2.865  10.497  0.00  0.00    +0.000 C 
ATOM     29  C   UNL     1      45.398   3.869  12.197  0.00  0.00    +0.000 A 
ATOM     30  O   UNL     1      45.221   2.902  12.936  0.00  0.00    +0.000 OA
ATOM     31  C   UNL     1      46.214   5.008  12.582  0.00  0.00    +0.000 A 
ENDBRANCH  18  21
ENDBRANCH   2  17
TORSDOF 6
ENDMDL
MODEL 8
REMARK VINA RESULT:    -7.215      3.093      8.449
REMARK INTER + INTRA:         -10.612
REMARK INTER:                  -9.576
REMARK INTRA:                  -1.036
REMARK UNBOUND:                -0.866
REMARK  Name = 
REMARK  8 active torsions:
REMARK  status: ('A' for Active; 'I' for Inactive)
REMARK    1  A    between atoms: C_1  and  C_2
REMARK    2  A    between atoms: C_2  and  N_3
REMARK    3  A    between atoms: C_2  and  C_17
REMARK    4  A    between atoms: C_4  and  C_6
REMARK    5  A    between atoms: N_12  and  C_13
REMARK    6  A    between atoms: C_20  and  O_21
REMARK    7  A    between atoms: O_21  and  C_22
REMARK    8  A    between atoms: C_22  and  C_23
REMARK                            x       y       z     vdW  Elec       q    Type
REMARK                         _______ _______ _______ _____ _____    ______ ____
ROOT
ATOM      1  C   UNL     1      48.489   7.895  11.389  0.00  0.00    +0.000 C 
ATOM      2  C   UNL     1      47.648   7.558  12.622  0.00  0.00    +0.000 C 
ENDROOT
BRANCH   2   3
ATOM      3  C   UNL     1      48.525   7.305  13.836  0.00  0.00    +0.000 A 
ATOM      4  C   UNL     1      48.130   6.391  14.823  0.00  0.00    +0.000 A 
ATOM      5  C   UNL     1      48.982   6.091  15.891  0.00  0.00    +0.000 A 
ATOM      6  C   UNL     1      50.242   6.683  15.974  0.00  0.00    +0.000 A 
ATOM      7  C   UNL     1      50.616   7.641  15.033  0.00  0.00    +0.000 A 
ATOM      8  C   UNL     1      49.771   7.939  13.967  0.00  0.00    +0.000 A 
BRANCH   6   9
ATOM      9  O   UNL     1      51.043   6.259  17.001  0.00  0.00    +0.000 OA
BRANCH   9  10
ATOM     10  C   UNL     1      50.430   5.287  17.859  0.00  0.00    +0.000 C 
BRANCH  10  11
ATOM     11  C   UNL     1      51.037   3.914  17.692  0.00  0.00    +0.000 A 
ATOM     12  C   UNL     1      52.304   3.620  18.190  0.00  0.00    +0.000 A 
ATOM     13  C   UNL     1      52.777   2.316  18.097  0.00  0.00    +0.000 A 
ATOM     14  C   UNL     1      51.971   1.337  17.531  0.00  0.00    +0.000 A 
ATOM     15  C   UNL     1      50.717   1.705  17.075  0.00  0.00    +0.000 A 
ATOM     16  N   UNL     1      50.233   2.962  17.147  0.00  0.00    +0.000 NA
ENDBRANCH  10  11
ENDBRANCH   9  10
ENDBRANCH   6   9
ENDBRANCH   2   3
BRANCH   2  17
ATOM     17  N   UNL     1      46.834   6.382  12.387  0.00  0.00    +0.000 N 
ATOM     18  C   UNL     1      45.526   6.422  11.991  0.00  0.00    +0.000 C 
ATOM     19  O   UNL     1      44.886   7.466  11.923  0.00  0.00    +0.000 OA
ATOM     20  H   UNL     1      47.338   5.509  12.287  0.00  0.00    +0.000 HD
BRANCH  18  21
ATOM     21  C   UNL     1      44.914   5.119  11.696  0.00  0.00    +0.000 A 
ATOM     22  C   UNL     1      44.109   4.499  12.643  0.00  0.00    +0.000 A 
ATOM     23  S   UNL     1      43.473   3.005  12.121  0.00  0.00    +0.000 S 
ATOM     24  C   UNL     1      44.220   3.154  10.599  0.00  0.00    +0.000 A 
ATOM     25  N   UNL     1      44.042   2.210   9.639  0.00  0.00    +0.000 NA
ATOM     26  C   UNL     1      44.642   2.461   8.521  0.00  0.00    +0.000 A 
ATOM     27  N   UNL     1      45.428   3.565   8.264  0.00  0.00    +0.000 N 
ATOM     28  C   UNL     1      46.078   3.732   6.982  0.00  0.00    +0.000 C 
ATOM     29  C   UNL     1      45.668   4.525   9.242  0.00  0.00    +0.000 A 
ATOM     30  O   UNL     1      46.435   5.471   9.064  0.00  0.00    +0.000 OA
ATOM     31  C   UNL     1      44.976   4.305  10.501  0.00  0.00    +0.000 A 
ENDBRANCH  18  21
ENDBRANCH   2  17
TORSDOF 6
ENDMDL
MODEL 9
REMARK VINA RESULT:    -7.140      1.591      2.239
REMARK INTER + INTRA:         -10.510
REMARK INTER:                  -9.166
REMARK INTRA:                  -1.344
REMARK UNBOUND:                -0.866
REMARK  Name = 
REMARK  8 active torsions:
REMARK  status: ('A' for Active; 'I' for Inactive)
REMARK    1  A    between atoms: C_1  and  C_2
REMARK    2  A    between atoms: C_2  and  N_3
REMARK    3  A    between atoms: C_2  and  C_17
REMARK    4  A    between atoms: C_4  and  C_6
REMARK    5  A    between atoms: N_12  and  C_13
REMARK    6  A    between atoms: C_20  and  O_21
REMARK    7  A    between atoms: O_21  and  C_22
REMARK    8  A    between atoms: C_22  and  C_23
REMARK                            x       y       z     vdW  Elec       q    Type
REMARK                         _______ _______ _______ _____ _____    ______ ____
ROOT
ATOM      1  C   UNL     1      48.565   9.652  13.744  0.00  0.00    +0.000 C 
ATOM      2  C   UNL     1      48.726   8.130  13.742  0.00  0.00    +0.000 C 
ENDROOT
BRANCH   2   3
ATOM      3  C   UNL     1      47.477   7.442  13.220  0.00  0.00    +0.000 A 
ATOM      4  C   UNL     1      47.445   6.052  13.052  0.00  0.00    +0.000 A 
ATOM      5  C   UNL     1      46.264   5.413  12.661  0.00  0.00    +0.000 A 
ATOM      6  C   UNL     1      45.099   6.152  12.453  0.00  0.00    +0.000 A 
ATOM      7  C   UNL     1      45.139   7.542  12.556  0.00  0.00    +0.000 A 
ATOM      8  C   UNL     1      46.312   8.179  12.948  0.00  0.00    +0.000 A 
BRANCH   6   9
ATOM      9  O   UNL     1      43.970   5.433  12.165  0.00  0.00    +0.000 OA
BRANCH   9  10
ATOM     10  C   UNL     1      43.569   5.500  10.790  0.00  0.00    +0.000 C 
BRANCH  10  11
ATOM     11  C   UNL     1      44.100   4.338   9.983  0.00  0.00    +0.000 A 
ATOM     12  C   UNL     1      44.983   4.538   8.925  0.00  0.00    +0.000 A 
ATOM     13  C   UNL     1      45.519   3.429   8.279  0.00  0.00    +0.000 A 
ATOM     14  C   UNL     1      45.177   2.155   8.712  0.00  0.00    +0.000 A 
ATOM     15  C   UNL     1      44.306   2.040   9.781  0.00  0.00    +0.000 A 
ATOM     16  N   UNL     1      43.767   3.096  10.426  0.00  0.00    +0.000 NA
ENDBRANCH  10  11
ENDBRANCH   9  10
ENDBRANCH   6   9
ENDBRANCH   2   3
BRANCH   2  17
ATOM     17  N   UNL     1      49.000   7.638  15.079  0.00  0.00    +0.000 N 
ATOM     18  C   UNL     1      50.256   7.476  15.593  0.00  0.00    +0.000 C 
ATOM     19  O   UNL     1      51.271   7.614  14.919  0.00  0.00    +0.000 OA
ATOM     20  H   UNL     1      48.216   7.645  15.721  0.00  0.00    +0.000 HD
BRANCH  18  21
ATOM     21  C   UNL     1      50.314   7.074  17.006  0.00  0.00    +0.000 A 
ATOM     22  C   UNL     1      51.032   7.838  17.916  0.00  0.00    +0.000 A 
ATOM     23  S   UNL     1      50.974   7.230  19.509  0.00  0.00    +0.000 S 
ATOM     24  C   UNL     1      49.956   5.948  19.043  0.00  0.00    +0.000 A 
ATOM     25  N   UNL     1      49.490   5.059  19.957  0.00  0.00    +0.000 NA
ATOM     26  C   UNL     1      48.704   4.152  19.473  0.00  0.00    +0.000 A 
ATOM     27  N   UNL     1      48.343   4.030  18.149  0.00  0.00    +0.000 N 
ATOM     28  C   UNL     1      47.477   2.957  17.711  0.00  0.00    +0.000 C 
ATOM     29  C   UNL     1      48.842   4.896  17.180  0.00  0.00    +0.000 A 
ATOM     30  O   UNL     1      48.605   4.752  15.981  0.00  0.00    +0.000 OA
ATOM     31  C   UNL     1      49.695   5.957  17.687  0.00  0.00    +0.000 A 
ENDBRANCH  18  21
ENDBRANCH   2  17
TORSDOF 6
ENDMDL
