MODEL 1
REMARK VINA RESULT:    -8.617      0.000      0.000
REMARK INTER + INTRA:         -13.156
REMARK INTER:                 -12.143
REMARK INTRA:                  -1.012
REMARK UNBOUND:                -1.012
REMARK  Name = 
REMARK  8 active torsions:
REMARK  status: ('A' for Active; 'I' for Inactive)
REMARK    1  A    between atoms: C_1  and  C_2
REMARK    2  A    between atoms: C_5  and  C_6
REMARK    3  A    between atoms: C_6  and  O_7
REMARK    4  A    between atoms: O_7  and  C_8
REMARK    5  A    between atoms: C_8  and  C_9
REMARK    6  A    between atoms: C_12  and  C_13
REMARK    7  A    between atoms: C_13  and  N_14
REMARK    8  A    between atoms: C_15  and  C_17
REMARK                            x       y       z     vdW  Elec       q    Type
REMARK                         _______ _______ _______ _____ _____    ______ ____
ROOT
ATOM      1  C   UNL     1      44.437   5.019  11.936  0.00  0.00    +0.000 A 
ATOM      2  C   UNL     1      44.936   4.554  13.161  0.00  0.00    +0.000 A 
ATOM      3  C   UNL     1      46.124   5.069  13.691  0.00  0.00    +0.000 A 
ATOM      4  C   UNL     1      46.830   6.069  13.012  0.00  0.00    +0.000 A 
ATOM      5  C   UNL     1      46.350   6.509  11.772  0.00  0.00    +0.000 A 
ATOM      6  C   UNL     1      45.162   5.994  11.241  0.00  0.00    +0.000 A 
ENDROOT
BRANCH   1   7
ATOM      7  C   UNL     1      43.143   4.475  11.387  0.00  0.00    +0.000 C 
BRANCH   7   8
ATOM      8  O   UNL     1      43.404   3.930  10.098  0.00  0.00    +0.000 OA
BRANCH   8   9
ATOM      9  C   UNL     1      44.171   2.728  10.167  0.00  0.00    +0.000 C 
BRANCH   9  14
ATOM     10  C   UNL     1      47.926   2.262   5.812  0.00  0.00    +0.000 C 
ATOM     11  C   UNL     1      46.956   2.437   6.936  0.00  0.00    +0.000 A 
ATOM     12  C   UNL     1      46.382   3.673   7.224  0.00  0.00    +0.000 A 
ATOM     13  C   UNL     1      45.474   3.783   8.274  0.00  0.00    +0.000 A 
ATOM     14  C   UNL     1      45.146   2.647   9.013  0.00  0.00    +0.000 A 
ATOM     15  N   UNL     1      45.712   1.438   8.765  0.00  0.00    +0.000 NA
ATOM     16  C   UNL     1      46.591   1.363   7.739  0.00  0.00    +0.000 A 
ENDBRANCH   9  14
ENDBRANCH   8   9
ENDBRANCH   7   8
ENDBRANCH   1   7
BRANCH   4  17
ATOM     17  C   UNL     1      48.104   6.638  13.580  0.00  0.00    +0.000 C 
BRANCH  17  18
ATOM     18  N   UNL     1      48.031   6.742  15.014  0.00  0.00    +0.000 N 
ATOM     19  C   UNL     1      49.161   6.761  15.789  0.00  0.00    +0.000 C 
ATOM     20  O   UNL     1      50.288   6.728  15.299  0.00  0.00    +0.000 OA
ATOM     21  H   UNL     1      47.133   6.540  15.443  0.00  0.00    +0.000 HD
BRANCH  19  22
ATOM     22  C   UNL     1      48.957   6.885  17.238  0.00  0.00    +0.000 A 
ATOM     23  C   UNL     1      48.763   8.138  17.800  0.00  0.00    +0.000 A 
ATOM     24  S   UNL     1      48.490   8.098  19.484  0.00  0.00    +0.000 S 
ATOM     25  C   UNL     1      48.680   6.406  19.525  0.00  0.00    +0.000 A 
ATOM     26  N   UNL     1      48.588   5.725  20.697  0.00  0.00    +0.000 NA
ATOM     27  C   UNL     1      48.782   4.451  20.594  0.00  0.00    +0.000 A 
ATOM     28  N   UNL     1      49.048   3.800  19.415  0.00  0.00    +0.000 N 
ATOM     29  C   UNL     1      49.116   4.443  18.205  0.00  0.00    +0.000 A 
ATOM     30  O   UNL     1      49.313   3.822  17.165  0.00  0.00    +0.000 OA
ATOM     31  C   UNL     1      48.922   5.879  18.272  0.00  0.00    +0.000 A 
ATOM     32  H   UNL     1      49.181   2.798  19.397  0.00  0.00    +0.000 HD
ENDBRANCH  19  22
ENDBRANCH  17  18
ENDBRANCH   4  17
TORSDOF 7
ENDMDL
MODEL 2
REMARK VINA RESULT:    -7.609      1.522      2.211
REMARK INTER + INTRA:         -11.735
REMARK INTER:                 -10.812
REMARK INTRA:                  -0.923
REMARK UNBOUND:                -1.012
REMARK  Name = 
REMARK  8 active torsions:
REMARK  status: ('A' for Active; 'I' for Inactive)
REMARK    1  A    between atoms: C_1  and  C_2
REMARK    2  A    between atoms: C_5  and  C_6
REMARK    3  A    between atoms: C_6  and  O_7
REMARK    4  A    between atoms: O_7  and  C_8
REMARK    5  A    between atoms: C_8  and  C_9
REMARK    6  A    between atoms: C_12  and  C_13
REMARK    7  A    between atoms: C_13  and  N_14
REMARK    8  A    between atoms: C_15  and  C_17
REMARK                            x       y       z     vdW  Elec       q    Type
REMARK                         _______ _______ _______ _____ _____    ______ ____
ROOT
ATOM      1  C   UNL     1      45.069   5.275  11.757  0.00  0.00    +0.000 A 
ATOM      2  C   UNL     1      46.057   4.720  12.584  0.00  0.00    +0.000 A 
ATOM      3  C   UNL     1      46.979   5.537  13.246  0.00  0.00    +0.000 A 
ATOM      4  C   UNL     1      46.925   6.929  13.103  0.00  0.00    +0.000 A 
ATOM      5  C   UNL     1      45.961   7.482  12.250  0.00  0.00    +0.000 A 
ATOM      6  C   UNL     1      45.038   6.665  11.588  0.00  0.00    +0.000 A 
ENDROOT
BRANCH   1   7
ATOM      7  C   UNL     1      44.065   4.386  11.070  0.00  0.00    +0.000 C 
BRANCH   7   8
ATOM      8  O   UNL     1      44.616   3.075  10.994  0.00  0.00    +0.000 OA
BRANCH   8   9
ATOM      9  C   UNL     1      44.136   2.355   9.858  0.00  0.00    +0.000 C 
BRANCH   9  14
ATOM     10  C   UNL     1      48.081   2.283   5.649  0.00  0.00    +0.000 C 
ATOM     11  C   UNL     1      47.054   2.356   6.734  0.00  0.00    +0.000 A 
ATOM     12  C   UNL     1      46.305   3.508   6.958  0.00  0.00    +0.000 A 
ATOM     13  C   UNL     1      45.352   3.523   7.973  0.00  0.00    +0.000 A 
ATOM     14  C   UNL     1      45.156   2.375   8.740  0.00  0.00    +0.000 A 
ATOM     15  N   UNL     1      45.893   1.250   8.554  0.00  0.00    +0.000 NA
ATOM     16  C   UNL     1      46.812   1.266   7.561  0.00  0.00    +0.000 A 
ENDBRANCH   9  14
ENDBRANCH   8   9
ENDBRANCH   7   8
ENDBRANCH   1   7
BRANCH   4  17
ATOM     17  C   UNL     1      47.906   7.819  13.820  0.00  0.00    +0.000 C 
BRANCH  17  18
ATOM     18  N   UNL     1      47.926   7.536  15.232  0.00  0.00    +0.000 N 
ATOM     19  C   UNL     1      49.026   6.984  15.836  0.00  0.00    +0.000 C 
ATOM     20  O   UNL     1      50.057   6.738  15.214  0.00  0.00    +0.000 OA
ATOM     21  H   UNL     1      47.030   7.514  15.707  0.00  0.00    +0.000 HD
BRANCH  19  22
ATOM     22  C   UNL     1      48.930   6.756  17.283  0.00  0.00    +0.000 A 
ATOM     23  C   UNL     1      49.350   5.548  17.819  0.00  0.00    +0.000 A 
ATOM     24  S   UNL     1      49.219   5.469  19.518  0.00  0.00    +0.000 S 
ATOM     25  C   UNL     1      48.542   7.030  19.587  0.00  0.00    +0.000 A 
ATOM     26  N   UNL     1      48.169   7.573  20.777  0.00  0.00    +0.000 NA
ATOM     27  C   UNL     1      47.641   8.749  20.686  0.00  0.00    +0.000 A 
ATOM     28  N   UNL     1      47.465   9.433  19.509  0.00  0.00    +0.000 N 
ATOM     29  C   UNL     1      47.858   8.937  18.291  0.00  0.00    +0.000 A 
ATOM     30  O   UNL     1      47.724   9.595  17.264  0.00  0.00    +0.000 OA
ATOM     31  C   UNL     1      48.441   7.610  18.339  0.00  0.00    +0.000 A 
ATOM     32  H   UNL     1      47.054  10.357  19.504  0.00  0.00    +0.000 HD
ENDBRANCH  19  22
ENDBRANCH  17  18
ENDBRANCH   4  17
TORSDOF 7
ENDMDL
MODEL 3
REMARK VINA RESULT:    -7.475      1.813      2.202
REMARK INTER + INTRA:         -11.547
REMARK INTER:                 -10.485
REMARK INTRA:                  -1.062
REMARK UNBOUND:                -1.012
REMARK  Name = 
REMARK  8 active torsions:
REMARK  status: ('A' for Active; 'I' for Inactive)
REMARK    1  A    between atoms: C_1  and  C_2
REMARK    2  A    between atoms: C_5  and  C_6
REMARK    3  A    between atoms: C_6  and  O_7
REMARK    4  A    between atoms: O_7  and  C_8
REMARK    5  A    between atoms: C_8  and  C_9
REMARK    6  A    between atoms: C_12  and  C_13
REMARK    7  A    between atoms: C_13  and  N_14
REMARK    8  A    between atoms: C_15  and  C_17
REMARK                            x       y       z     vdW  Elec       q    Type
REMARK                         _______ _______ _______ _____ _____    ______ ____
ROOT
ATOM      1  C   UNL     1      45.539   5.204  12.142  0.00  0.00    +0.000 A 
ATOM      2  C   UNL     1      45.948   6.357  11.456  0.00  0.00    +0.000 A 
ATOM      3  C   UNL     1      47.013   7.131  11.930  0.00  0.00    +0.000 A 
ATOM      4  C   UNL     1      47.697   6.760  13.095  0.00  0.00    +0.000 A 
ATOM      5  C   UNL     1      47.266   5.628  13.798  0.00  0.00    +0.000 A 
ATOM      6  C   UNL     1      46.202   4.854  13.324  0.00  0.00    +0.000 A 
ENDROOT
BRANCH   1   7
ATOM      7  C   UNL     1      44.407   4.364  11.607  0.00  0.00    +0.000 C 
BRANCH   7   8
ATOM      8  O   UNL     1      44.942   3.109  11.202  0.00  0.00    +0.000 OA
BRANCH   8   9
ATOM      9  C   UNL     1      44.294   2.598  10.037  0.00  0.00    +0.000 C 
BRANCH   9  14
ATOM     10  C   UNL     1      47.987   2.301   5.615  0.00  0.00    +0.000 C 
ATOM     11  C   UNL     1      47.029   2.433   6.755  0.00  0.00    +0.000 A 
ATOM     12  C   UNL     1      46.368   3.629   7.024  0.00  0.00    +0.000 A 
ATOM     13  C   UNL     1      45.476   3.698   8.091  0.00  0.00    +0.000 A 
ATOM     14  C   UNL     1      45.250   2.561   8.864  0.00  0.00    +0.000 A 
ATOM     15  N   UNL     1      45.901   1.392   8.634  0.00  0.00    +0.000 NA
ATOM     16  C   UNL     1      46.763   1.355   7.592  0.00  0.00    +0.000 A 
ENDBRANCH   9  14
ENDBRANCH   8   9
ENDBRANCH   7   8
ENDBRANCH   1   7
BRANCH   4  17
ATOM     17  C   UNL     1      48.852   7.581  13.607  0.00  0.00    +0.000 C 
BRANCH  17  18
ATOM     18  N   UNL     1      49.535   6.903  14.677  0.00  0.00    +0.000 N 
ATOM     19  C   UNL     1      50.637   7.449  15.283  0.00  0.00    +0.000 C 
ATOM     20  O   UNL     1      51.072   8.554  14.970  0.00  0.00    +0.000 OA
ATOM     21  H   UNL     1      49.340   5.913  14.791  0.00  0.00    +0.000 HD
BRANCH  19  22
ATOM     22  C   UNL     1      51.237   6.669  16.372  0.00  0.00    +0.000 A 
ATOM     23  C   UNL     1      52.591   6.367  16.338  0.00  0.00    +0.000 A 
ATOM     24  S   UNL     1      53.134   5.501  17.704  0.00  0.00    +0.000 S 
ATOM     25  C   UNL     1      51.563   5.452  18.359  0.00  0.00    +0.000 A 
ATOM     26  N   UNL     1      51.322   4.821  19.539  0.00  0.00    +0.000 NA
ATOM     27  C   UNL     1      50.084   4.830  19.909  0.00  0.00    +0.000 A 
ATOM     28  N   UNL     1      49.068   5.428  19.205  0.00  0.00    +0.000 N 
ATOM     29  C   UNL     1      49.272   6.104  18.028  0.00  0.00    +0.000 A 
ATOM     30  O   UNL     1      48.346   6.664  17.449  0.00  0.00    +0.000 OA
ATOM     31  C   UNL     1      50.645   6.106  17.562  0.00  0.00    +0.000 A 
ATOM     32  H   UNL     1      48.119   5.410  19.552  0.00  0.00    +0.000 HD
ENDBRANCH  19  22
ENDBRANCH  17  18
ENDBRANCH   4  17
TORSDOF 7
ENDMDL
MODEL 4
REMARK VINA RESULT:    -7.232      5.147      9.605
REMARK INTER + INTRA:         -11.204
REMARK INTER:                 -10.203
REMARK INTRA:                  -1.001
REMARK UNBOUND:                -1.012
REMARK  Name = 
REMARK  8 active torsions:
REMARK  status: ('A' for Active; 'I' for Inactive)
REMARK    1  A    between atoms: C_1  and  C_2
REMARK    2  A    between atoms: C_5  and  C_6
REMARK    3  A    between atoms: C_6  and  O_7
REMARK    4  A    between atoms: O_7  and  C_8
REMARK    5  A    between atoms: C_8  and  C_9
REMARK    6  A    between atoms: C_12  and  C_13
REMARK    7  A    between atoms: C_13  and  N_14
REMARK    8  A    between atoms: C_15  and  C_17
REMARK                            x       y       z     vdW  Elec       q    Type
REMARK                         _______ _______ _______ _____ _____    ______ ____
ROOT
ATOM      1  C   UNL     1      51.143   2.292  17.419  0.00  0.00    +0.000 A 
ATOM      2  C   UNL     1      49.747   2.232  17.305  0.00  0.00    +0.000 A 
ATOM      3  C   UNL     1      48.983   3.402  17.240  0.00  0.00    +0.000 A 
ATOM      4  C   UNL     1      49.602   4.657  17.277  0.00  0.00    +0.000 A 
ATOM      5  C   UNL     1      50.994   4.718  17.425  0.00  0.00    +0.000 A 
ATOM      6  C   UNL     1      51.758   3.548  17.490  0.00  0.00    +0.000 A 
ENDROOT
BRANCH   1   7
ATOM      7  C   UNL     1      51.957   1.024  17.462  0.00  0.00    +0.000 C 
BRANCH   7   8
ATOM      8  O   UNL     1      52.901   1.141  18.520  0.00  0.00    +0.000 OA
BRANCH   8   9
ATOM      9  C   UNL     1      54.199   0.685  18.136  0.00  0.00    +0.000 C 
BRANCH   9  14
ATOM     10  C   UNL     1      54.455  -5.061  18.588  0.00  0.00    +0.000 C 
ATOM     11  C   UNL     1      54.424  -3.574  18.429  0.00  0.00    +0.000 A 
ATOM     12  C   UNL     1      54.971  -2.944  17.314  0.00  0.00    +0.000 A 
ATOM     13  C   UNL     1      54.907  -1.557  17.206  0.00  0.00    +0.000 A 
ATOM     14  C   UNL     1      54.282  -0.824  18.213  0.00  0.00    +0.000 A 
ATOM     15  N   UNL     1      53.763  -1.416  19.320  0.00  0.00    +0.000 NA
ATOM     16  C   UNL     1      53.841  -2.765  19.397  0.00  0.00    +0.000 A 
ENDBRANCH   9  14
ENDBRANCH   8   9
ENDBRANCH   7   8
ENDBRANCH   1   7
BRANCH   4  17
ATOM     17  C   UNL     1      48.789   5.923  17.197  0.00  0.00    +0.000 C 
BRANCH  17  18
ATOM     18  N   UNL     1      47.899   5.896  16.066  0.00  0.00    +0.000 N 
ATOM     19  C   UNL     1      48.309   6.299  14.822  0.00  0.00    +0.000 C 
ATOM     20  O   UNL     1      49.461   6.666  14.602  0.00  0.00    +0.000 OA
ATOM     21  H   UNL     1      46.907   5.821  16.266  0.00  0.00    +0.000 HD
BRANCH  19  22
ATOM     22  C   UNL     1      47.314   6.211  13.746  0.00  0.00    +0.000 A 
ATOM     23  C   UNL     1      46.904   7.364  13.092  0.00  0.00    +0.000 A 
ATOM     24  S   UNL     1      45.785   7.077  11.836  0.00  0.00    +0.000 S 
ATOM     25  C   UNL     1      45.768   5.407  12.165  0.00  0.00    +0.000 A 
ATOM     26  N   UNL     1      44.978   4.565  11.447  0.00  0.00    +0.000 NA
ATOM     27  C   UNL     1      45.037   3.328  11.817  0.00  0.00    +0.000 A 
ATOM     28  N   UNL     1      45.827   2.859  12.837  0.00  0.00    +0.000 N 
ATOM     29  C   UNL     1      46.664   3.668  13.565  0.00  0.00    +0.000 A 
ATOM     30  O   UNL     1      47.389   3.207  14.441  0.00  0.00    +0.000 OA
ATOM     31  C   UNL     1      46.621   5.070  13.198  0.00  0.00    +0.000 A 
ATOM     32  H   UNL     1      45.837   1.877  13.074  0.00  0.00    +0.000 HD
ENDBRANCH  19  22
ENDBRANCH  17  18
ENDBRANCH   4  17
TORSDOF 7
ENDMDL
MODEL 5
REMARK VINA RESULT:    -7.231      3.098      4.193
REMARK INTER + INTRA:         -11.203
REMARK INTER:                 -10.367
REMARK INTRA:                  -0.836
REMARK UNBOUND:                -1.012
REMARK  Name = 
REMARK  8 active torsions:
REMARK  status: ('A' for Active; 'I' for Inactive)
REMARK    1  A    between atoms: C_1  and  C_2
REMARK    2  A    between atoms: C_5  and  C_6
REMARK    3  A    between atoms: C_6  and  O_7
REMARK    4  A    between atoms: O_7  and  C_8
REMARK    5  A    between atoms: C_8  and  C_9
REMARK    6  A    between atoms: C_12  and  C_13
REMARK    7  A    between atoms: C_13  and  N_14
REMARK    8  A    between atoms: C_15  and  C_17
REMARK                            x       y       z     vdW  Elec       q    Type
REMARK                         _______ _______ _______ _____ _____    ______ ____
ROOT
ATOM      1  C   UNL     1      46.906   4.502  14.106  0.00  0.00    +0.000 A 
ATOM      2  C   UNL     1      47.578   5.727  13.979  0.00  0.00    +0.000 A 
ATOM      3  C   UNL     1      48.276   6.275  15.060  0.00  0.00    +0.000 A 
ATOM      4  C   UNL     1      48.327   5.603  16.287  0.00  0.00    +0.000 A 
ATOM      5  C   UNL     1      47.629   4.397  16.424  0.00  0.00    +0.000 A 
ATOM      6  C   UNL     1      46.930   3.848  15.344  0.00  0.00    +0.000 A 
ENDROOT
BRANCH   1   7
ATOM      7  C   UNL     1      46.179   3.908  12.927  0.00  0.00    +0.000 C 
BRANCH   7   8
ATOM      8  O   UNL     1      44.784   3.930  13.212  0.00  0.00    +0.000 OA
BRANCH   8   9
ATOM      9  C   UNL     1      44.036   4.589  12.190  0.00  0.00    +0.000 C 
BRANCH   9  14
ATOM     10  C   UNL     1      46.002   3.244   6.935  0.00  0.00    +0.000 C 
ATOM     11  C   UNL     1      45.462   3.547   8.296  0.00  0.00    +0.000 A 
ATOM     12  C   UNL     1      44.749   2.602   9.030  0.00  0.00    +0.000 A 
ATOM     13  C   UNL     1      44.277   2.928  10.298  0.00  0.00    +0.000 A 
ATOM     14  C   UNL     1      44.540   4.194  10.818  0.00  0.00    +0.000 A 
ATOM     15  N   UNL     1      45.212   5.138  10.111  0.00  0.00    +0.000 NA
ATOM     16  C   UNL     1      45.657   4.793   8.881  0.00  0.00    +0.000 A 
ENDBRANCH   9  14
ENDBRANCH   8   9
ENDBRANCH   7   8
ENDBRANCH   1   7
BRANCH   4  17
ATOM     17  C   UNL     1      49.087   6.180  17.453  0.00  0.00    +0.000 C 
BRANCH  17  18
ATOM     18  N   UNL     1      50.123   5.283  17.892  0.00  0.00    +0.000 N 
ATOM     19  C   UNL     1      51.388   5.338  17.366  0.00  0.00    +0.000 C 
ATOM     20  O   UNL     1      51.708   6.175  16.526  0.00  0.00    +0.000 OA
ATOM     21  H   UNL     1      49.828   4.455  18.400  0.00  0.00    +0.000 HD
BRANCH  19  22
ATOM     22  C   UNL     1      52.361   4.380  17.905  0.00  0.00    +0.000 A 
ATOM     23  C   UNL     1      53.506   4.845  18.537  0.00  0.00    +0.000 A 
ATOM     24  S   UNL     1      54.502   3.602  19.150  0.00  0.00    +0.000 S 
ATOM     25  C   UNL     1      53.462   2.400  18.539  0.00  0.00    +0.000 A 
ATOM     26  N   UNL     1      53.753   1.082  18.703  0.00  0.00    +0.000 NA
ATOM     27  C   UNL     1      52.898   0.274  18.166  0.00  0.00    +0.000 A 
ATOM     28  N   UNL     1      51.773   0.672  17.489  0.00  0.00    +0.000 N 
ATOM     29  C   UNL     1      51.424   1.990  17.329  0.00  0.00    +0.000 A 
ATOM     30  O   UNL     1      50.387   2.308  16.756  0.00  0.00    +0.000 OA
ATOM     31  C   UNL     1      52.362   2.937  17.901  0.00  0.00    +0.000 A 
ATOM     32  H   UNL     1      51.136  -0.009  17.099  0.00  0.00    +0.000 HD
ENDBRANCH  19  22
ENDBRANCH  17  18
ENDBRANCH   4  17
TORSDOF 7
ENDMDL
MODEL 6
REMARK VINA RESULT:    -7.223      4.963      7.121
REMARK INTER + INTRA:         -11.191
REMARK INTER:                 -10.192
REMARK INTRA:                  -0.999
REMARK UNBOUND:                -1.012
REMARK  Name = 
REMARK  8 active torsions:
REMARK  status: ('A' for Active; 'I' for Inactive)
REMARK    1  A    between atoms: C_1  and  C_2
REMARK    2  A    between atoms: C_5  and  C_6
REMARK    3  A    between atoms: C_6  and  O_7
REMARK    4  A    between atoms: O_7  and  C_8
REMARK    5  A    between atoms: C_8  and  C_9
REMARK    6  A    between atoms: C_12  and  C_13
REMARK    7  A    between atoms: C_13  and  N_14
REMARK    8  A    between atoms: C_15  and  C_17
REMARK                            x       y       z     vdW  Elec       q    Type
REMARK                         _______ _______ _______ _____ _____    ______ ____
ROOT
ATOM      1  C   UNL     1      45.799   5.279  12.492  0.00  0.00    +0.000 A 
ATOM      2  C   UNL     1      46.137   6.287  11.576  0.00  0.00    +0.000 A 
ATOM      3  C   UNL     1      47.326   7.010  11.715  0.00  0.00    +0.000 A 
ATOM      4  C   UNL     1      48.208   6.733  12.767  0.00  0.00    +0.000 A 
ATOM      5  C   UNL     1      47.855   5.750  13.700  0.00  0.00    +0.000 A 
ATOM      6  C   UNL     1      46.665   5.026  13.562  0.00  0.00    +0.000 A 
ENDROOT
BRANCH   1   7
ATOM      7  C   UNL     1      44.527   4.489  12.317  0.00  0.00    +0.000 C 
BRANCH   7   8
ATOM      8  O   UNL     1      44.833   3.321  11.564  0.00  0.00    +0.000 OA
BRANCH   8   9
ATOM      9  C   UNL     1      44.140   3.288  10.316  0.00  0.00    +0.000 C 
BRANCH   9  14
ATOM     10  C   UNL     1      47.826   2.176   6.019  0.00  0.00    +0.000 C 
ATOM     11  C   UNL     1      46.880   2.518   7.125  0.00  0.00    +0.000 A 
ATOM     12  C   UNL     1      46.440   3.823   7.338  0.00  0.00    +0.000 A 
ATOM     13  C   UNL     1      45.549   4.088   8.374  0.00  0.00    +0.000 A 
ATOM     14  C   UNL     1      45.102   3.038   9.174  0.00  0.00    +0.000 A 
ATOM     15  N   UNL     1      45.537   1.764   9.000  0.00  0.00    +0.000 NA
ATOM     16  C   UNL     1      46.403   1.536   7.985  0.00  0.00    +0.000 A 
ENDBRANCH   9  14
ENDBRANCH   8   9
ENDBRANCH   7   8
ENDBRANCH   1   7
BRANCH   4  17
ATOM     17  C   UNL     1      49.496   7.498  12.918  0.00  0.00    +0.000 C 
BRANCH  17  18
ATOM     18  N   UNL     1      50.271   7.452  11.706  0.00  0.00    +0.000 N 
ATOM     19  C   UNL     1      51.495   8.065  11.615  0.00  0.00    +0.000 C 
ATOM     20  O   UNL     1      52.004   8.648  12.569  0.00  0.00    +0.000 OA
ATOM     21  H   UNL     1      49.782   7.184  10.858  0.00  0.00    +0.000 HD
BRANCH  19  22
ATOM     22  C   UNL     1      52.196   7.935  10.331  0.00  0.00    +0.000 A 
ATOM     23  C   UNL     1      52.656   6.692   9.922  0.00  0.00    +0.000 A 
ATOM     24  S   UNL     1      53.400   6.709   8.386  0.00  0.00    +0.000 S 
ATOM     25  C   UNL     1      53.182   8.391   8.244  0.00  0.00    +0.000 A 
ATOM     26  N   UNL     1      53.626   9.060   7.147  0.00  0.00    +0.000 NA
ATOM     27  C   UNL     1      53.425  10.336   7.179  0.00  0.00    +0.000 A 
ATOM     28  N   UNL     1      52.806  10.999   8.209  0.00  0.00    +0.000 N 
ATOM     29  C   UNL     1      52.313  10.360   9.319  0.00  0.00    +0.000 A 
ATOM     30  O   UNL     1      51.726  10.981  10.200  0.00  0.00    +0.000 OA
ATOM     31  C   UNL     1      52.530   8.927   9.338  0.00  0.00    +0.000 A 
ATOM     32  H   UNL     1      52.669  12.000   8.171  0.00  0.00    +0.000 HD
ENDBRANCH  19  22
ENDBRANCH  17  18
ENDBRANCH   4  17
TORSDOF 7
ENDMDL
MODEL 7
REMARK VINA RESULT:    -7.119      1.845      2.344
REMARK INTER + INTRA:         -11.045
REMARK INTER:                 -10.073
REMARK INTRA:                  -0.972
REMARK UNBOUND:                -1.012
REMARK  Name = 
REMARK  8 active torsions:
REMARK  status: ('A' for Active; 'I' for Inactive)
REMARK    1  A    between atoms: C_1  and  C_2
REMARK    2  A    between atoms: C_5  and  C_6
REMARK    3  A    between atoms: C_6  and  O_7
REMARK    4  A    between atoms: O_7  and  C_8
REMARK    5  A    between atoms: C_8  and  C_9
REMARK    6  A    between atoms: C_12  and  C_13
REMARK    7  A    between atoms: C_13  and  N_14
REMARK    8  A    between atoms: C_15  and  C_17
REMARK                            x       y       z     vdW  Elec       q    Type
REMARK                         _______ _______ _______ _____ _____    ______ ____
ROOT
ATOM      1  C   UNL     1      44.972   5.762  12.744  0.00  0.00    +0.000 A 
ATOM      2  C   UNL     1      45.838   4.769  13.223  0.00  0.00    +0.000 A 
ATOM      3  C   UNL     1      47.113   5.098  13.694  0.00  0.00    +0.000 A 
ATOM      4  C   UNL     1      47.544   6.430  13.706  0.00  0.00    +0.000 A 
ATOM      5  C   UNL     1      46.692   7.418  13.195  0.00  0.00    +0.000 A 
ATOM      6  C   UNL     1      45.417   7.089  12.724  0.00  0.00    +0.000 A 
ENDROOT
BRANCH   1   7
ATOM      7  C   UNL     1      43.590   5.398  12.263  0.00  0.00    +0.000 C 
BRANCH   7   8
ATOM      8  O   UNL     1      43.709   4.295  11.372  0.00  0.00    +0.000 OA
BRANCH   8   9
ATOM      9  C   UNL     1      43.749   4.708  10.006  0.00  0.00    +0.000 C 
BRANCH   9  14
ATOM     10  C   UNL     1      47.426   1.546   6.881  0.00  0.00    +0.000 C 
ATOM     11  C   UNL     1      46.449   2.319   7.709  0.00  0.00    +0.000 A 
ATOM     12  C   UNL     1      45.644   1.701   8.662  0.00  0.00    +0.000 A 
ATOM     13  C   UNL     1      44.759   2.466   9.417  0.00  0.00    +0.000 A 
ATOM     14  C   UNL     1      44.704   3.843   9.212  0.00  0.00    +0.000 A 
ATOM     15  N   UNL     1      45.463   4.463   8.272  0.00  0.00    +0.000 NA
ATOM     16  C   UNL     1      46.313   3.693   7.553  0.00  0.00    +0.000 A 
ENDBRANCH   9  14
ENDBRANCH   8   9
ENDBRANCH   7   8
ENDBRANCH   1   7
BRANCH   4  17
ATOM     17  C   UNL     1      48.912   6.796  14.221  0.00  0.00    +0.000 C 
BRANCH  17  18
ATOM     18  N   UNL     1      48.860   7.158  15.613  0.00  0.00    +0.000 N 
ATOM     19  C   UNL     1      49.147   6.251  16.600  0.00  0.00    +0.000 C 
ATOM     20  O   UNL     1      49.496   5.101  16.347  0.00  0.00    +0.000 OA
ATOM     21  H   UNL     1      48.362   8.012  15.847  0.00  0.00    +0.000 HD
BRANCH  19  22
ATOM     22  C   UNL     1      49.075   6.745  17.981  0.00  0.00    +0.000 A 
ATOM     23  C   UNL     1      47.864   6.721  18.658  0.00  0.00    +0.000 A 
ATOM     24  S   UNL     1      47.968   7.281  20.267  0.00  0.00    +0.000 S 
ATOM     25  C   UNL     1      49.625   7.628  20.092  0.00  0.00    +0.000 A 
ATOM     26  N   UNL     1      50.335   8.166  21.119  0.00  0.00    +0.000 NA
ATOM     27  C   UNL     1      51.574   8.408  20.845  0.00  0.00    +0.000 A 
ATOM     28  N   UNL     1      52.168   8.147  19.636  0.00  0.00    +0.000 N 
ATOM     29  C   UNL     1      51.498   7.574  18.584  0.00  0.00    +0.000 A 
ATOM     30  O   UNL     1      52.073   7.314  17.531  0.00  0.00    +0.000 OA
ATOM     31  C   UNL     1      50.097   7.298  18.837  0.00  0.00    +0.000 A 
ATOM     32  H   UNL     1      53.147   8.350  19.485  0.00  0.00    +0.000 HD
ENDBRANCH  19  22
ENDBRANCH  17  18
ENDBRANCH   4  17
TORSDOF 7
ENDMDL
MODEL 8
REMARK VINA RESULT:    -6.991      4.910      9.701
REMARK INTER + INTRA:         -10.864
REMARK INTER:                 -10.046
REMARK INTRA:                  -0.818
REMARK UNBOUND:                -1.012
REMARK  Name = 
REMARK  8 active torsions:
REMARK  status: ('A' for Active; 'I' for Inactive)
REMARK    1  A    between atoms: C_1  and  C_2
REMARK    2  A    between atoms: C_5  and  C_6
REMARK    3  A    between atoms: C_6  and  O_7
REMARK    4  A    between atoms: O_7  and  C_8
REMARK    5  A    between atoms: C_8  and  C_9
REMARK    6  A    between atoms: C_12  and  C_13
REMARK    7  A    between atoms: C_13  and  N_14
REMARK    8  A    between atoms: C_15  and  C_17
REMARK                            x       y       z     vdW  Elec       q    Type
REMARK                         _______ _______ _______ _____ _____    ______ ____
ROOT
ATOM      1  C   UNL     1      51.399   3.612  17.672  0.00  0.00    +0.000 A 
ATOM      2  C   UNL     1      50.797   2.375  17.396  0.00  0.00    +0.000 A 
ATOM      3  C   UNL     1      49.426   2.289  17.134  0.00  0.00    +0.000 A 
ATOM      4  C   UNL     1      48.629   3.441  17.131  0.00  0.00    +0.000 A 
ATOM      5  C   UNL     1      49.224   4.671  17.441  0.00  0.00    +0.000 A 
ATOM      6  C   UNL     1      50.595   4.758  17.703  0.00  0.00    +0.000 A 
ENDROOT
BRANCH   1   7
ATOM      7  C   UNL     1      52.882   3.695  17.928  0.00  0.00    +0.000 C 
BRANCH   7   8
ATOM      8  O   UNL     1      53.330   2.412  18.350  0.00  0.00    +0.000 OA
BRANCH   8   9
ATOM      9  C   UNL     1      54.416   1.933  17.556  0.00  0.00    +0.000 C 
BRANCH   9  14
ATOM     10  C   UNL     1      54.771  -3.804  18.044  0.00  0.00    +0.000 C 
ATOM     11  C   UNL     1      54.709  -2.320  17.871  0.00  0.00    +0.000 A 
ATOM     12  C   UNL     1      55.101  -1.703  16.686  0.00  0.00    +0.000 A 
ATOM     13  C   UNL     1      55.012  -0.318  16.570  0.00  0.00    +0.000 A 
ATOM     14  C   UNL     1      54.519   0.425  17.641  0.00  0.00    +0.000 A 
ATOM     15  N   UNL     1      54.155  -0.154  18.814  0.00  0.00    +0.000 NA
ATOM     16  C   UNL     1      54.253  -1.501  18.897  0.00  0.00    +0.000 A 
ENDBRANCH   9  14
ENDBRANCH   8   9
ENDBRANCH   7   8
ENDBRANCH   1   7
BRANCH   4  17
ATOM     17  C   UNL     1      47.154   3.360  16.839  0.00  0.00    +0.000 C 
BRANCH  17  18
ATOM     18  N   UNL     1      46.763   4.350  15.870  0.00  0.00    +0.000 N 
ATOM     19  C   UNL     1      46.855   4.109  14.523  0.00  0.00    +0.000 C 
ATOM     20  O   UNL     1      47.237   3.030  14.079  0.00  0.00    +0.000 OA
ATOM     21  H   UNL     1      46.668   5.304  16.202  0.00  0.00    +0.000 HD
BRANCH  19  22
ATOM     22  C   UNL     1      46.411   5.191  13.635  0.00  0.00    +0.000 A 
ATOM     23  C   UNL     1      47.250   6.269  13.392  0.00  0.00    +0.000 A 
ATOM     24  S   UNL     1      46.603   7.407  12.298  0.00  0.00    +0.000 S 
ATOM     25  C   UNL     1      45.154   6.524  12.160  0.00  0.00    +0.000 A 
ATOM     26  N   UNL     1      44.139   6.973  11.374  0.00  0.00    +0.000 NA
ATOM     27  C   UNL     1      43.085   6.225  11.381  0.00  0.00    +0.000 A 
ATOM     28  N   UNL     1      42.964   5.061  12.097  0.00  0.00    +0.000 N 
ATOM     29  C   UNL     1      43.974   4.554  12.876  0.00  0.00    +0.000 A 
ATOM     30  O   UNL     1      43.845   3.487  13.468  0.00  0.00    +0.000 OA
ATOM     31  C   UNL     1      45.174   5.368  12.914  0.00  0.00    +0.000 A 
ATOM     32  H   UNL     1      42.115   4.513  12.054  0.00  0.00    +0.000 HD
ENDBRANCH  19  22
ENDBRANCH  17  18
ENDBRANCH   4  17
TORSDOF 7
ENDMDL
MODEL 9
REMARK VINA RESULT:    -6.908      1.953      2.419
REMARK INTER + INTRA:         -10.747
REMARK INTER:                  -9.732
REMARK INTRA:                  -1.015
REMARK UNBOUND:                -1.012
REMARK  Name = 
REMARK  8 active torsions:
REMARK  status: ('A' for Active; 'I' for Inactive)
REMARK    1  A    between atoms: C_1  and  C_2
REMARK    2  A    between atoms: C_5  and  C_6
REMARK    3  A    between atoms: C_6  and  O_7
REMARK    4  A    between atoms: O_7  and  C_8
REMARK    5  A    between atoms: C_8  and  C_9
REMARK    6  A    between atoms: C_12  and  C_13
REMARK    7  A    between atoms: C_13  and  N_14
REMARK    8  A    between atoms: C_15  and  C_17
REMARK                            x       y       z     vdW  Elec       q    Type
REMARK                         _______ _______ _______ _____ _____    ______ ____
ROOT
ATOM      1  C   UNL     1      45.895   5.179  12.701  0.00  0.00    +0.000 A 
ATOM      2  C   UNL     1      46.380   6.369  12.139  0.00  0.00    +0.000 A 
ATOM      3  C   UNL     1      47.415   7.081  12.754  0.00  0.00    +0.000 A 
ATOM      4  C   UNL     1      47.993   6.611  13.939  0.00  0.00    +0.000 A 
ATOM      5  C   UNL     1      47.486   5.441  14.519  0.00  0.00    +0.000 A 
ATOM      6  C   UNL     1      46.451   4.728  13.904  0.00  0.00    +0.000 A 
ENDROOT
BRANCH   1   7
ATOM      7  C   UNL     1      44.797   4.407  12.015  0.00  0.00    +0.000 C 
BRANCH   7   8
ATOM      8  O   UNL     1      44.422   5.120  10.842  0.00  0.00    +0.000 OA
BRANCH   8   9
ATOM      9  C   UNL     1      43.813   4.272   9.867  0.00  0.00    +0.000 C 
BRANCH   9  14
ATOM     10  C   UNL     1      47.839   1.847   6.522  0.00  0.00    +0.000 C 
ATOM     11  C   UNL     1      46.778   2.425   7.402  0.00  0.00    +0.000 A 
ATOM     12  C   UNL     1      46.040   1.634   8.279  0.00  0.00    +0.000 A 
ATOM     13  C   UNL     1      45.070   2.222   9.087  0.00  0.00    +0.000 A 
ATOM     14  C   UNL     1      44.864   3.598   9.012  0.00  0.00    +0.000 A 
ATOM     15  N   UNL     1      45.555   4.384   8.147  0.00  0.00    +0.000 NA
ATOM     16  C   UNL     1      46.490   3.785   7.374  0.00  0.00    +0.000 A 
ENDBRANCH   9  14
ENDBRANCH   8   9
ENDBRANCH   7   8
ENDBRANCH   1   7
BRANCH   4  17
ATOM     17  C   UNL     1      49.116   7.364  14.603  0.00  0.00    +0.000 C 
BRANCH  17  18
ATOM     18  N   UNL     1      49.402   6.826  15.907  0.00  0.00    +0.000 N 
ATOM     19  C   UNL     1      49.722   7.640  16.963  0.00  0.00    +0.000 C 
ATOM     20  O   UNL     1      49.744   8.863  16.859  0.00  0.00    +0.000 OA
ATOM     21  H   UNL     1      49.612   5.834  15.957  0.00  0.00    +0.000 HD
BRANCH  19  22
ATOM     22  C   UNL     1      49.977   6.973  18.246  0.00  0.00    +0.000 A 
ATOM     23  C   UNL     1      49.149   7.227  19.330  0.00  0.00    +0.000 A 
ATOM     24  S   UNL     1      49.555   6.333  20.725  0.00  0.00    +0.000 S 
ATOM     25  C   UNL     1      50.887   5.619  19.941  0.00  0.00    +0.000 A 
ATOM     26  N   UNL     1      51.694   4.745  20.600  0.00  0.00    +0.000 NA
ATOM     27  C   UNL     1      52.685   4.300  19.900  0.00  0.00    +0.000 A 
ATOM     28  N   UNL     1      52.931   4.644  18.594  0.00  0.00    +0.000 N 
ATOM     29  C   UNL     1      52.123   5.496  17.882  0.00  0.00    +0.000 A 
ATOM     30  O   UNL     1      52.349   5.747  16.702  0.00  0.00    +0.000 OA
ATOM     31  C   UNL     1      51.005   6.036  18.630  0.00  0.00    +0.000 A 
ATOM     32  H   UNL     1      53.719   4.254  18.096  0.00  0.00    +0.000 HD
ENDBRANCH  19  22
ENDBRANCH  17  18
ENDBRANCH   4  17
TORSDOF 7
ENDMDL
