MODEL 1
REMARK VINA RESULT:    -8.311      0.000      0.000
REMARK INTER + INTRA:         -13.748
REMARK INTER:                 -12.198
REMARK INTRA:                  -1.551
REMARK UNBOUND:                -1.551
REMARK  Name = 
REMARK  9 active torsions:
REMARK  status: ('A' for Active; 'I' for Inactive)
REMARK    1  A    between atoms: C_1  and  O_2
REMARK    2  A    between atoms: O_2  and  C_3
REMARK    3  A    between atoms: C_10  and  C_11
REMARK    4  A    between atoms: N_13  and  C_14
REMARK    5  A    between atoms: C_14  and  C_15
REMARK    6  A    between atoms: C_18  and  C_19
REMARK    7  A    between atoms: C_19  and  N_20
REMARK    8  A    between atoms: N_20  and  C_21
REMARK    9  A    between atoms: C_21  and  C_22
REMARK                            x       y       z     vdW  Elec       q    Type
REMARK                         _______ _______ _______ _____ _____    ______ ____
ROOT
ATOM      1  C   UNL     1      45.988   6.844  12.497  0.00  0.00    +0.000 A 
ATOM      2  C   UNL     1      46.327   6.448  11.196  0.00  0.00    +0.000 A 
ATOM      3  C   UNL     1      45.611   5.435  10.548  0.00  0.00    +0.000 A 
ATOM      4  C   UNL     1      44.535   4.793  11.179  0.00  0.00    +0.000 A 
ATOM      5  C   UNL     1      44.182   5.205  12.472  0.00  0.00    +0.000 A 
ATOM      6  C   UNL     1      44.899   6.219  13.121  0.00  0.00    +0.000 A 
ENDROOT
BRANCH   1   7
ATOM      7  C   UNL     1      46.750   7.953  13.183  0.00  0.00    +0.000 C 
BRANCH   7  10
ATOM      8  C   UNL     1      48.619   6.888  14.398  0.00  0.00    +0.000 C 
ATOM      9  O   UNL     1      49.265   6.742  13.364  0.00  0.00    +0.000 OA
ATOM     10  N   UNL     1      47.385   7.472  14.387  0.00  0.00    +0.000 N 
ATOM     11  H   UNL     1      46.868   7.578  15.249  0.00  0.00    +0.000 HD
BRANCH   8  19
ATOM     12  C   UNL     1      47.659   4.403  16.579  0.00  0.00    +0.000 A 
ATOM     13  N   UNL     1      47.531   3.492  17.563  0.00  0.00    +0.000 NA
ATOM     14  C   UNL     1      48.409   3.527  18.568  0.00  0.00    +0.000 A 
ATOM     15  N   UNL     1      49.418   4.383  18.720  0.00  0.00    +0.000 NA
ATOM     16  C   UNL     1      49.517   5.266  17.712  0.00  0.00    +0.000 A 
ATOM     17  S   UNL     1      50.742   6.439  17.743  0.00  0.00    +0.000 S 
ATOM     18  C   UNL     1      50.234   7.082  16.253  0.00  0.00    +0.000 A 
ATOM     19  C   UNL     1      49.136   6.428  15.702  0.00  0.00    +0.000 A 
ATOM     20  C   UNL     1      48.699   5.351  16.589  0.00  0.00    +0.000 A 
BRANCH  12  22
ATOM     21  C   UNL     1      47.216   3.546  14.446  0.00  0.00    +0.000 C 
ATOM     22  O   UNL     1      46.766   4.352  15.531  0.00  0.00    +0.000 OA
ENDBRANCH  12  22
ENDBRANCH   8  19
ENDBRANCH   7  10
ENDBRANCH   1   7
BRANCH   4  23
ATOM     23  C   UNL     1      43.779   3.679  10.478  0.00  0.00    +0.000 C 
BRANCH  23  24
ATOM     24  N   UNL     1      44.620   2.495  10.347  0.00  0.00    +0.000 NA
ATOM     25  H   UNL     1      44.403   1.841  11.102  0.00  0.00    +0.000 HD
BRANCH  24  26
ATOM     26  C   UNL     1      44.414   1.780   9.081  0.00  0.00    +0.000 C 
BRANCH  26  27
ATOM     27  C   UNL     1      45.617   1.950   8.173  0.00  0.00    +0.000 A 
ATOM     28  N   UNL     1      46.459   0.880   8.053  0.00  0.00    +0.000 NA
ATOM     29  C   UNL     1      47.559   1.044   7.284  0.00  0.00    +0.000 A 
ATOM     30  C   UNL     1      47.866   2.217   6.610  0.00  0.00    +0.000 A 
ATOM     31  C   UNL     1      46.990   3.290   6.729  0.00  0.00    +0.000 A 
ATOM     32  C   UNL     1      45.854   3.154   7.519  0.00  0.00    +0.000 A 
ATOM     33  F   UNL     1      45.012   4.190   7.638  0.00  0.00    +0.000 F 
ENDBRANCH  26  27
ENDBRANCH  24  26
ENDBRANCH  23  24
ENDBRANCH   4  23
TORSDOF 8
ENDMDL
MODEL 2
REMARK VINA RESULT:    -8.121      1.431      1.559
REMARK INTER + INTRA:         -13.470
REMARK INTER:                 -12.192
REMARK INTRA:                  -1.277
REMARK UNBOUND:                -1.551
REMARK  Name = 
REMARK  9 active torsions:
REMARK  status: ('A' for Active; 'I' for Inactive)
REMARK    1  A    between atoms: C_1  and  O_2
REMARK    2  A    between atoms: O_2  and  C_3
REMARK    3  A    between atoms: C_10  and  C_11
REMARK    4  A    between atoms: N_13  and  C_14
REMARK    5  A    between atoms: C_14  and  C_15
REMARK    6  A    between atoms: C_18  and  C_19
REMARK    7  A    between atoms: C_19  and  N_20
REMARK    8  A    between atoms: N_20  and  C_21
REMARK    9  A    between atoms: C_21  and  C_22
REMARK                            x       y       z     vdW  Elec       q    Type
REMARK                         _______ _______ _______ _____ _____    ______ ____
ROOT
ATOM      1  C   UNL     1      46.982   6.571  12.810  0.00  0.00    +0.000 A 
ATOM      2  C   UNL     1      46.327   6.786  11.590  0.00  0.00    +0.000 A 
ATOM      3  C   UNL     1      45.427   5.839  11.085  0.00  0.00    +0.000 A 
ATOM      4  C   UNL     1      45.154   4.656  11.788  0.00  0.00    +0.000 A 
ATOM      5  C   UNL     1      45.792   4.452  13.019  0.00  0.00    +0.000 A 
ATOM      6  C   UNL     1      46.693   5.399  13.524  0.00  0.00    +0.000 A 
ENDROOT
BRANCH   1   7
ATOM      7  C   UNL     1      47.935   7.606  13.361  0.00  0.00    +0.000 C 
BRANCH   7  10
ATOM      8  C   UNL     1      48.959   7.135  15.559  0.00  0.00    +0.000 C 
ATOM      9  O   UNL     1      49.979   6.691  15.037  0.00  0.00    +0.000 OA
ATOM     10  N   UNL     1      47.921   7.601  14.804  0.00  0.00    +0.000 N 
ATOM     11  H   UNL     1      47.090   7.957  15.254  0.00  0.00    +0.000 HD
BRANCH   8  19
ATOM     12  C   UNL     1      48.843   4.702  17.991  0.00  0.00    +0.000 A 
ATOM     13  N   UNL     1      48.813   3.972  19.123  0.00  0.00    +0.000 NA
ATOM     14  C   UNL     1      48.690   4.620  20.284  0.00  0.00    +0.000 A 
ATOM     15  N   UNL     1      48.581   5.936  20.459  0.00  0.00    +0.000 NA
ATOM     16  C   UNL     1      48.626   6.626  19.307  0.00  0.00    +0.000 A 
ATOM     17  S   UNL     1      48.495   8.317  19.337  0.00  0.00    +0.000 S 
ATOM     18  C   UNL     1      48.645   8.411  17.646  0.00  0.00    +0.000 A 
ATOM     19  C   UNL     1      48.800   7.175  17.025  0.00  0.00    +0.000 A 
ATOM     20  C   UNL     1      48.771   6.107  18.023  0.00  0.00    +0.000 A 
BRANCH  12  22
ATOM     21  C   UNL     1      47.817   3.342  16.386  0.00  0.00    +0.000 C 
ATOM     22  O   UNL     1      48.992   4.034  16.795  0.00  0.00    +0.000 OA
ENDBRANCH  12  22
ENDBRANCH   8  19
ENDBRANCH   7  10
ENDBRANCH   1   7
BRANCH   4  23
ATOM     23  C   UNL     1      44.195   3.625  11.221  0.00  0.00    +0.000 C 
BRANCH  23  24
ATOM     24  N   UNL     1      44.927   2.477  10.700  0.00  0.00    +0.000 NA
ATOM     25  H   UNL     1      44.786   1.675  11.318  0.00  0.00    +0.000 HD
BRANCH  24  26
ATOM     26  C   UNL     1      44.486   2.074   9.359  0.00  0.00    +0.000 C 
BRANCH  26  27
ATOM     27  C   UNL     1      45.639   2.149   8.375  0.00  0.00    +0.000 A 
ATOM     28  N   UNL     1      46.325   0.992   8.135  0.00  0.00    +0.000 NA
ATOM     29  C   UNL     1      47.385   1.065   7.297  0.00  0.00    +0.000 A 
ATOM     30  C   UNL     1      47.795   2.231   6.668  0.00  0.00    +0.000 A 
ATOM     31  C   UNL     1      47.076   3.396   6.909  0.00  0.00    +0.000 A 
ATOM     32  C   UNL     1      45.987   3.353   7.773  0.00  0.00    +0.000 A 
ATOM     33  F   UNL     1      45.295   4.477   8.009  0.00  0.00    +0.000 F 
ENDBRANCH  26  27
ENDBRANCH  24  26
ENDBRANCH  23  24
ENDBRANCH   4  23
TORSDOF 8
ENDMDL
MODEL 3
REMARK VINA RESULT:    -7.776      2.255      2.864
REMARK INTER + INTRA:         -12.964
REMARK INTER:                 -11.617
REMARK INTRA:                  -1.347
REMARK UNBOUND:                -1.551
REMARK  Name = 
REMARK  9 active torsions:
REMARK  status: ('A' for Active; 'I' for Inactive)
REMARK    1  A    between atoms: C_1  and  O_2
REMARK    2  A    between atoms: O_2  and  C_3
REMARK    3  A    between atoms: C_10  and  C_11
REMARK    4  A    between atoms: N_13  and  C_14
REMARK    5  A    between atoms: C_14  and  C_15
REMARK    6  A    between atoms: C_18  and  C_19
REMARK    7  A    between atoms: C_19  and  N_20
REMARK    8  A    between atoms: N_20  and  C_21
REMARK    9  A    between atoms: C_21  and  C_22
REMARK                            x       y       z     vdW  Elec       q    Type
REMARK                         _______ _______ _______ _____ _____    ______ ____
ROOT
ATOM      1  C   UNL     1      47.019   6.420  13.112  0.00  0.00    +0.000 A 
ATOM      2  C   UNL     1      46.727   5.142  13.610  0.00  0.00    +0.000 A 
ATOM      3  C   UNL     1      45.831   4.301  12.939  0.00  0.00    +0.000 A 
ATOM      4  C   UNL     1      45.208   4.710  11.750  0.00  0.00    +0.000 A 
ATOM      5  C   UNL     1      45.518   5.979  11.241  0.00  0.00    +0.000 A 
ATOM      6  C   UNL     1      46.414   6.821  11.913  0.00  0.00    +0.000 A 
ENDROOT
BRANCH   1   7
ATOM      7  C   UNL     1      48.002   7.315  13.829  0.00  0.00    +0.000 C 
BRANCH   7  10
ATOM      8  C   UNL     1      49.118   6.703  15.947  0.00  0.00    +0.000 C 
ATOM      9  O   UNL     1      50.209   6.599  15.392  0.00  0.00    +0.000 OA
ATOM     10  N   UNL     1      47.997   7.051  15.248  0.00  0.00    +0.000 N 
ATOM     11  H   UNL     1      47.109   7.127  15.723  0.00  0.00    +0.000 HD
BRANCH   8  19
ATOM     12  C   UNL     1      47.851   8.562  18.553  0.00  0.00    +0.000 A 
ATOM     13  N   UNL     1      47.379   9.044  19.719  0.00  0.00    +0.000 NA
ATOM     14  C   UNL     1      47.467   8.265  20.800  0.00  0.00    +0.000 A 
ATOM     15  N   UNL     1      47.986   7.040  20.866  0.00  0.00    +0.000 NA
ATOM     16  C   UNL     1      48.434   6.594  19.680  0.00  0.00    +0.000 A 
ATOM     17  S   UNL     1      49.136   5.053  19.576  0.00  0.00    +0.000 S 
ATOM     18  C   UNL     1      49.397   5.229  17.905  0.00  0.00    +0.000 A 
ATOM     19  C   UNL     1      48.960   6.446  17.392  0.00  0.00    +0.000 A 
ATOM     20  C   UNL     1      48.399   7.269  18.463  0.00  0.00    +0.000 A 
BRANCH  12  22
ATOM     21  C   UNL     1      48.809  10.290  17.298  0.00  0.00    +0.000 C 
ATOM     22  O   UNL     1      47.741   9.357  17.433  0.00  0.00    +0.000 OA
ENDBRANCH  12  22
ENDBRANCH   8  19
ENDBRANCH   7  10
ENDBRANCH   1   7
BRANCH   4  23
ATOM     23  C   UNL     1      44.222   3.800  11.042  0.00  0.00    +0.000 C 
BRANCH  23  24
ATOM     24  N   UNL     1      44.859   2.540  10.678  0.00  0.00    +0.000 NA
ATOM     25  H   UNL     1      44.609   1.824  11.364  0.00  0.00    +0.000 HD
BRANCH  24  26
ATOM     26  C   UNL     1      44.441   2.044   9.361  0.00  0.00    +0.000 C 
BRANCH  26  27
ATOM     27  C   UNL     1      45.598   2.099   8.381  0.00  0.00    +0.000 A 
ATOM     28  N   UNL     1      46.275   0.933   8.154  0.00  0.00    +0.000 NA
ATOM     29  C   UNL     1      47.338   0.989   7.320  0.00  0.00    +0.000 A 
ATOM     30  C   UNL     1      47.762   2.145   6.682  0.00  0.00    +0.000 A 
ATOM     31  C   UNL     1      47.052   3.319   6.909  0.00  0.00    +0.000 A 
ATOM     32  C   UNL     1      45.959   3.294   7.769  0.00  0.00    +0.000 A 
ATOM     33  F   UNL     1      45.278   4.427   7.993  0.00  0.00    +0.000 F 
ENDBRANCH  26  27
ENDBRANCH  24  26
ENDBRANCH  23  24
ENDBRANCH   4  23
TORSDOF 8
ENDMDL
MODEL 4
REMARK VINA RESULT:    -7.320      1.602      1.832
REMARK INTER + INTRA:         -12.295
REMARK INTER:                 -11.139
REMARK INTRA:                  -1.156
REMARK UNBOUND:                -1.551
REMARK  Name = 
REMARK  9 active torsions:
REMARK  status: ('A' for Active; 'I' for Inactive)
REMARK    1  A    between atoms: C_1  and  O_2
REMARK    2  A    between atoms: O_2  and  C_3
REMARK    3  A    between atoms: C_10  and  C_11
REMARK    4  A    between atoms: N_13  and  C_14
REMARK    5  A    between atoms: C_14  and  C_15
REMARK    6  A    between atoms: C_18  and  C_19
REMARK    7  A    between atoms: C_19  and  N_20
REMARK    8  A    between atoms: N_20  and  C_21
REMARK    9  A    between atoms: C_21  and  C_22
REMARK                            x       y       z     vdW  Elec       q    Type
REMARK                         _______ _______ _______ _____ _____    ______ ____
ROOT
ATOM      1  C   UNL     1      46.551   7.384  12.712  0.00  0.00    +0.000 A 
ATOM      2  C   UNL     1      45.528   8.056  12.030  0.00  0.00    +0.000 A 
ATOM      3  C   UNL     1      44.476   7.347  11.439  0.00  0.00    +0.000 A 
ATOM      4  C   UNL     1      44.414   5.947  11.517  0.00  0.00    +0.000 A 
ATOM      5  C   UNL     1      45.426   5.277  12.218  0.00  0.00    +0.000 A 
ATOM      6  C   UNL     1      46.479   5.986  12.811  0.00  0.00    +0.000 A 
ENDROOT
BRANCH   1   7
ATOM      7  C   UNL     1      47.672   8.156  13.367  0.00  0.00    +0.000 C 
BRANCH   7  10
ATOM      8  C   UNL     1      48.989   7.943  15.447  0.00  0.00    +0.000 C 
ATOM      9  O   UNL     1      49.972   8.468  14.929  0.00  0.00    +0.000 OA
ATOM     10  N   UNL     1      47.831   7.760  14.746  0.00  0.00    +0.000 N 
ATOM     11  H   UNL     1      47.036   7.323  15.190  0.00  0.00    +0.000 HD
BRANCH   8  19
ATOM     12  C   UNL     1      48.417   4.887  16.924  0.00  0.00    +0.000 A 
ATOM     13  N   UNL     1      48.296   3.820  17.737  0.00  0.00    +0.000 NA
ATOM     14  C   UNL     1      48.503   4.000  19.044  0.00  0.00    +0.000 A 
ATOM     15  N   UNL     1      48.816   5.141  19.655  0.00  0.00    +0.000 NA
ATOM     16  C   UNL     1      48.938   6.176  18.807  0.00  0.00    +0.000 A 
ATOM     17  S   UNL     1      49.325   7.713  19.412  0.00  0.00    +0.000 S 
ATOM     18  C   UNL     1      49.308   8.389  17.852  0.00  0.00    +0.000 A 
ATOM     19  C   UNL     1      49.013   7.474  16.846  0.00  0.00    +0.000 A 
ATOM     20  C   UNL     1      48.775   6.152  17.425  0.00  0.00    +0.000 A 
BRANCH  12  22
ATOM     21  C   UNL     1      47.385   3.585  15.276  0.00  0.00    +0.000 C 
ATOM     22  O   UNL     1      48.224   4.696  15.573  0.00  0.00    +0.000 OA
ENDBRANCH  12  22
ENDBRANCH   8  19
ENDBRANCH   7  10
ENDBRANCH   1   7
BRANCH   4  23
ATOM     23  C   UNL     1      43.282   5.185  10.853  0.00  0.00    +0.000 C 
BRANCH  23  24
ATOM     24  N   UNL     1      43.700   4.683   9.550  0.00  0.00    +0.000 NA
ATOM     25  H   UNL     1      44.451   5.273   9.184  0.00  0.00    +0.000 HD
BRANCH  24  26
ATOM     26  C   UNL     1      44.213   3.308   9.599  0.00  0.00    +0.000 C 
BRANCH  26  27
ATOM     27  C   UNL     1      45.358   3.132   8.620  0.00  0.00    +0.000 A 
ATOM     28  N   UNL     1      45.903   4.269   8.092  0.00  0.00    +0.000 NA
ATOM     29  C   UNL     1      46.890   4.114   7.181  0.00  0.00    +0.000 A 
ATOM     30  C   UNL     1      47.381   2.883   6.772  0.00  0.00    +0.000 A 
ATOM     31  C   UNL     1      46.828   1.737   7.332  0.00  0.00    +0.000 A 
ATOM     32  C   UNL     1      45.805   1.864   8.265  0.00  0.00    +0.000 A 
ATOM     33  F   UNL     1      45.268   0.759   8.802  0.00  0.00    +0.000 F 
ENDBRANCH  26  27
ENDBRANCH  24  26
ENDBRANCH  23  24
ENDBRANCH   4  23
TORSDOF 8
ENDMDL
MODEL 5
REMARK VINA RESULT:    -6.973      2.780      3.783
REMARK INTER + INTRA:         -11.784
REMARK INTER:                 -10.466
REMARK INTRA:                  -1.318
REMARK UNBOUND:                -1.551
REMARK  Name = 
REMARK  9 active torsions:
REMARK  status: ('A' for Active; 'I' for Inactive)
REMARK    1  A    between atoms: C_1  and  O_2
REMARK    2  A    between atoms: O_2  and  C_3
REMARK    3  A    between atoms: C_10  and  C_11
REMARK    4  A    between atoms: N_13  and  C_14
REMARK    5  A    between atoms: C_14  and  C_15
REMARK    6  A    between atoms: C_18  and  C_19
REMARK    7  A    between atoms: C_19  and  N_20
REMARK    8  A    between atoms: N_20  and  C_21
REMARK    9  A    between atoms: C_21  and  C_22
REMARK                            x       y       z     vdW  Elec       q    Type
REMARK                         _______ _______ _______ _____ _____    ______ ____
ROOT
ATOM      1  C   UNL     1      45.954   7.332  12.311  0.00  0.00    +0.000 A 
ATOM      2  C   UNL     1      44.711   7.231  11.671  0.00  0.00    +0.000 A 
ATOM      3  C   UNL     1      44.108   5.982  11.474  0.00  0.00    +0.000 A 
ATOM      4  C   UNL     1      44.727   4.803  11.916  0.00  0.00    +0.000 A 
ATOM      5  C   UNL     1      45.960   4.908  12.575  0.00  0.00    +0.000 A 
ATOM      6  C   UNL     1      46.563   6.157  12.772  0.00  0.00    +0.000 A 
ENDROOT
BRANCH   1   7
ATOM      7  C   UNL     1      46.589   8.684  12.540  0.00  0.00    +0.000 C 
BRANCH   7  10
ATOM      8  C   UNL     1      48.879   9.401  11.952  0.00  0.00    +0.000 C 
ATOM      9  O   UNL     1      48.458  10.309  11.240  0.00  0.00    +0.000 OA
ATOM     10  N   UNL     1      48.026   8.569  12.619  0.00  0.00    +0.000 N 
ATOM     11  H   UNL     1      48.393   7.825  13.195  0.00  0.00    +0.000 HD
BRANCH   8  19
ATOM     12  C   UNL     1      50.789   8.129  14.519  0.00  0.00    +0.000 A 
ATOM     13  N   UNL     1      51.744   7.631  15.327  0.00  0.00    +0.000 NA
ATOM     14  C   UNL     1      53.001   7.614  14.874  0.00  0.00    +0.000 A 
ATOM     15  N   UNL     1      53.433   8.048  13.692  0.00  0.00    +0.000 NA
ATOM     16  C   UNL     1      52.446   8.525  12.914  0.00  0.00    +0.000 A 
ATOM     17  S   UNL     1      52.814   9.131  11.372  0.00  0.00    +0.000 S 
ATOM     18  C   UNL     1      51.179   9.486  11.066  0.00  0.00    +0.000 A 
ATOM     19  C   UNL     1      50.325   9.155  12.113  0.00  0.00    +0.000 A 
ATOM     20  C   UNL     1      51.091   8.596  13.226  0.00  0.00    +0.000 A 
BRANCH  12  22
ATOM     21  C   UNL     1      49.125   6.914  15.630  0.00  0.00    +0.000 C 
ATOM     22  O   UNL     1      49.489   8.126  14.977  0.00  0.00    +0.000 OA
ENDBRANCH  12  22
ENDBRANCH   8  19
ENDBRANCH   7  10
ENDBRANCH   1   7
BRANCH   4  23
ATOM     23  C   UNL     1      44.077   3.453  11.677  0.00  0.00    +0.000 C 
BRANCH  23  24
ATOM     24  N   UNL     1      44.971   2.581  10.925  0.00  0.00    +0.000 NA
ATOM     25  H   UNL     1      45.138   1.725  11.458  0.00  0.00    +0.000 HD
BRANCH  24  26
ATOM     26  C   UNL     1      44.423   2.181   9.623  0.00  0.00    +0.000 C 
BRANCH  26  27
ATOM     27  C   UNL     1      45.503   2.218   8.557  0.00  0.00    +0.000 A 
ATOM     28  N   UNL     1      46.123   1.036   8.262  0.00  0.00    +0.000 NA
ATOM     29  C   UNL     1      47.120   1.074   7.349  0.00  0.00    +0.000 A 
ATOM     30  C   UNL     1      47.531   2.228   6.698  0.00  0.00    +0.000 A 
ATOM     31  C   UNL     1      46.878   3.418   6.996  0.00  0.00    +0.000 A 
ATOM     32  C   UNL     1      45.854   3.412   7.937  0.00  0.00    +0.000 A 
ATOM     33  F   UNL     1      45.227   4.561   8.230  0.00  0.00    +0.000 F 
ENDBRANCH  26  27
ENDBRANCH  24  26
ENDBRANCH  23  24
ENDBRANCH   4  23
TORSDOF 8
ENDMDL
MODEL 6
REMARK VINA RESULT:    -6.937      1.821      2.282
REMARK INTER + INTRA:         -11.732
REMARK INTER:                 -10.748
REMARK INTRA:                  -0.984
REMARK UNBOUND:                -1.551
REMARK  Name = 
REMARK  9 active torsions:
REMARK  status: ('A' for Active; 'I' for Inactive)
REMARK    1  A    between atoms: C_1  and  O_2
REMARK    2  A    between atoms: O_2  and  C_3
REMARK    3  A    between atoms: C_10  and  C_11
REMARK    4  A    between atoms: N_13  and  C_14
REMARK    5  A    between atoms: C_14  and  C_15
REMARK    6  A    between atoms: C_18  and  C_19
REMARK    7  A    between atoms: C_19  and  N_20
REMARK    8  A    between atoms: N_20  and  C_21
REMARK    9  A    between atoms: C_21  and  C_22
REMARK                            x       y       z     vdW  Elec       q    Type
REMARK                         _______ _______ _______ _____ _____    ______ ____
ROOT
ATOM      1  C   UNL     1      46.135   7.115  12.830  0.00  0.00    +0.000 A 
ATOM      2  C   UNL     1      45.197   7.334  11.812  0.00  0.00    +0.000 A 
ATOM      3  C   UNL     1      44.492   6.265  11.247  0.00  0.00    +0.000 A 
ATOM      4  C   UNL     1      44.701   4.949  11.688  0.00  0.00    +0.000 A 
ATOM      5  C   UNL     1      45.622   4.733  12.721  0.00  0.00    +0.000 A 
ATOM      6  C   UNL     1      46.328   5.804  13.287  0.00  0.00    +0.000 A 
ENDROOT
BRANCH   1   7
ATOM      7  C   UNL     1      46.876   8.276  13.452  0.00  0.00    +0.000 C 
BRANCH   7  10
ATOM      8  C   UNL     1      48.641   8.274  15.180  0.00  0.00    +0.000 C 
ATOM      9  O   UNL     1      48.010   9.056  15.887  0.00  0.00    +0.000 OA
ATOM     10  N   UNL     1      48.150   7.848  13.980  0.00  0.00    +0.000 N 
ATOM     11  H   UNL     1      48.687   7.208  13.412  0.00  0.00    +0.000 HD
BRANCH   8  19
ATOM     12  C   UNL     1      49.675   5.468  16.887  0.00  0.00    +0.000 A 
ATOM     13  N   UNL     1      50.341   4.454  17.472  0.00  0.00    +0.000 NA
ATOM     14  C   UNL     1      51.674   4.516  17.505  0.00  0.00    +0.000 A 
ATOM     15  N   UNL     1      52.443   5.491  17.022  0.00  0.00    +0.000 NA
ATOM     16  C   UNL     1      51.740   6.475  16.437  0.00  0.00    +0.000 A 
ATOM     17  S   UNL     1      52.556   7.806  15.772  0.00  0.00    +0.000 S 
ATOM     18  C   UNL     1      51.095   8.514  15.267  0.00  0.00    +0.000 A 
ATOM     19  C   UNL     1      49.966   7.766  15.586  0.00  0.00    +0.000 A 
ATOM     20  C   UNL     1      50.356   6.552  16.303  0.00  0.00    +0.000 A 
BRANCH  12  22
ATOM     21  C   UNL     1      47.683   5.466  18.115  0.00  0.00    +0.000 C 
ATOM     22  O   UNL     1      48.300   5.394  16.833  0.00  0.00    +0.000 OA
ENDBRANCH  12  22
ENDBRANCH   8  19
ENDBRANCH   7  10
ENDBRANCH   1   7
BRANCH   4  23
ATOM     23  C   UNL     1      43.949   3.793  11.053  0.00  0.00    +0.000 C 
BRANCH  23  24
ATOM     24  N   UNL     1      44.868   2.718  10.700  0.00  0.00    +0.000 NA
ATOM     25  H   UNL     1      44.811   1.979  11.404  0.00  0.00    +0.000 HD
BRANCH  24  26
ATOM     26  C   UNL     1      44.564   2.104   9.401  0.00  0.00    +0.000 C 
BRANCH  26  27
ATOM     27  C   UNL     1      45.690   2.356   8.417  0.00  0.00    +0.000 A 
ATOM     28  N   UNL     1      45.920   3.654   8.057  0.00  0.00    +0.000 NA
ATOM     29  C   UNL     1      46.890   3.879   7.141  0.00  0.00    +0.000 A 
ATOM     30  C   UNL     1      47.661   2.878   6.569  0.00  0.00    +0.000 A 
ATOM     31  C   UNL     1      47.427   1.564   6.959  0.00  0.00    +0.000 A 
ATOM     32  C   UNL     1      46.430   1.302   7.893  0.00  0.00    +0.000 A 
ATOM     33  F   UNL     1      46.200   0.035   8.266  0.00  0.00    +0.000 F 
ENDBRANCH  26  27
ENDBRANCH  24  26
ENDBRANCH  23  24
ENDBRANCH   4  23
TORSDOF 8
ENDMDL
MODEL 7
REMARK VINA RESULT:    -6.881      4.875      9.277
REMARK INTER + INTRA:         -11.650
REMARK INTER:                 -10.634
REMARK INTRA:                  -1.016
REMARK UNBOUND:                -1.551
REMARK  Name = 
REMARK  9 active torsions:
REMARK  status: ('A' for Active; 'I' for Inactive)
REMARK    1  A    between atoms: C_1  and  O_2
REMARK    2  A    between atoms: O_2  and  C_3
REMARK    3  A    between atoms: C_10  and  C_11
REMARK    4  A    between atoms: N_13  and  C_14
REMARK    5  A    between atoms: C_14  and  C_15
REMARK    6  A    between atoms: C_18  and  C_19
REMARK    7  A    between atoms: C_19  and  N_20
REMARK    8  A    between atoms: N_20  and  C_21
REMARK    9  A    between atoms: C_21  and  C_22
REMARK                            x       y       z     vdW  Elec       q    Type
REMARK                         _______ _______ _______ _____ _____    ______ ____
ROOT
ATOM      1  C   UNL     1      48.600   3.407  17.162  0.00  0.00    +0.000 A 
ATOM      2  C   UNL     1      49.216   4.591  17.591  0.00  0.00    +0.000 A 
ATOM      3  C   UNL     1      50.585   4.622  17.880  0.00  0.00    +0.000 A 
ATOM      4  C   UNL     1      51.378   3.472  17.742  0.00  0.00    +0.000 A 
ATOM      5  C   UNL     1      50.767   2.294  17.292  0.00  0.00    +0.000 A 
ATOM      6  C   UNL     1      49.396   2.263  17.003  0.00  0.00    +0.000 A 
ENDROOT
BRANCH   1   7
ATOM      7  C   UNL     1      47.127   3.386  16.831  0.00  0.00    +0.000 C 
BRANCH   7  10
ATOM      8  C   UNL     1      46.872   4.201  14.513  0.00  0.00    +0.000 C 
ATOM      9  O   UNL     1      47.217   3.117  14.048  0.00  0.00    +0.000 OA
ATOM     10  N   UNL     1      46.803   4.405  15.862  0.00  0.00    +0.000 N 
ATOM     11  H   UNL     1      46.521   5.305  16.222  0.00  0.00    +0.000 HD
BRANCH   8  19
ATOM     12  C   UNL     1      44.068   5.019  12.692  0.00  0.00    +0.000 A 
ATOM     13  N   UNL     1      43.103   5.590  11.945  0.00  0.00    +0.000 NA
ATOM     14  C   UNL     1      43.366   6.770  11.378  0.00  0.00    +0.000 A 
ATOM     15  N   UNL     1      44.500   7.463  11.459  0.00  0.00    +0.000 NA
ATOM     16  C   UNL     1      45.430   6.863  12.222  0.00  0.00    +0.000 A 
ATOM     17  S   UNL     1      46.944   7.600  12.431  0.00  0.00    +0.000 S 
ATOM     18  C   UNL     1      47.476   6.338  13.439  0.00  0.00    +0.000 A 
ATOM     19  C   UNL     1      46.528   5.340  13.639  0.00  0.00    +0.000 A 
ATOM     20  C   UNL     1      45.309   5.650  12.894  0.00  0.00    +0.000 A 
BRANCH  12  22
ATOM     21  C   UNL     1      43.500   2.772  12.365  0.00  0.00    +0.000 C 
ATOM     22  O   UNL     1      43.789   3.812  13.295  0.00  0.00    +0.000 OA
ENDBRANCH  12  22
ENDBRANCH   8  19
ENDBRANCH   7  10
ENDBRANCH   1   7
BRANCH   4  23
ATOM     23  C   UNL     1      52.857   3.509  18.079  0.00  0.00    +0.000 C 
BRANCH  23  24
ATOM     24  N   UNL     1      53.156   2.589  19.170  0.00  0.00    +0.000 NA
ATOM     25  H   UNL     1      52.545   1.771  19.101  0.00  0.00    +0.000 HD
BRANCH  24  26
ATOM     26  C   UNL     1      54.540   2.099  19.147  0.00  0.00    +0.000 C 
BRANCH  26  27
ATOM     27  C   UNL     1      54.622   0.770  18.420  0.00  0.00    +0.000 A 
ATOM     28  N   UNL     1      54.387  -0.356  19.158  0.00  0.00    +0.000 NA
ATOM     29  C   UNL     1      54.509  -1.545  18.525  0.00  0.00    +0.000 A 
ATOM     30  C   UNL     1      54.841  -1.679  17.186  0.00  0.00    +0.000 A 
ATOM     31  C   UNL     1      55.060  -0.523  16.445  0.00  0.00    +0.000 A 
ATOM     32  C   UNL     1      54.950   0.714  17.070  0.00  0.00    +0.000 A 
ATOM     33  F   UNL     1      55.166   1.829  16.357  0.00  0.00    +0.000 F 
ENDBRANCH  26  27
ENDBRANCH  24  26
ENDBRANCH  23  24
ENDBRANCH   4  23
TORSDOF 8
ENDMDL
MODEL 8
REMARK VINA RESULT:    -6.859      2.454      3.702
REMARK INTER + INTRA:         -11.618
REMARK INTER:                 -10.383
REMARK INTRA:                  -1.236
REMARK UNBOUND:                -1.551
REMARK  Name = 
REMARK  9 active torsions:
REMARK  status: ('A' for Active; 'I' for Inactive)
REMARK    1  A    between atoms: C_1  and  O_2
REMARK    2  A    between atoms: O_2  and  C_3
REMARK    3  A    between atoms: C_10  and  C_11
REMARK    4  A    between atoms: N_13  and  C_14
REMARK    5  A    between atoms: C_14  and  C_15
REMARK    6  A    between atoms: C_18  and  C_19
REMARK    7  A    between atoms: C_19  and  N_20
REMARK    8  A    between atoms: N_20  and  C_21
REMARK    9  A    between atoms: C_21  and  C_22
REMARK                            x       y       z     vdW  Elec       q    Type
REMARK                         _______ _______ _______ _____ _____    ______ ____
ROOT
ATOM      1  C   UNL     1      46.906   4.384  14.232  0.00  0.00    +0.000 A 
ATOM      2  C   UNL     1      46.189   3.458  13.463  0.00  0.00    +0.000 A 
ATOM      3  C   UNL     1      45.693   3.807  12.201  0.00  0.00    +0.000 A 
ATOM      4  C   UNL     1      45.903   5.090  11.672  0.00  0.00    +0.000 A 
ATOM      5  C   UNL     1      46.639   6.009  12.432  0.00  0.00    +0.000 A 
ATOM      6  C   UNL     1      47.136   5.659  13.695  0.00  0.00    +0.000 A 
ENDROOT
BRANCH   1   7
ATOM      7  C   UNL     1      47.458   3.995  15.583  0.00  0.00    +0.000 C 
BRANCH   7  10
ATOM      8  C   UNL     1      48.631   5.638  17.007  0.00  0.00    +0.000 C 
ATOM      9  O   UNL     1      49.727   5.148  16.745  0.00  0.00    +0.000 OA
ATOM     10  N   UNL     1      47.481   5.129  16.475  0.00  0.00    +0.000 N 
ATOM     11  H   UNL     1      46.590   5.545  16.708  0.00  0.00    +0.000 HD
BRANCH   8  19
ATOM     12  C   UNL     1      48.555   9.044  16.511  0.00  0.00    +0.000 A 
ATOM     13  N   UNL     1      48.450  10.384  16.593  0.00  0.00    +0.000 NA
ATOM     14  C   UNL     1      48.275  10.926  17.801  0.00  0.00    +0.000 A 
ATOM     15  N   UNL     1      48.198  10.282  18.965  0.00  0.00    +0.000 NA
ATOM     16  C   UNL     1      48.297   8.948  18.836  0.00  0.00    +0.000 A 
ATOM     17  S   UNL     1      48.227   7.966  20.217  0.00  0.00    +0.000 S 
ATOM     18  C   UNL     1      48.393   6.554  19.285  0.00  0.00    +0.000 A 
ATOM     19  C   UNL     1      48.502   6.792  17.918  0.00  0.00    +0.000 A 
ATOM     20  C   UNL     1      48.460   8.230  17.655  0.00  0.00    +0.000 A 
BRANCH  12  22
ATOM     21  C   UNL     1      50.078   8.331  14.884  0.00  0.00    +0.000 C 
ATOM     22  O   UNL     1      48.714   8.483  15.262  0.00  0.00    +0.000 OA
ENDBRANCH  12  22
ENDBRANCH   8  19
ENDBRANCH   7  10
ENDBRANCH   1   7
BRANCH   4  23
ATOM     23  C   UNL     1      45.341   5.467  10.313  0.00  0.00    +0.000 C 
BRANCH  23  24
ATOM     24  N   UNL     1      44.304   4.525   9.910  0.00  0.00    +0.000 NA
ATOM     25  H   UNL     1      43.388   4.898  10.171  0.00  0.00    +0.000 HD
BRANCH  24  26
ATOM     26  C   UNL     1      44.278   4.283   8.462  0.00  0.00    +0.000 C 
BRANCH  26  27
ATOM     27  C   UNL     1      45.413   3.363   8.056  0.00  0.00    +0.000 A 
ATOM     28  N   UNL     1      46.391   3.896   7.266  0.00  0.00    +0.000 NA
ATOM     29  C   UNL     1      47.379   3.065   6.860  0.00  0.00    +0.000 A 
ATOM     30  C   UNL     1      47.456   1.726   7.209  0.00  0.00    +0.000 A 
ATOM     31  C   UNL     1      46.462   1.202   8.028  0.00  0.00    +0.000 A 
ATOM     32  C   UNL     1      45.429   2.030   8.455  0.00  0.00    +0.000 A 
ATOM     33  F   UNL     1      44.467   1.525   9.240  0.00  0.00    +0.000 F 
ENDBRANCH  26  27
ENDBRANCH  24  26
ENDBRANCH  23  24
ENDBRANCH   4  23
TORSDOF 8
ENDMDL
MODEL 9
REMARK VINA RESULT:    -6.788      3.249      5.798
REMARK INTER + INTRA:         -11.513
REMARK INTER:                 -10.055
REMARK INTRA:                  -1.457
REMARK UNBOUND:                -1.551
REMARK  Name = 
REMARK  9 active torsions:
REMARK  status: ('A' for Active; 'I' for Inactive)
REMARK    1  A    between atoms: C_1  and  O_2
REMARK    2  A    between atoms: O_2  and  C_3
REMARK    3  A    between atoms: C_10  and  C_11
REMARK    4  A    between atoms: N_13  and  C_14
REMARK    5  A    between atoms: C_14  and  C_15
REMARK    6  A    between atoms: C_18  and  C_19
REMARK    7  A    between atoms: C_19  and  N_20
REMARK    8  A    between atoms: N_20  and  C_21
REMARK    9  A    between atoms: C_21  and  C_22
REMARK                            x       y       z     vdW  Elec       q    Type
REMARK                         _______ _______ _______ _____ _____    ______ ____
ROOT
ATOM      1  C   UNL     1      47.922   4.176  16.565  0.00  0.00    +0.000 A 
ATOM      2  C   UNL     1      47.173   3.767  15.453  0.00  0.00    +0.000 A 
ATOM      3  C   UNL     1      47.007   4.615  14.352  0.00  0.00    +0.000 A 
ATOM      4  C   UNL     1      47.589   5.892  14.329  0.00  0.00    +0.000 A 
ATOM      5  C   UNL     1      48.356   6.292  15.431  0.00  0.00    +0.000 A 
ATOM      6  C   UNL     1      48.523   5.443  16.534  0.00  0.00    +0.000 A 
ENDROOT
BRANCH   1   7
ATOM      7  C   UNL     1      48.116   3.249  17.742  0.00  0.00    +0.000 C 
BRANCH   7  10
ATOM      8  C   UNL     1      50.286   2.206  17.185  0.00  0.00    +0.000 C 
ATOM      9  O   UNL     1      49.811   1.638  16.205  0.00  0.00    +0.000 OA
ATOM     10  N   UNL     1      49.520   3.009  17.980  0.00  0.00    +0.000 N 
ATOM     11  H   UNL     1      49.930   3.463  18.784  0.00  0.00    +0.000 HD
BRANCH   8  19
ATOM     12  C   UNL     1      52.853   4.424  17.770  0.00  0.00    +0.000 A 
ATOM     13  N   UNL     1      53.995   5.060  18.093  0.00  0.00    +0.000 NA
ATOM     14  C   UNL     1      55.051   4.317  18.435  0.00  0.00    +0.000 A 
ATOM     15  N   UNL     1      55.111   2.988  18.489  0.00  0.00    +0.000 NA
ATOM     16  C   UNL     1      53.948   2.394  18.170  0.00  0.00    +0.000 A 
ATOM     17  S   UNL     1      53.842   0.701  18.177  0.00  0.00    +0.000 S 
ATOM     18  C   UNL     1      52.204   0.751  17.723  0.00  0.00    +0.000 A 
ATOM     19  C   UNL     1      51.704   2.039  17.560  0.00  0.00    +0.000 A 
ATOM     20  C   UNL     1      52.757   3.021  17.812  0.00  0.00    +0.000 A 
BRANCH  12  22
ATOM     21  C   UNL     1      52.078   6.295  16.596  0.00  0.00    +0.000 C 
ATOM     22  O   UNL     1      51.757   5.192  17.437  0.00  0.00    +0.000 OA
ENDBRANCH  12  22
ENDBRANCH   8  19
ENDBRANCH   7  10
ENDBRANCH   1   7
BRANCH   4  23
ATOM     23  C   UNL     1      47.384   6.813  13.140  0.00  0.00    +0.000 C 
BRANCH  23  24
ATOM     24  N   UNL     1      46.150   7.574  13.290  0.00  0.00    +0.000 NA
ATOM     25  H   UNL     1      46.373   8.567  13.389  0.00  0.00    +0.000 HD
BRANCH  24  26
ATOM     26  C   UNL     1      45.250   7.444  12.136  0.00  0.00    +0.000 C 
BRANCH  26  27
ATOM     27  C   UNL     1      44.649   6.052  12.084  0.00  0.00    +0.000 A 
ATOM     28  N   UNL     1      43.790   5.710  13.090  0.00  0.00    +0.000 NA
ATOM     29  C   UNL     1      43.291   4.453  13.075  0.00  0.00    +0.000 A 
ATOM     30  C   UNL     1      43.590   3.513  12.101  0.00  0.00    +0.000 A 
ATOM     31  C   UNL     1      44.452   3.882  11.075  0.00  0.00    +0.000 A 
ATOM     32  C   UNL     1      44.988   5.166  11.068  0.00  0.00    +0.000 A 
ATOM     33  F   UNL     1      45.823   5.521  10.082  0.00  0.00    +0.000 F 
ENDBRANCH  26  27
ENDBRANCH  24  26
ENDBRANCH  23  24
ENDBRANCH   4  23
TORSDOF 8
ENDMDL
