MODEL 1
REMARK VINA RESULT:    -8.514      0.000      0.000
REMARK INTER + INTRA:         -13.239
REMARK INTER:                 -11.998
REMARK INTRA:                  -1.241
REMARK UNBOUND:                -1.241
REMARK  Name = 
REMARK  9 active torsions:
REMARK  status: ('A' for Active; 'I' for Inactive)
REMARK    1  A    between atoms: C_1  and  N_2
REMARK    2  A    between atoms: N_2  and  C_3
REMARK    3  A    between atoms: N_2  and  C_11
REMARK    4  A    between atoms: C_3  and  C_4
REMARK    5  A    between atoms: C_11  and  C_12
REMARK    6  A    between atoms: C_15  and  C_16
REMARK    7  A    between atoms: C_16  and  N_17
REMARK    8  A    between atoms: C_18  and  C_20
REMARK    9  A    between atoms: N_26  and  C_27
REMARK                            x       y       z     vdW  Elec       q    Type
REMARK                         _______ _______ _______ _____ _____    ______ ____
ROOT
ATOM      1  C   UNL     1      44.919   5.958  11.264  0.00  0.00    +0.000 A 
ATOM      2  C   UNL     1      44.487   7.278  11.454  0.00  0.00    +0.000 A 
ATOM      3  C   UNL     1      45.282   8.197  12.154  0.00  0.00    +0.000 A 
ATOM      4  C   UNL     1      46.534   7.822  12.665  0.00  0.00    +0.000 A 
ATOM      5  C   UNL     1      46.965   6.504  12.472  0.00  0.00    +0.000 A 
ATOM      6  C   UNL     1      46.169   5.585  11.777  0.00  0.00    +0.000 A 
ENDROOT
BRANCH   1   7
ATOM      7  C   UNL     1      44.023   4.921  10.604  0.00  0.00    +0.000 C 
BRANCH   7   9
ATOM      8  C   UNL     1      43.723   2.897  11.906  0.00  0.00    +0.000 C 
ATOM      9  N   UNL     1      44.442   3.513  10.782  0.00  0.00    +0.000 NA
BRANCH   9  10
ATOM     10  C   UNL     1      44.164   2.722   9.560  0.00  0.00    +0.000 C 
BRANCH  10  11
ATOM     11  C   UNL     1      45.340   2.620   8.607  0.00  0.00    +0.000 A 
ATOM     12  C   UNL     1      45.794   3.754   7.913  0.00  0.00    +0.000 A 
ATOM     13  C   UNL     1      46.830   3.645   6.984  0.00  0.00    +0.000 A 
ATOM     14  C   UNL     1      47.419   2.407   6.756  0.00  0.00    +0.000 A 
ATOM     15  F   UNL     1      48.392   2.296   5.841  0.00  0.00    +0.000 F 
ATOM     16  C   UNL     1      47.009   1.279   7.457  0.00  0.00    +0.000 A 
ATOM     17  C   UNL     1      45.975   1.385   8.388  0.00  0.00    +0.000 A 
ENDBRANCH  10  11
ENDBRANCH   9  10
ENDBRANCH   7   9
ENDBRANCH   1   7
BRANCH   4  18
ATOM     18  C   UNL     1      47.369   8.795  13.465  0.00  0.00    +0.000 C 
BRANCH  18  19
ATOM     19  N   UNL     1      47.648   8.272  14.782  0.00  0.00    +0.000 N 
ATOM     20  C   UNL     1      48.917   8.252  15.305  0.00  0.00    +0.000 C 
ATOM     21  O   UNL     1      49.906   8.539  14.635  0.00  0.00    +0.000 OA
ATOM     22  H   UNL     1      46.859   8.252  15.417  0.00  0.00    +0.000 HD
BRANCH  20  23
ATOM     23  C   UNL     1      49.033   7.820  16.705  0.00  0.00    +0.000 A 
ATOM     24  C   UNL     1      49.365   8.737  17.693  0.00  0.00    +0.000 A 
ATOM     25  S   UNL     1      49.504   8.045  19.247  0.00  0.00    +0.000 S 
ATOM     26  C   UNL     1      49.077   6.506  18.663  0.00  0.00    +0.000 A 
ATOM     27  N   UNL     1      48.992   5.436  19.499  0.00  0.00    +0.000 NA
ATOM     28  C   UNL     1      48.633   4.334  18.922  0.00  0.00    +0.000 A 
ATOM     29  N   UNL     1      48.345   4.188  17.583  0.00  0.00    +0.000 N 
ATOM     30  C   UNL     1      47.960   2.905  17.039  0.00  0.00    +0.000 C 
ATOM     31  C   UNL     1      48.425   5.260  16.702  0.00  0.00    +0.000 A 
ATOM     32  O   UNL     1      48.177   5.151  15.505  0.00  0.00    +0.000 OA
ATOM     33  C   UNL     1      48.838   6.517  17.303  0.00  0.00    +0.000 A 
ENDBRANCH  20  23
ENDBRANCH  18  19
ENDBRANCH   4  18
TORSDOF 7
ENDMDL
MODEL 2
REMARK VINA RESULT:    -7.974      1.654      1.798
REMARK INTER + INTRA:         -12.478
REMARK INTER:                 -11.124
REMARK INTRA:                  -1.354
REMARK UNBOUND:                -1.241
REMARK  Name = 
REMARK  9 active torsions:
REMARK  status: ('A' for Active; 'I' for Inactive)
REMARK    1  A    between atoms: C_1  and  N_2
REMARK    2  A    between atoms: N_2  and  C_3
REMARK    3  A    between atoms: N_2  and  C_11
REMARK    4  A    between atoms: C_3  and  C_4
REMARK    5  A    between atoms: C_11  and  C_12
REMARK    6  A    between atoms: C_15  and  C_16
REMARK    7  A    between atoms: C_16  and  N_17
REMARK    8  A    between atoms: C_18  and  C_20
REMARK    9  A    between atoms: N_26  and  C_27
REMARK                            x       y       z     vdW  Elec       q    Type
REMARK                         _______ _______ _______ _____ _____    ______ ____
ROOT
ATOM      1  C   UNL     1      45.509   6.620  11.922  0.00  0.00    +0.000 A 
ATOM      2  C   UNL     1      45.641   8.014  11.994  0.00  0.00    +0.000 A 
ATOM      3  C   UNL     1      46.844   8.597  12.416  0.00  0.00    +0.000 A 
ATOM      4  C   UNL     1      47.948   7.801  12.761  0.00  0.00    +0.000 A 
ATOM      5  C   UNL     1      47.814   6.409  12.687  0.00  0.00    +0.000 A 
ATOM      6  C   UNL     1      46.611   5.827  12.269  0.00  0.00    +0.000 A 
ENDROOT
BRANCH   1   7
ATOM      7  C   UNL     1      44.180   5.970  11.573  0.00  0.00    +0.000 C 
BRANCH   7   9
ATOM      8  C   UNL     1      43.315   3.749  12.018  0.00  0.00    +0.000 C 
ATOM      9  N   UNL     1      44.248   4.539  11.203  0.00  0.00    +0.000 NA
BRANCH   9  10
ATOM     10  C   UNL     1      43.900   4.345   9.776  0.00  0.00    +0.000 C 
BRANCH  10  11
ATOM     11  C   UNL     1      44.947   3.587   8.982  0.00  0.00    +0.000 A 
ATOM     12  C   UNL     1      45.792   4.265   8.087  0.00  0.00    +0.000 A 
ATOM     13  C   UNL     1      46.706   3.557   7.305  0.00  0.00    +0.000 A 
ATOM     14  C   UNL     1      46.784   2.175   7.424  0.00  0.00    +0.000 A 
ATOM     15  F   UNL     1      47.639   1.492   6.650  0.00  0.00    +0.000 F 
ATOM     16  C   UNL     1      45.982   1.487   8.328  0.00  0.00    +0.000 A 
ATOM     17  C   UNL     1      45.069   2.193   9.113  0.00  0.00    +0.000 A 
ENDBRANCH  10  11
ENDBRANCH   9  10
ENDBRANCH   7   9
ENDBRANCH   1   7
BRANCH   4  18
ATOM     18  C   UNL     1      49.229   8.425  13.266  0.00  0.00    +0.000 C 
BRANCH  18  19
ATOM     19  N   UNL     1      49.944   7.509  14.122  0.00  0.00    +0.000 N 
ATOM     20  C   UNL     1      50.170   7.776  15.450  0.00  0.00    +0.000 C 
ATOM     21  O   UNL     1      49.909   8.867  15.952  0.00  0.00    +0.000 OA
ATOM     22  H   UNL     1      49.960   6.545  13.810  0.00  0.00    +0.000 HD
BRANCH  20  23
ATOM     23  C   UNL     1      50.789   6.697  16.232  0.00  0.00    +0.000 A 
ATOM     24  C   UNL     1      52.133   6.764  16.573  0.00  0.00    +0.000 A 
ATOM     25  S   UNL     1      52.687   5.399  17.436  0.00  0.00    +0.000 S 
ATOM     26  C   UNL     1      51.139   4.694  17.427  0.00  0.00    +0.000 A 
ATOM     27  N   UNL     1      50.911   3.494  18.024  0.00  0.00    +0.000 NA
ATOM     28  C   UNL     1      49.683   3.090  17.961  0.00  0.00    +0.000 A 
ATOM     29  N   UNL     1      48.647   3.768  17.358  0.00  0.00    +0.000 N 
ATOM     30  C   UNL     1      47.308   3.222  17.338  0.00  0.00    +0.000 C 
ATOM     31  C   UNL     1      48.847   4.996  16.737  0.00  0.00    +0.000 A 
ATOM     32  O   UNL     1      47.939   5.615  16.190  0.00  0.00    +0.000 OA
ATOM     33  C   UNL     1      50.215   5.483  16.771  0.00  0.00    +0.000 A 
ENDBRANCH  20  23
ENDBRANCH  18  19
ENDBRANCH   4  18
TORSDOF 7
ENDMDL
MODEL 3
REMARK VINA RESULT:    -7.598      3.779      8.771
REMARK INTER + INTRA:         -11.949
REMARK INTER:                 -10.416
REMARK INTRA:                  -1.532
REMARK UNBOUND:                -1.241
REMARK  Name = 
REMARK  9 active torsions:
REMARK  status: ('A' for Active; 'I' for Inactive)
REMARK    1  A    between atoms: C_1  and  N_2
REMARK    2  A    between atoms: N_2  and  C_3
REMARK    3  A    between atoms: N_2  and  C_11
REMARK    4  A    between atoms: C_3  and  C_4
REMARK    5  A    between atoms: C_11  and  C_12
REMARK    6  A    between atoms: C_15  and  C_16
REMARK    7  A    between atoms: C_16  and  N_17
REMARK    8  A    between atoms: C_18  and  C_20
REMARK    9  A    between atoms: N_26  and  C_27
REMARK                            x       y       z     vdW  Elec       q    Type
REMARK                         _______ _______ _______ _____ _____    ______ ____
ROOT
ATOM      1  C   UNL     1      49.984   8.031  14.812  0.00  0.00    +0.000 A 
ATOM      2  C   UNL     1      50.293   7.675  13.492  0.00  0.00    +0.000 A 
ATOM      3  C   UNL     1      49.304   7.690  12.497  0.00  0.00    +0.000 A 
ATOM      4  C   UNL     1      47.989   8.077  12.796  0.00  0.00    +0.000 A 
ATOM      5  C   UNL     1      47.683   8.434  14.115  0.00  0.00    +0.000 A 
ATOM      6  C   UNL     1      48.669   8.415  15.109  0.00  0.00    +0.000 A 
ENDROOT
BRANCH   1   7
ATOM      7  C   UNL     1      51.015   7.915  15.923  0.00  0.00    +0.000 C 
BRANCH   7   9
ATOM      8  C   UNL     1      52.836   6.384  16.395  0.00  0.00    +0.000 C 
ATOM      9  N   UNL     1      51.376   6.535  16.315  0.00  0.00    +0.000 NA
BRANCH   9  10
ATOM     10  C   UNL     1      50.799   6.193  17.637  0.00  0.00    +0.000 C 
BRANCH  10  11
ATOM     11  C   UNL     1      49.690   5.161  17.580  0.00  0.00    +0.000 A 
ATOM     12  C   UNL     1      48.343   5.559  17.610  0.00  0.00    +0.000 A 
ATOM     13  C   UNL     1      47.324   4.606  17.628  0.00  0.00    +0.000 A 
ATOM     14  C   UNL     1      47.650   3.255  17.607  0.00  0.00    +0.000 A 
ATOM     15  F   UNL     1      46.672   2.339  17.657  0.00  0.00    +0.000 F 
ATOM     16  C   UNL     1      48.974   2.838  17.541  0.00  0.00    +0.000 A 
ATOM     17  C   UNL     1      49.994   3.789  17.520  0.00  0.00    +0.000 A 
ENDBRANCH  10  11
ENDBRANCH   9  10
ENDBRANCH   7   9
ENDBRANCH   1   7
BRANCH   4  18
ATOM     18  C   UNL     1      46.910   8.044  11.738  0.00  0.00    +0.000 C 
BRANCH  18  19
ATOM     19  N   UNL     1      46.344   6.721  11.622  0.00  0.00    +0.000 N 
ATOM     20  C   UNL     1      45.001   6.518  11.419  0.00  0.00    +0.000 C 
ATOM     21  O   UNL     1      44.185   7.435  11.469  0.00  0.00    +0.000 OA
ATOM     22  H   UNL     1      46.993   5.993  11.351  0.00  0.00    +0.000 HD
BRANCH  20  23
ATOM     23  C   UNL     1      44.585   5.128  11.183  0.00  0.00    +0.000 A 
ATOM     24  C   UNL     1      43.741   4.490  12.083  0.00  0.00    +0.000 A 
ATOM     25  S   UNL     1      43.408   2.867  11.672  0.00  0.00    +0.000 S 
ATOM     26  C   UNL     1      44.339   2.976  10.251  0.00  0.00    +0.000 A 
ATOM     27  N   UNL     1      44.463   1.914   9.411  0.00  0.00    +0.000 NA
ATOM     28  C   UNL     1      45.179   2.147   8.358  0.00  0.00    +0.000 A 
ATOM     29  N   UNL     1      45.790   3.343   8.053  0.00  0.00    +0.000 N 
ATOM     30  C   UNL     1      46.577   3.494   6.850  0.00  0.00    +0.000 C 
ATOM     31  C   UNL     1      45.685   4.447   8.893  0.00  0.00    +0.000 A 
ATOM     32  O   UNL     1      46.224   5.521   8.642  0.00  0.00    +0.000 OA
ATOM     33  C   UNL     1      44.900   4.228  10.096  0.00  0.00    +0.000 A 
ENDBRANCH  20  23
ENDBRANCH  18  19
ENDBRANCH   4  18
TORSDOF 7
ENDMDL
MODEL 4
REMARK VINA RESULT:    -7.548      4.653      6.261
REMARK INTER + INTRA:         -11.879
REMARK INTER:                 -10.512
REMARK INTRA:                  -1.366
REMARK UNBOUND:                -1.241
REMARK  Name = 
REMARK  9 active torsions:
REMARK  status: ('A' for Active; 'I' for Inactive)
REMARK    1  A    between atoms: C_1  and  N_2
REMARK    2  A    between atoms: N_2  and  C_3
REMARK    3  A    between atoms: N_2  and  C_11
REMARK    4  A    between atoms: C_3  and  C_4
REMARK    5  A    between atoms: C_11  and  C_12
REMARK    6  A    between atoms: C_15  and  C_16
REMARK    7  A    between atoms: C_16  and  N_17
REMARK    8  A    between atoms: C_18  and  C_20
REMARK    9  A    between atoms: N_26  and  C_27
REMARK                            x       y       z     vdW  Elec       q    Type
REMARK                         _______ _______ _______ _____ _____    ______ ____
ROOT
ATOM      1  C   UNL     1      45.653   5.732  12.099  0.00  0.00    +0.000 A 
ATOM      2  C   UNL     1      46.279   5.419  13.314  0.00  0.00    +0.000 A 
ATOM      3  C   UNL     1      47.557   5.917  13.609  0.00  0.00    +0.000 A 
ATOM      4  C   UNL     1      48.230   6.752  12.704  0.00  0.00    +0.000 A 
ATOM      5  C   UNL     1      47.602   7.065  11.492  0.00  0.00    +0.000 A 
ATOM      6  C   UNL     1      46.328   6.565  11.196  0.00  0.00    +0.000 A 
ENDROOT
BRANCH   1   7
ATOM      7  C   UNL     1      44.318   5.114  11.717  0.00  0.00    +0.000 C 
BRANCH   7   9
ATOM      8  C   UNL     1      43.444   2.851  11.728  0.00  0.00    +0.000 C 
ATOM      9  N   UNL     1      44.392   3.776  11.089  0.00  0.00    +0.000 NA
BRANCH   9  10
ATOM     10  C   UNL     1      44.068   3.852   9.645  0.00  0.00    +0.000 C 
BRANCH  10  11
ATOM     11  C   UNL     1      45.133   3.261   8.741  0.00  0.00    +0.000 A 
ATOM     12  C   UNL     1      45.405   1.883   8.765  0.00  0.00    +0.000 A 
ATOM     13  C   UNL     1      46.433   1.351   7.985  0.00  0.00    +0.000 A 
ATOM     14  C   UNL     1      47.183   2.194   7.174  0.00  0.00    +0.000 A 
ATOM     15  F   UNL     1      48.192   1.688   6.450  0.00  0.00    +0.000 F 
ATOM     16  C   UNL     1      46.909   3.555   7.107  0.00  0.00    +0.000 A 
ATOM     17  C   UNL     1      45.881   4.089   7.884  0.00  0.00    +0.000 A 
ENDBRANCH  10  11
ENDBRANCH   9  10
ENDBRANCH   7   9
ENDBRANCH   1   7
BRANCH   4  18
ATOM     18  C   UNL     1      49.628   7.246  12.996  0.00  0.00    +0.000 C 
BRANCH  18  19
ATOM     19  N   UNL     1      50.179   7.934  11.853  0.00  0.00    +0.000 N 
ATOM     20  C   UNL     1      51.233   8.808  11.966  0.00  0.00    +0.000 C 
ATOM     21  O   UNL     1      51.673   9.166  13.056  0.00  0.00    +0.000 OA
ATOM     22  H   UNL     1      50.003   7.498  10.956  0.00  0.00    +0.000 HD
BRANCH  20  23
ATOM     23  C   UNL     1      51.779   9.329  10.705  0.00  0.00    +0.000 A 
ATOM     24  C   UNL     1      51.726  10.689  10.430  0.00  0.00    +0.000 A 
ATOM     25  S   UNL     1      52.361  11.102   8.901  0.00  0.00    +0.000 S 
ATOM     26  C   UNL     1      52.775   9.485   8.573  0.00  0.00    +0.000 A 
ATOM     27  N   UNL     1      53.383   9.139   7.407  0.00  0.00    +0.000 NA
ATOM     28  C   UNL     1      53.663   7.880   7.302  0.00  0.00    +0.000 A 
ATOM     29  N   UNL     1      53.396   6.919   8.253  0.00  0.00    +0.000 N 
ATOM     30  C   UNL     1      53.744   5.533   8.032  0.00  0.00    +0.000 C 
ATOM     31  C   UNL     1      52.774   7.239   9.455  0.00  0.00    +0.000 A 
ATOM     32  O   UNL     1      52.525   6.399  10.313  0.00  0.00    +0.000 OA
ATOM     33  C   UNL     1      52.430   8.642   9.611  0.00  0.00    +0.000 A 
ENDBRANCH  20  23
ENDBRANCH  18  19
ENDBRANCH   4  18
TORSDOF 7
ENDMDL
MODEL 5
REMARK VINA RESULT:    -7.274      3.639      5.919
REMARK INTER + INTRA:         -11.491
REMARK INTER:                 -10.096
REMARK INTRA:                  -1.395
REMARK UNBOUND:                -1.241
REMARK  Name = 
REMARK  9 active torsions:
REMARK  status: ('A' for Active; 'I' for Inactive)
REMARK    1  A    between atoms: C_1  and  N_2
REMARK    2  A    between atoms: N_2  and  C_3
REMARK    3  A    between atoms: N_2  and  C_11
REMARK    4  A    between atoms: C_3  and  C_4
REMARK    5  A    between atoms: C_11  and  C_12
REMARK    6  A    between atoms: C_15  and  C_16
REMARK    7  A    between atoms: C_16  and  N_17
REMARK    8  A    between atoms: C_18  and  C_20
REMARK    9  A    between atoms: N_26  and  C_27
REMARK                            x       y       z     vdW  Elec       q    Type
REMARK                         _______ _______ _______ _____ _____    ______ ____
ROOT
ATOM      1  C   UNL     1      47.595   5.779  14.329  0.00  0.00    +0.000 A 
ATOM      2  C   UNL     1      47.021   4.501  14.312  0.00  0.00    +0.000 A 
ATOM      3  C   UNL     1      47.130   3.653  15.424  0.00  0.00    +0.000 A 
ATOM      4  C   UNL     1      47.800   4.071  16.585  0.00  0.00    +0.000 A 
ATOM      5  C   UNL     1      48.370   5.349  16.600  0.00  0.00    +0.000 A 
ATOM      6  C   UNL     1      48.266   6.194  15.489  0.00  0.00    +0.000 A 
ENDROOT
BRANCH   1   7
ATOM      7  C   UNL     1      47.582   6.667  13.095  0.00  0.00    +0.000 C 
BRANCH   7   9
ATOM      8  C   UNL     1      46.886   8.984  12.923  0.00  0.00    +0.000 C 
ATOM      9  N   UNL     1      46.430   7.588  12.985  0.00  0.00    +0.000 NA
BRANCH   9  10
ATOM     10  C   UNL     1      45.639   7.301  11.765  0.00  0.00    +0.000 C 
BRANCH  10  11
ATOM     11  C   UNL     1      44.946   5.952  11.780  0.00  0.00    +0.000 A 
ATOM     12  C   UNL     1      45.208   5.005  10.776  0.00  0.00    +0.000 A 
ATOM     13  C   UNL     1      44.517   3.792  10.752  0.00  0.00    +0.000 A 
ATOM     14  C   UNL     1      43.573   3.521  11.735  0.00  0.00    +0.000 A 
ATOM     15  F   UNL     1      42.886   2.370  11.693  0.00  0.00    +0.000 F 
ATOM     16  C   UNL     1      43.323   4.428  12.758  0.00  0.00    +0.000 A 
ATOM     17  C   UNL     1      44.014   5.641  12.786  0.00  0.00    +0.000 A 
ENDBRANCH  10  11
ENDBRANCH   9  10
ENDBRANCH   7   9
ENDBRANCH   1   7
BRANCH   4  18
ATOM     18  C   UNL     1      47.964   3.140  17.765  0.00  0.00    +0.000 C 
BRANCH  18  19
ATOM     19  N   UNL     1      49.360   2.899  18.039  0.00  0.00    +0.000 N 
ATOM     20  C   UNL     1      50.166   2.210  17.168  0.00  0.00    +0.000 C 
ATOM     21  O   UNL     1      49.720   1.634  16.178  0.00  0.00    +0.000 OA
ATOM     22  H   UNL     1      49.789   3.537  18.699  0.00  0.00    +0.000 HD
BRANCH  20  23
ATOM     23  C   UNL     1      51.595   2.158  17.510  0.00  0.00    +0.000 A 
ATOM     24  C   UNL     1      52.239   0.935  17.636  0.00  0.00    +0.000 A 
ATOM     25  S   UNL     1      53.880   1.071  18.086  0.00  0.00    +0.000 S 
ATOM     26  C   UNL     1      53.800   2.771  18.080  0.00  0.00    +0.000 A 
ATOM     27  N   UNL     1      54.892   3.526  18.372  0.00  0.00    +0.000 NA
ATOM     28  C   UNL     1      54.693   4.803  18.305  0.00  0.00    +0.000 A 
ATOM     29  N   UNL     1      53.503   5.411  17.971  0.00  0.00    +0.000 N 
ATOM     30  C   UNL     1      53.387   6.852  17.934  0.00  0.00    +0.000 C 
ATOM     31  C   UNL     1      52.367   4.668  17.670  0.00  0.00    +0.000 A 
ATOM     32  O   UNL     1      51.296   5.190  17.374  0.00  0.00    +0.000 OA
ATOM     33  C   UNL     1      52.540   3.228  17.746  0.00  0.00    +0.000 A 
ENDBRANCH  20  23
ENDBRANCH  18  19
ENDBRANCH   4  18
TORSDOF 7
ENDMDL
MODEL 6
REMARK VINA RESULT:    -7.209      2.566      3.203
REMARK INTER + INTRA:         -11.401
REMARK INTER:                 -10.161
REMARK INTRA:                  -1.240
REMARK UNBOUND:                -1.241
REMARK  Name = 
REMARK  9 active torsions:
REMARK  status: ('A' for Active; 'I' for Inactive)
REMARK    1  A    between atoms: C_1  and  N_2
REMARK    2  A    between atoms: N_2  and  C_3
REMARK    3  A    between atoms: N_2  and  C_11
REMARK    4  A    between atoms: C_3  and  C_4
REMARK    5  A    between atoms: C_11  and  C_12
REMARK    6  A    between atoms: C_15  and  C_16
REMARK    7  A    between atoms: C_16  and  N_17
REMARK    8  A    between atoms: C_18  and  C_20
REMARK    9  A    between atoms: N_26  and  C_27
REMARK                            x       y       z     vdW  Elec       q    Type
REMARK                         _______ _______ _______ _____ _____    ______ ____
ROOT
ATOM      1  C   UNL     1      45.268   6.562  11.657  0.00  0.00    +0.000 A 
ATOM      2  C   UNL     1      46.632   6.242  11.653  0.00  0.00    +0.000 A 
ATOM      3  C   UNL     1      47.600   7.232  11.875  0.00  0.00    +0.000 A 
ATOM      4  C   UNL     1      47.226   8.561  12.123  0.00  0.00    +0.000 A 
ATOM      5  C   UNL     1      45.862   8.879  12.129  0.00  0.00    +0.000 A 
ATOM      6  C   UNL     1      44.896   7.892  11.903  0.00  0.00    +0.000 A 
ENDROOT
BRANCH   1   7
ATOM      7  C   UNL     1      44.212   5.525  11.309  0.00  0.00    +0.000 C 
BRANCH   7   9
ATOM      8  C   UNL     1      44.374   3.303  12.266  0.00  0.00    +0.000 C 
ATOM      9  N   UNL     1      44.713   4.148  11.111  0.00  0.00    +0.000 NA
BRANCH   9  10
ATOM     10  C   UNL     1      44.119   3.539   9.897  0.00  0.00    +0.000 C 
BRANCH  10  11
ATOM     11  C   UNL     1      45.139   3.081   8.873  0.00  0.00    +0.000 A 
ATOM     12  C   UNL     1      45.495   1.726   8.778  0.00  0.00    +0.000 A 
ATOM     13  C   UNL     1      46.485   1.317   7.883  0.00  0.00    +0.000 A 
ATOM     14  C   UNL     1      47.112   2.259   7.077  0.00  0.00    +0.000 A 
ATOM     15  F   UNL     1      48.086   1.871   6.241  0.00  0.00    +0.000 F 
ATOM     16  C   UNL     1      46.751   3.600   7.128  0.00  0.00    +0.000 A 
ATOM     17  C   UNL     1      45.760   4.012   8.021  0.00  0.00    +0.000 A 
ENDBRANCH  10  11
ENDBRANCH   9  10
ENDBRANCH   7   9
ENDBRANCH   1   7
BRANCH   4  18
ATOM     18  C   UNL     1      48.268   9.640  12.311  0.00  0.00    +0.000 C 
BRANCH  18  19
ATOM     19  N   UNL     1      49.507   9.079  12.793  0.00  0.00    +0.000 N 
ATOM     20  C   UNL     1      50.531   9.866  13.260  0.00  0.00    +0.000 C 
ATOM     21  O   UNL     1      50.513  11.091  13.160  0.00  0.00    +0.000 OA
ATOM     22  H   UNL     1      49.459   8.114  13.096  0.00  0.00    +0.000 HD
BRANCH  20  23
ATOM     23  C   UNL     1      51.677   9.158  13.847  0.00  0.00    +0.000 A 
ATOM     24  C   UNL     1      52.972   9.500  13.480  0.00  0.00    +0.000 A 
ATOM     25  S   UNL     1      54.169   8.537  14.224  0.00  0.00    +0.000 S 
ATOM     26  C   UNL     1      53.002   7.662  15.100  0.00  0.00    +0.000 A 
ATOM     27  N   UNL     1      53.365   6.673  15.960  0.00  0.00    +0.000 NA
ATOM     28  C   UNL     1      52.376   6.110  16.576  0.00  0.00    +0.000 A 
ATOM     29  N   UNL     1      51.047   6.437  16.423  0.00  0.00    +0.000 N 
ATOM     30  C   UNL     1      50.017   5.737  17.157  0.00  0.00    +0.000 C 
ATOM     31  C   UNL     1      50.642   7.441  15.550  0.00  0.00    +0.000 A 
ATOM     32  O   UNL     1      49.463   7.746  15.396  0.00  0.00    +0.000 OA
ATOM     33  C   UNL     1      51.719   8.093  14.825  0.00  0.00    +0.000 A 
ENDBRANCH  20  23
ENDBRANCH  18  19
ENDBRANCH   4  18
TORSDOF 7
ENDMDL
MODEL 7
REMARK VINA RESULT:    -7.184      3.750      4.969
REMARK INTER + INTRA:         -11.365
REMARK INTER:                 -10.239
REMARK INTRA:                  -1.126
REMARK UNBOUND:                -1.241
REMARK  Name = 
REMARK  9 active torsions:
REMARK  status: ('A' for Active; 'I' for Inactive)
REMARK    1  A    between atoms: C_1  and  N_2
REMARK    2  A    between atoms: N_2  and  C_3
REMARK    3  A    between atoms: N_2  and  C_11
REMARK    4  A    between atoms: C_3  and  C_4
REMARK    5  A    between atoms: C_11  and  C_12
REMARK    6  A    between atoms: C_15  and  C_16
REMARK    7  A    between atoms: C_16  and  N_17
REMARK    8  A    between atoms: C_18  and  C_20
REMARK    9  A    between atoms: N_26  and  C_27
REMARK                            x       y       z     vdW  Elec       q    Type
REMARK                         _______ _______ _______ _____ _____    ______ ____
ROOT
ATOM      1  C   UNL     1      45.890   5.745  11.774  0.00  0.00    +0.000 A 
ATOM      2  C   UNL     1      46.348   7.065  11.668  0.00  0.00    +0.000 A 
ATOM      3  C   UNL     1      47.303   7.565  12.564  0.00  0.00    +0.000 A 
ATOM      4  C   UNL     1      47.835   6.752  13.577  0.00  0.00    +0.000 A 
ATOM      5  C   UNL     1      47.378   5.432  13.680  0.00  0.00    +0.000 A 
ATOM      6  C   UNL     1      46.421   4.934  12.788  0.00  0.00    +0.000 A 
ENDROOT
BRANCH   1   7
ATOM      7  C   UNL     1      44.776   5.220  10.882  0.00  0.00    +0.000 C 
BRANCH   7   9
ATOM      8  C   UNL     1      43.665   3.279  11.819  0.00  0.00    +0.000 C 
ATOM      9  N   UNL     1      44.643   3.748  10.827  0.00  0.00    +0.000 NA
BRANCH   9  10
ATOM     10  C   UNL     1      44.195   3.307   9.485  0.00  0.00    +0.000 C 
BRANCH  10  11
ATOM     11  C   UNL     1      45.326   2.931   8.548  0.00  0.00    +0.000 A 
ATOM     12  C   UNL     1      45.871   3.882   7.670  0.00  0.00    +0.000 A 
ATOM     13  C   UNL     1      46.863   3.517   6.759  0.00  0.00    +0.000 A 
ATOM     14  C   UNL     1      47.318   2.204   6.731  0.00  0.00    +0.000 A 
ATOM     15  F   UNL     1      48.247   1.845   5.834  0.00  0.00    +0.000 F 
ATOM     16  C   UNL     1      46.818   1.254   7.614  0.00  0.00    +0.000 A 
ATOM     17  C   UNL     1      45.828   1.617   8.527  0.00  0.00    +0.000 A 
ENDBRANCH  10  11
ENDBRANCH   9  10
ENDBRANCH   7   9
ENDBRANCH   1   7
BRANCH   4  18
ATOM     18  C   UNL     1      48.825   7.303  14.577  0.00  0.00    +0.000 C 
BRANCH  18  19
ATOM     19  N   UNL     1      50.139   7.418  13.990  0.00  0.00    +0.000 N 
ATOM     20  C   UNL     1      50.766   8.629  13.837  0.00  0.00    +0.000 C 
ATOM     21  O   UNL     1      50.194   9.695  14.053  0.00  0.00    +0.000 OA
ATOM     22  H   UNL     1      50.704   6.578  14.023  0.00  0.00    +0.000 HD
BRANCH  20  23
ATOM     23  C   UNL     1      52.153   8.584  13.353  0.00  0.00    +0.000 A 
ATOM     24  C   UNL     1      53.199   8.937  14.195  0.00  0.00    +0.000 A 
ATOM     25  S   UNL     1      54.731   8.873  13.445  0.00  0.00    +0.000 S 
ATOM     26  C   UNL     1      54.056   8.322  11.984  0.00  0.00    +0.000 A 
ATOM     27  N   UNL     1      54.840   8.050  10.907  0.00  0.00    +0.000 NA
ATOM     28  C   UNL     1      54.196   7.616   9.872  0.00  0.00    +0.000 A 
ATOM     29  N   UNL     1      52.834   7.422   9.800  0.00  0.00    +0.000 N 
ATOM     30  C   UNL     1      52.212   6.938   8.588  0.00  0.00    +0.000 C 
ATOM     31  C   UNL     1      52.004   7.692  10.882  0.00  0.00    +0.000 A 
ATOM     32  O   UNL     1      50.788   7.530  10.838  0.00  0.00    +0.000 OA
ATOM     33  C   UNL     1      52.683   8.195  12.064  0.00  0.00    +0.000 A 
ENDBRANCH  20  23
ENDBRANCH  18  19
ENDBRANCH   4  18
TORSDOF 7
ENDMDL
MODEL 8
REMARK VINA RESULT:    -7.120      2.930      3.627
REMARK INTER + INTRA:         -11.275
REMARK INTER:                 -10.137
REMARK INTRA:                  -1.138
REMARK UNBOUND:                -1.241
REMARK  Name = 
REMARK  9 active torsions:
REMARK  status: ('A' for Active; 'I' for Inactive)
REMARK    1  A    between atoms: C_1  and  N_2
REMARK    2  A    between atoms: N_2  and  C_3
REMARK    3  A    between atoms: N_2  and  C_11
REMARK    4  A    between atoms: C_3  and  C_4
REMARK    5  A    between atoms: C_11  and  C_12
REMARK    6  A    between atoms: C_15  and  C_16
REMARK    7  A    between atoms: C_16  and  N_17
REMARK    8  A    between atoms: C_18  and  C_20
REMARK    9  A    between atoms: N_26  and  C_27
REMARK                            x       y       z     vdW  Elec       q    Type
REMARK                         _______ _______ _______ _____ _____    ______ ____
ROOT
ATOM      1  C   UNL     1      46.202   5.312  12.371  0.00  0.00    +0.000 A 
ATOM      2  C   UNL     1      46.996   6.248  13.048  0.00  0.00    +0.000 A 
ATOM      3  C   UNL     1      47.467   5.984  14.342  0.00  0.00    +0.000 A 
ATOM      4  C   UNL     1      47.169   4.772  14.983  0.00  0.00    +0.000 A 
ATOM      5  C   UNL     1      46.377   3.837  14.305  0.00  0.00    +0.000 A 
ATOM      6  C   UNL     1      45.904   4.102  13.014  0.00  0.00    +0.000 A 
ENDROOT
BRANCH   1   7
ATOM      7  C   UNL     1      45.593   5.627  11.014  0.00  0.00    +0.000 C 
BRANCH   7   9
ATOM      8  C   UNL     1      43.191   5.324  11.157  0.00  0.00    +0.000 C 
ATOM      9  N   UNL     1      44.446   4.780  10.620  0.00  0.00    +0.000 NA
BRANCH   9  10
ATOM     10  C   UNL     1      44.328   4.705   9.144  0.00  0.00    +0.000 C 
BRANCH  10  11
ATOM     11  C   UNL     1      45.228   3.667   8.503  0.00  0.00    +0.000 A 
ATOM     12  C   UNL     1      45.167   2.323   8.908  0.00  0.00    +0.000 A 
ATOM     13  C   UNL     1      46.046   1.382   8.369  0.00  0.00    +0.000 A 
ATOM     14  C   UNL     1      46.978   1.781   7.418  0.00  0.00    +0.000 A 
ATOM     15  F   UNL     1      47.843   0.884   6.924  0.00  0.00    +0.000 F 
ATOM     16  C   UNL     1      47.033   3.097   6.977  0.00  0.00    +0.000 A 
ATOM     17  C   UNL     1      46.154   4.040   7.513  0.00  0.00    +0.000 A 
ENDBRANCH  10  11
ENDBRANCH   9  10
ENDBRANCH   7   9
ENDBRANCH   1   7
BRANCH   4  18
ATOM     18  C   UNL     1      47.631   4.507  16.398  0.00  0.00    +0.000 C 
BRANCH  18  19
ATOM     19  N   UNL     1      49.050   4.739  16.528  0.00  0.00    +0.000 N 
ATOM     20  C   UNL     1      49.586   5.392  17.610  0.00  0.00    +0.000 C 
ATOM     21  O   UNL     1      48.884   5.943  18.455  0.00  0.00    +0.000 OA
ATOM     22  H   UNL     1      49.642   4.117  15.992  0.00  0.00    +0.000 HD
BRANCH  20  23
ATOM     23  C   UNL     1      51.053   5.437  17.678  0.00  0.00    +0.000 A 
ATOM     24  C   UNL     1      51.712   6.657  17.748  0.00  0.00    +0.000 A 
ATOM     25  S   UNL     1      53.413   6.513  17.769  0.00  0.00    +0.000 S 
ATOM     26  C   UNL     1      53.327   4.814  17.735  0.00  0.00    +0.000 A 
ATOM     27  N   UNL     1      54.455   4.054  17.751  0.00  0.00    +0.000 NA
ATOM     28  C   UNL     1      54.239   2.778  17.747  0.00  0.00    +0.000 A 
ATOM     29  N   UNL     1      53.001   2.175  17.731  0.00  0.00    +0.000 N 
ATOM     30  C   UNL     1      52.872   0.735  17.721  0.00  0.00    +0.000 C 
ATOM     31  C   UNL     1      51.829   2.923  17.713  0.00  0.00    +0.000 A 
ATOM     32  O   UNL     1      50.716   2.406  17.695  0.00  0.00    +0.000 OA
ATOM     33  C   UNL     1      52.022   4.363  17.703  0.00  0.00    +0.000 A 
ENDBRANCH  20  23
ENDBRANCH  18  19
ENDBRANCH   4  18
TORSDOF 7
ENDMDL
MODEL 9
REMARK VINA RESULT:    -6.853      4.087      8.862
REMARK INTER + INTRA:         -10.898
REMARK INTER:                  -9.212
REMARK INTRA:                  -1.686
REMARK UNBOUND:                -1.241
REMARK  Name = 
REMARK  9 active torsions:
REMARK  status: ('A' for Active; 'I' for Inactive)
REMARK    1  A    between atoms: C_1  and  N_2
REMARK    2  A    between atoms: N_2  and  C_3
REMARK    3  A    between atoms: N_2  and  C_11
REMARK    4  A    between atoms: C_3  and  C_4
REMARK    5  A    between atoms: C_11  and  C_12
REMARK    6  A    between atoms: C_15  and  C_16
REMARK    7  A    between atoms: C_16  and  N_17
REMARK    8  A    between atoms: C_18  and  C_20
REMARK    9  A    between atoms: N_26  and  C_27
REMARK                            x       y       z     vdW  Elec       q    Type
REMARK                         _______ _______ _______ _____ _____    ______ ____
ROOT
ATOM      1  C   UNL     1      50.389   8.659  12.658  0.00  0.00    +0.000 A 
ATOM      2  C   UNL     1      49.515   9.729  12.891  0.00  0.00    +0.000 A 
ATOM      3  C   UNL     1      48.141   9.597  12.646  0.00  0.00    +0.000 A 
ATOM      4  C   UNL     1      47.607   8.387  12.177  0.00  0.00    +0.000 A 
ATOM      5  C   UNL     1      48.482   7.318  11.946  0.00  0.00    +0.000 A 
ATOM      6  C   UNL     1      49.854   7.451  12.187  0.00  0.00    +0.000 A 
ENDROOT
BRANCH   1   7
ATOM      7  C   UNL     1      51.893   8.818  12.813  0.00  0.00    +0.000 C 
BRANCH   7   9
ATOM      8  C   UNL     1      53.949   8.311  13.996  0.00  0.00    +0.000 C 
ATOM      9  N   UNL     1      52.503   8.057  13.925  0.00  0.00    +0.000 NA
BRANCH   9  10
ATOM     10  C   UNL     1      51.898   8.442  15.223  0.00  0.00    +0.000 C 
BRANCH  10  11
ATOM     11  C   UNL     1      51.163   7.314  15.921  0.00  0.00    +0.000 A 
ATOM     12  C   UNL     1      51.868   6.364  16.679  0.00  0.00    +0.000 A 
ATOM     13  C   UNL     1      51.199   5.287  17.261  0.00  0.00    +0.000 A 
ATOM     14  C   UNL     1      49.825   5.164  17.096  0.00  0.00    +0.000 A 
ATOM     15  F   UNL     1      49.187   4.111  17.629  0.00  0.00    +0.000 F 
ATOM     16  C   UNL     1      49.101   6.110  16.381  0.00  0.00    +0.000 A 
ATOM     17  C   UNL     1      49.767   7.190  15.799  0.00  0.00    +0.000 A 
ENDBRANCH  10  11
ENDBRANCH   9  10
ENDBRANCH   7   9
ENDBRANCH   1   7
BRANCH   4  18
ATOM     18  C   UNL     1      46.134   8.257  11.861  0.00  0.00    +0.000 C 
BRANCH  18  19
ATOM     19  N   UNL     1      45.758   6.871  11.722  0.00  0.00    +0.000 N 
ATOM     20  C   UNL     1      44.478   6.491  11.400  0.00  0.00    +0.000 C 
ATOM     21  O   UNL     1      43.549   7.294  11.356  0.00  0.00    +0.000 OA
ATOM     22  H   UNL     1      46.519   6.232  11.526  0.00  0.00    +0.000 HD
BRANCH  20  23
ATOM     23  C   UNL     1      44.270   5.057  11.157  0.00  0.00    +0.000 A 
ATOM     24  C   UNL     1      43.453   4.317  12.001  0.00  0.00    +0.000 A 
ATOM     25  S   UNL     1      43.371   2.662  11.592  0.00  0.00    +0.000 S 
ATOM     26  C   UNL     1      44.385   2.885  10.245  0.00  0.00    +0.000 A 
ATOM     27  N   UNL     1      44.713   1.845   9.433  0.00  0.00    +0.000 NA
ATOM     28  C   UNL     1      45.470   2.164   8.433  0.00  0.00    +0.000 A 
ATOM     29  N   UNL     1      45.938   3.430   8.156  0.00  0.00    +0.000 N 
ATOM     30  C   UNL     1      46.788   3.677   7.013  0.00  0.00    +0.000 C 
ATOM     31  C   UNL     1      45.623   4.515   8.967  0.00  0.00    +0.000 A 
ATOM     32  O   UNL     1      46.032   5.649   8.740  0.00  0.00    +0.000 OA
ATOM     33  C   UNL     1      44.784   4.200  10.111  0.00  0.00    +0.000 A 
ENDBRANCH  20  23
ENDBRANCH  18  19
ENDBRANCH   4  18
TORSDOF 7
ENDMDL
