MODEL 1
REMARK VINA RESULT:    -7.804      0.000      0.000
REMARK INTER + INTRA:         -10.287
REMARK INTER:                  -9.629
REMARK INTRA:                  -0.658
REMARK UNBOUND:                -0.658
REMARK  Name = 
REMARK  4 active torsions:
REMARK  status: ('A' for Active; 'I' for Inactive)
REMARK    1  A    between atoms: C_2  and  C_4
REMARK    2  A    between atoms: C_7  and  N_8
REMARK    3  A    between atoms: N_8  and  C_9
REMARK    4  A    between atoms: C_9  and  C_10
REMARK                            x       y       z     vdW  Elec       q    Type
REMARK                         _______ _______ _______ _____ _____    ______ ____
ROOT
ATOM      1  C   UNL     1      46.311   2.236   7.856  0.00  0.00    +0.000 A 
ATOM      2  C   UNL     1      45.378   1.718   8.759  0.00  0.00    +0.000 A 
ATOM      3  C   UNL     1      44.502   2.578   9.431  0.00  0.00    +0.000 A 
ATOM      4  C   UNL     1      44.561   3.963   9.236  0.00  0.00    +0.000 A 
ATOM      5  C   UNL     1      45.461   4.460   8.287  0.00  0.00    +0.000 A 
ATOM      6  C   UNL     1      46.349   3.613   7.619  0.00  0.00    +0.000 A 
ENDROOT
BRANCH   1   8
ATOM      7  N   UNL     1      48.395   1.975   6.622  0.00  0.00    +0.000 N 
ATOM      8  C   UNL     1      47.293   1.369   7.154  0.00  0.00    +0.000 C 
ATOM      9  O   UNL     1      47.146   0.156   7.082  0.00  0.00    +0.000 OA
ATOM     10  H   UNL     1      49.104   1.358   6.248  0.00  0.00    +0.000 HD
ATOM     11  H   UNL     1      48.677   2.910   6.881  0.00  0.00    +0.000 HD
ENDBRANCH   1   8
BRANCH   4  12
ATOM     12  N   UNL     1      43.726   4.878   9.887  0.00  0.00    +0.000 N 
ATOM     13  H   UNL     1      42.797   4.880   9.469  0.00  0.00    +0.000 HD
BRANCH  12  14
ATOM     14  C   UNL     1      43.656   4.809  11.344  0.00  0.00    +0.000 C 
BRANCH  14  15
ATOM     15  C   UNL     1      44.965   5.214  11.986  0.00  0.00    +0.000 A 
ATOM     16  C   UNL     1      45.533   4.383  12.965  0.00  0.00    +0.000 A 
ATOM     17  C   UNL     1      46.787   4.673  13.508  0.00  0.00    +0.000 A 
ATOM     18  C   UNL     1      47.493   5.792  13.075  0.00  0.00    +0.000 A 
ATOM     19  C   UNL     1      46.948   6.623  12.097  0.00  0.00    +0.000 A 
ATOM     20  C   UNL     1      45.697   6.329  11.550  0.00  0.00    +0.000 A 
ENDBRANCH  14  15
ENDBRANCH  12  14
ENDBRANCH   4  12
TORSDOF 4
ENDMDL
MODEL 2
REMARK VINA RESULT:    -7.434      2.825      5.995
REMARK INTER + INTRA:          -9.831
REMARK INTER:                  -9.336
REMARK INTRA:                  -0.495
REMARK UNBOUND:                -0.658
REMARK  Name = 
REMARK  4 active torsions:
REMARK  status: ('A' for Active; 'I' for Inactive)
REMARK    1  A    between atoms: C_2  and  C_4
REMARK    2  A    between atoms: C_7  and  N_8
REMARK    3  A    between atoms: N_8  and  C_9
REMARK    4  A    between atoms: C_9  and  C_10
REMARK                            x       y       z     vdW  Elec       q    Type
REMARK                         _______ _______ _______ _____ _____    ______ ____
ROOT
ATOM      1  C   UNL     1      46.561   4.698  13.452  0.00  0.00    +0.000 A 
ATOM      2  C   UNL     1      46.763   5.893  12.755  0.00  0.00    +0.000 A 
ATOM      3  C   UNL     1      46.199   6.068  11.486  0.00  0.00    +0.000 A 
ATOM      4  C   UNL     1      45.453   5.049  10.883  0.00  0.00    +0.000 A 
ATOM      5  C   UNL     1      45.212   3.882  11.616  0.00  0.00    +0.000 A 
ATOM      6  C   UNL     1      45.780   3.691  12.879  0.00  0.00    +0.000 A 
ENDROOT
BRANCH   1   8
ATOM      7  N   UNL     1      47.477   5.537  15.547  0.00  0.00    +0.000 N 
ATOM      8  C   UNL     1      47.178   4.447  14.780  0.00  0.00    +0.000 C 
ATOM      9  O   UNL     1      47.382   3.313  15.192  0.00  0.00    +0.000 OA
ATOM     10  H   UNL     1      47.792   5.343  16.490  0.00  0.00    +0.000 HD
ATOM     11  H   UNL     1      47.093   6.452  15.360  0.00  0.00    +0.000 HD
ENDBRANCH   1   8
BRANCH   4  12
ATOM     12  N   UNL     1      44.876   5.154   9.613  0.00  0.00    +0.000 N 
ATOM     13  H   UNL     1      45.504   5.629   8.968  0.00  0.00    +0.000 HD
BRANCH  12  14
ATOM     14  C   UNL     1      44.323   3.938   9.021  0.00  0.00    +0.000 C 
BRANCH  14  15
ATOM     15  C   UNL     1      45.374   3.160   8.260  0.00  0.00    +0.000 A 
ATOM     16  C   UNL     1      46.204   3.838   7.351  0.00  0.00    +0.000 A 
ATOM     17  C   UNL     1      47.248   3.173   6.705  0.00  0.00    +0.000 A 
ATOM     18  C   UNL     1      47.483   1.825   6.962  0.00  0.00    +0.000 A 
ATOM     19  C   UNL     1      46.676   1.140   7.868  0.00  0.00    +0.000 A 
ATOM     20  C   UNL     1      45.636   1.806   8.519  0.00  0.00    +0.000 A 
ENDBRANCH  14  15
ENDBRANCH  12  14
ENDBRANCH   4  12
TORSDOF 4
ENDMDL
MODEL 3
REMARK VINA RESULT:    -7.351      2.903      5.986
REMARK INTER + INTRA:          -9.727
REMARK INTER:                  -9.167
REMARK INTRA:                  -0.560
REMARK UNBOUND:                -0.658
REMARK  Name = 
REMARK  4 active torsions:
REMARK  status: ('A' for Active; 'I' for Inactive)
REMARK    1  A    between atoms: C_2  and  C_4
REMARK    2  A    between atoms: C_7  and  N_8
REMARK    3  A    between atoms: N_8  and  C_9
REMARK    4  A    between atoms: C_9  and  C_10
REMARK                            x       y       z     vdW  Elec       q    Type
REMARK                         _______ _______ _______ _____ _____    ______ ____
ROOT
ATOM      1  C   UNL     1      46.724   5.472  12.925  0.00  0.00    +0.000 A 
ATOM      2  C   UNL     1      46.749   6.305  11.804  0.00  0.00    +0.000 A 
ATOM      3  C   UNL     1      45.956   6.005  10.690  0.00  0.00    +0.000 A 
ATOM      4  C   UNL     1      45.152   4.860  10.666  0.00  0.00    +0.000 A 
ATOM      5  C   UNL     1      45.096   4.066  11.817  0.00  0.00    +0.000 A 
ATOM      6  C   UNL     1      45.892   4.350  12.930  0.00  0.00    +0.000 A 
ENDROOT
BRANCH   1   8
ATOM      7  N   UNL     1      47.207   5.142  15.290  0.00  0.00    +0.000 N 
ATOM      8  C   UNL     1      47.583   5.722  14.112  0.00  0.00    +0.000 C 
ATOM      9  O   UNL     1      48.606   6.391  14.037  0.00  0.00    +0.000 OA
ATOM     10  H   UNL     1      47.861   5.232  16.057  0.00  0.00    +0.000 HD
ATOM     11  H   UNL     1      46.535   4.390  15.332  0.00  0.00    +0.000 HD
ENDBRANCH   1   8
BRANCH   4  12
ATOM     12  N   UNL     1      44.349   4.494   9.581  0.00  0.00    +0.000 N 
ATOM     13  H   UNL     1      44.525   5.099   8.781  0.00  0.00    +0.000 HD
BRANCH  12  14
ATOM     14  C   UNL     1      44.340   3.086   9.192  0.00  0.00    +0.000 C 
BRANCH  14  15
ATOM     15  C   UNL     1      45.493   2.754   8.270  0.00  0.00    +0.000 A 
ATOM     16  C   UNL     1      46.043   1.462   8.299  0.00  0.00    +0.000 A 
ATOM     17  C   UNL     1      47.041   1.090   7.395  0.00  0.00    +0.000 A 
ATOM     18  C   UNL     1      47.498   2.001   6.446  0.00  0.00    +0.000 A 
ATOM     19  C   UNL     1      46.958   3.284   6.398  0.00  0.00    +0.000 A 
ATOM     20  C   UNL     1      45.955   3.654   7.297  0.00  0.00    +0.000 A 
ENDBRANCH  14  15
ENDBRANCH  12  14
ENDBRANCH   4  12
TORSDOF 4
ENDMDL
MODEL 4
REMARK VINA RESULT:    -7.073      3.123      6.309
REMARK INTER + INTRA:          -9.385
REMARK INTER:                  -8.862
REMARK INTRA:                  -0.523
REMARK UNBOUND:                -0.658
REMARK  Name = 
REMARK  4 active torsions:
REMARK  status: ('A' for Active; 'I' for Inactive)
REMARK    1  A    between atoms: C_2  and  C_4
REMARK    2  A    between atoms: C_7  and  N_8
REMARK    3  A    between atoms: N_8  and  C_9
REMARK    4  A    between atoms: C_9  and  C_10
REMARK                            x       y       z     vdW  Elec       q    Type
REMARK                         _______ _______ _______ _____ _____    ______ ____
ROOT
ATOM      1  C   UNL     1      45.415   6.912  12.420  0.00  0.00    +0.000 A 
ATOM      2  C   UNL     1      44.410   6.637  11.488  0.00  0.00    +0.000 A 
ATOM      3  C   UNL     1      44.218   5.328  11.030  0.00  0.00    +0.000 A 
ATOM      4  C   UNL     1      45.040   4.284  11.470  0.00  0.00    +0.000 A 
ATOM      5  C   UNL     1      46.004   4.565  12.444  0.00  0.00    +0.000 A 
ATOM      6  C   UNL     1      46.212   5.870  12.899  0.00  0.00    +0.000 A 
ENDROOT
BRANCH   1   8
ATOM      7  N   UNL     1      44.770   9.255  12.588  0.00  0.00    +0.000 N 
ATOM      8  C   UNL     1      45.687   8.292  12.899  0.00  0.00    +0.000 C 
ATOM      9  O   UNL     1      46.673   8.556  13.575  0.00  0.00    +0.000 OA
ATOM     10  H   UNL     1      44.915  10.161  13.016  0.00  0.00    +0.000 HD
ATOM     11  H   UNL     1      43.839   9.032  12.267  0.00  0.00    +0.000 HD
ENDBRANCH   1   8
BRANCH   4  12
ATOM     12  N   UNL     1      44.912   2.958  11.041  0.00  0.00    +0.000 N 
ATOM     13  H   UNL     1      44.480   2.385  11.763  0.00  0.00    +0.000 HD
BRANCH  12  14
ATOM     14  C   UNL     1      44.295   2.727   9.737  0.00  0.00    +0.000 C 
BRANCH  14  15
ATOM     15  C   UNL     1      45.333   2.598   8.644  0.00  0.00    +0.000 A 
ATOM     16  C   UNL     1      45.743   3.748   7.948  0.00  0.00    +0.000 A 
ATOM     17  C   UNL     1      46.768   3.683   7.002  0.00  0.00    +0.000 A 
ATOM     18  C   UNL     1      47.403   2.471   6.743  0.00  0.00    +0.000 A 
ATOM     19  C   UNL     1      47.017   1.323   7.430  0.00  0.00    +0.000 A 
ATOM     20  C   UNL     1      45.995   1.389   8.381  0.00  0.00    +0.000 A 
ENDBRANCH  14  15
ENDBRANCH  12  14
ENDBRANCH   4  12
TORSDOF 4
ENDMDL
MODEL 5
REMARK VINA RESULT:    -5.673      3.852      5.797
REMARK INTER + INTRA:          -7.658
REMARK INTER:                  -7.260
REMARK INTRA:                  -0.397
REMARK UNBOUND:                -0.658
REMARK  Name = 
REMARK  4 active torsions:
REMARK  status: ('A' for Active; 'I' for Inactive)
REMARK    1  A    between atoms: C_2  and  C_4
REMARK    2  A    between atoms: C_7  and  N_8
REMARK    3  A    between atoms: N_8  and  C_9
REMARK    4  A    between atoms: C_9  and  C_10
REMARK                            x       y       z     vdW  Elec       q    Type
REMARK                         _______ _______ _______ _____ _____    ______ ____
ROOT
ATOM      1  C   UNL     1      45.136   4.389  11.691  0.00  0.00    +0.000 A 
ATOM      2  C   UNL     1      45.397   5.719  12.033  0.00  0.00    +0.000 A 
ATOM      3  C   UNL     1      46.161   6.014  13.169  0.00  0.00    +0.000 A 
ATOM      4  C   UNL     1      46.649   4.993  13.993  0.00  0.00    +0.000 A 
ATOM      5  C   UNL     1      46.426   3.666  13.607  0.00  0.00    +0.000 A 
ATOM      6  C   UNL     1      45.655   3.361  12.482  0.00  0.00    +0.000 A 
ENDROOT
BRANCH   1   8
ATOM      7  N   UNL     1      44.532   4.684   9.350  0.00  0.00    +0.000 N 
ATOM      8  C   UNL     1      44.291   4.028  10.523  0.00  0.00    +0.000 C 
ATOM      9  O   UNL     1      43.435   3.156  10.592  0.00  0.00    +0.000 OA
ATOM     10  H   UNL     1      44.026   4.347   8.541  0.00  0.00    +0.000 HD
ATOM     11  H   UNL     1      45.381   5.207   9.187  0.00  0.00    +0.000 HD
ENDBRANCH   1   8
BRANCH   4  12
ATOM     12  N   UNL     1      47.404   5.219  15.149  0.00  0.00    +0.000 N 
ATOM     13  H   UNL     1      47.321   6.187  15.451  0.00  0.00    +0.000 HD
BRANCH  12  14
ATOM     14  C   UNL     1      47.222   4.294  16.265  0.00  0.00    +0.000 C 
BRANCH  14  15
ATOM     15  C   UNL     1      48.548   3.801  16.803  0.00  0.00    +0.000 A 
ATOM     16  C   UNL     1      48.886   2.446  16.653  0.00  0.00    +0.000 A 
ATOM     17  C   UNL     1      50.141   1.976  17.049  0.00  0.00    +0.000 A 
ATOM     18  C   UNL     1      51.076   2.853  17.591  0.00  0.00    +0.000 A 
ATOM     19  C   UNL     1      50.761   4.202  17.738  0.00  0.00    +0.000 A 
ATOM     20  C   UNL     1      49.508   4.674  17.337  0.00  0.00    +0.000 A 
ENDBRANCH  14  15
ENDBRANCH  12  14
ENDBRANCH   4  12
TORSDOF 4
ENDMDL
MODEL 6
REMARK VINA RESULT:    -5.462      2.977      4.540
REMARK INTER + INTRA:          -7.397
REMARK INTER:                  -6.992
REMARK INTRA:                  -0.406
REMARK UNBOUND:                -0.658
REMARK  Name = 
REMARK  4 active torsions:
REMARK  status: ('A' for Active; 'I' for Inactive)
REMARK    1  A    between atoms: C_2  and  C_4
REMARK    2  A    between atoms: C_7  and  N_8
REMARK    3  A    between atoms: N_8  and  C_9
REMARK    4  A    between atoms: C_9  and  C_10
REMARK                            x       y       z     vdW  Elec       q    Type
REMARK                         _______ _______ _______ _____ _____    ______ ____
ROOT
ATOM      1  C   UNL     1      44.951   3.896  10.569  0.00  0.00    +0.000 A 
ATOM      2  C   UNL     1      45.002   3.208  11.785  0.00  0.00    +0.000 A 
ATOM      3  C   UNL     1      45.465   3.854  12.937  0.00  0.00    +0.000 A 
ATOM      4  C   UNL     1      45.908   5.181  12.890  0.00  0.00    +0.000 A 
ATOM      5  C   UNL     1      45.797   5.873  11.678  0.00  0.00    +0.000 A 
ATOM      6  C   UNL     1      45.348   5.234  10.520  0.00  0.00    +0.000 A 
ENDROOT
BRANCH   1   8
ATOM      7  N   UNL     1      44.170   4.052   8.267  0.00  0.00    +0.000 N 
ATOM      8  C   UNL     1      44.513   3.239   9.310  0.00  0.00    +0.000 C 
ATOM      9  O   UNL     1      44.490   2.021   9.193  0.00  0.00    +0.000 OA
ATOM     10  H   UNL     1      43.982   3.588   7.387  0.00  0.00    +0.000 HD
ATOM     11  H   UNL     1      44.420   5.030   8.238  0.00  0.00    +0.000 HD
ENDBRANCH   1   8
BRANCH   4  12
ATOM     12  N   UNL     1      46.395   5.879  13.999  0.00  0.00    +0.000 N 
ATOM     13  H   UNL     1      45.771   5.773  14.796  0.00  0.00    +0.000 HD
BRANCH  12  14
ATOM     14  C   UNL     1      47.788   5.656  14.379  0.00  0.00    +0.000 C 
BRANCH  14  15
ATOM     15  C   UNL     1      47.901   5.080  15.774  0.00  0.00    +0.000 A 
ATOM     16  C   UNL     1      47.301   3.842  16.054  0.00  0.00    +0.000 A 
ATOM     17  C   UNL     1      47.467   3.234  17.301  0.00  0.00    +0.000 A 
ATOM     18  C   UNL     1      48.240   3.851  18.281  0.00  0.00    +0.000 A 
ATOM     19  C   UNL     1      48.850   5.075  18.017  0.00  0.00    +0.000 A 
ATOM     20  C   UNL     1      48.689   5.680  16.768  0.00  0.00    +0.000 A 
ENDBRANCH  14  15
ENDBRANCH  12  14
ENDBRANCH   4  12
TORSDOF 4
ENDMDL
MODEL 7
REMARK VINA RESULT:    -5.293      3.354      5.238
REMARK INTER + INTRA:          -7.189
REMARK INTER:                  -6.752
REMARK INTRA:                  -0.438
REMARK UNBOUND:                -0.658
REMARK  Name = 
REMARK  4 active torsions:
REMARK  status: ('A' for Active; 'I' for Inactive)
REMARK    1  A    between atoms: C_2  and  C_4
REMARK    2  A    between atoms: C_7  and  N_8
REMARK    3  A    between atoms: N_8  and  C_9
REMARK    4  A    between atoms: C_9  and  C_10
REMARK                            x       y       z     vdW  Elec       q    Type
REMARK                         _______ _______ _______ _____ _____    ______ ____
ROOT
ATOM      1  C   UNL     1      44.997   3.962  11.446  0.00  0.00    +0.000 A 
ATOM      2  C   UNL     1      45.217   5.161  10.761  0.00  0.00    +0.000 A 
ATOM      3  C   UNL     1      46.026   6.153  11.327  0.00  0.00    +0.000 A 
ATOM      4  C   UNL     1      46.604   5.977  12.590  0.00  0.00    +0.000 A 
ATOM      5  C   UNL     1      46.421   4.750  13.237  0.00  0.00    +0.000 A 
ATOM      6  C   UNL     1      45.605   3.758  12.687  0.00  0.00    +0.000 A 
ENDROOT
BRANCH   1   8
ATOM      7  N   UNL     1      44.567   2.180   9.842  0.00  0.00    +0.000 N 
ATOM      8  C   UNL     1      44.108   2.899  10.909  0.00  0.00    +0.000 C 
ATOM      9  O   UNL     1      43.023   2.649  11.416  0.00  0.00    +0.000 OA
ATOM     10  H   UNL     1      43.998   1.391   9.562  0.00  0.00    +0.000 HD
ATOM     11  H   UNL     1      45.539   2.179   9.568  0.00  0.00    +0.000 HD
ENDBRANCH   1   8
BRANCH   4  12
ATOM     12  N   UNL     1      47.409   6.933  13.217  0.00  0.00    +0.000 N 
ATOM     13  H   UNL     1      47.296   6.894  14.229  0.00  0.00    +0.000 HD
BRANCH  12  14
ATOM     14  C   UNL     1      48.820   6.980  12.840  0.00  0.00    +0.000 C 
BRANCH  14  15
ATOM     15  C   UNL     1      49.157   8.256  12.100  0.00  0.00    +0.000 A 
ATOM     16  C   UNL     1      48.181   9.259  11.984  0.00  0.00    +0.000 A 
ATOM     17  C   UNL     1      48.487  10.488  11.395  0.00  0.00    +0.000 A 
ATOM     18  C   UNL     1      49.773  10.734  10.920  0.00  0.00    +0.000 A 
ATOM     19  C   UNL     1      50.756   9.754  11.036  0.00  0.00    +0.000 A 
ATOM     20  C   UNL     1      50.452   8.527  11.631  0.00  0.00    +0.000 A 
ENDBRANCH  14  15
ENDBRANCH  12  14
ENDBRANCH   4  12
TORSDOF 4
ENDMDL
MODEL 8
REMARK VINA RESULT:    -5.178      3.169      4.910
REMARK INTER + INTRA:          -7.047
REMARK INTER:                  -6.570
REMARK INTRA:                  -0.477
REMARK UNBOUND:                -0.658
REMARK  Name = 
REMARK  4 active torsions:
REMARK  status: ('A' for Active; 'I' for Inactive)
REMARK    1  A    between atoms: C_2  and  C_4
REMARK    2  A    between atoms: C_7  and  N_8
REMARK    3  A    between atoms: N_8  and  C_9
REMARK    4  A    between atoms: C_9  and  C_10
REMARK                            x       y       z     vdW  Elec       q    Type
REMARK                         _______ _______ _______ _____ _____    ______ ____
ROOT
ATOM      1  C   UNL     1      44.560   4.263  11.678  0.00  0.00    +0.000 A 
ATOM      2  C   UNL     1      45.480   4.235  12.730  0.00  0.00    +0.000 A 
ATOM      3  C   UNL     1      45.955   5.433  13.277  0.00  0.00    +0.000 A 
ATOM      4  C   UNL     1      45.544   6.670  12.768  0.00  0.00    +0.000 A 
ATOM      5  C   UNL     1      44.580   6.682  11.753  0.00  0.00    +0.000 A 
ATOM      6  C   UNL     1      44.108   5.492  11.191  0.00  0.00    +0.000 A 
ENDROOT
BRANCH   1   8
ATOM      7  N   UNL     1      44.844   2.466  10.058  0.00  0.00    +0.000 N 
ATOM      8  C   UNL     1      44.064   3.020  11.033  0.00  0.00    +0.000 C 
ATOM      9  O   UNL     1      43.017   2.488  11.379  0.00  0.00    +0.000 OA
ATOM     10  H   UNL     1      44.546   1.563   9.710  0.00  0.00    +0.000 HD
ATOM     11  H   UNL     1      45.813   2.721   9.931  0.00  0.00    +0.000 HD
ENDBRANCH   1   8
BRANCH   4  12
ATOM     12  N   UNL     1      45.991   7.902  13.258  0.00  0.00    +0.000 N 
ATOM     13  H   UNL     1      46.600   7.771  14.063  0.00  0.00    +0.000 HD
BRANCH  12  14
ATOM     14  C   UNL     1      46.569   8.840  12.299  0.00  0.00    +0.000 C 
BRANCH  14  15
ATOM     15  C   UNL     1      48.080   8.770  12.290  0.00  0.00    +0.000 A 
ATOM     16  C   UNL     1      48.714   7.752  11.558  0.00  0.00    +0.000 A 
ATOM     17  C   UNL     1      50.105   7.714  11.447  0.00  0.00    +0.000 A 
ATOM     18  C   UNL     1      50.882   8.694  12.058  0.00  0.00    +0.000 A 
ATOM     19  C   UNL     1      50.270   9.716  12.780  0.00  0.00    +0.000 A 
ATOM     20  C   UNL     1      48.878   9.758  12.887  0.00  0.00    +0.000 A 
ENDBRANCH  14  15
ENDBRANCH  12  14
ENDBRANCH   4  12
TORSDOF 4
ENDMDL
MODEL 9
REMARK VINA RESULT:    -5.155      5.591      8.303
REMARK INTER + INTRA:          -7.019
REMARK INTER:                  -6.706
REMARK INTRA:                  -0.313
REMARK UNBOUND:                -0.658
REMARK  Name = 
REMARK  4 active torsions:
REMARK  status: ('A' for Active; 'I' for Inactive)
REMARK    1  A    between atoms: C_2  and  C_4
REMARK    2  A    between atoms: C_7  and  N_8
REMARK    3  A    between atoms: N_8  and  C_9
REMARK    4  A    between atoms: C_9  and  C_10
REMARK                            x       y       z     vdW  Elec       q    Type
REMARK                         _______ _______ _______ _____ _____    ______ ____
ROOT
ATOM      1  C   UNL     1      48.663   4.398  18.364  0.00  0.00    +0.000 A 
ATOM      2  C   UNL     1      48.253   3.115  17.993  0.00  0.00    +0.000 A 
ATOM      3  C   UNL     1      47.678   2.900  16.735  0.00  0.00    +0.000 A 
ATOM      4  C   UNL     1      47.479   3.960  15.843  0.00  0.00    +0.000 A 
ATOM      5  C   UNL     1      47.946   5.228  16.207  0.00  0.00    +0.000 A 
ATOM      6  C   UNL     1      48.510   5.457  17.465  0.00  0.00    +0.000 A 
ENDROOT
BRANCH   1   8
ATOM      7  N   UNL     1      48.681   4.035  20.773  0.00  0.00    +0.000 N 
ATOM      8  C   UNL     1      49.233   4.685  19.706  0.00  0.00    +0.000 C 
ATOM      9  O   UNL     1      50.182   5.444  19.854  0.00  0.00    +0.000 OA
ATOM     10  H   UNL     1      49.153   4.157  21.660  0.00  0.00    +0.000 HD
ATOM     11  H   UNL     1      48.088   3.224  20.664  0.00  0.00    +0.000 HD
ENDBRANCH   1   8
BRANCH   4  12
ATOM     12  N   UNL     1      46.898   3.816  14.579  0.00  0.00    +0.000 N 
ATOM     13  H   UNL     1      46.262   3.021  14.561  0.00  0.00    +0.000 HD
BRANCH  12  14
ATOM     14  C   UNL     1      46.288   5.000  13.977  0.00  0.00    +0.000 C 
BRANCH  14  15
ATOM     15  C   UNL     1      45.868   4.745  12.547  0.00  0.00    +0.000 A 
ATOM     16  C   UNL     1      45.228   3.537  12.226  0.00  0.00    +0.000 A 
ATOM     17  C   UNL     1      44.738   3.308  10.938  0.00  0.00    +0.000 A 
ATOM     18  C   UNL     1      44.874   4.286   9.955  0.00  0.00    +0.000 A 
ATOM     19  C   UNL     1      45.497   5.494  10.259  0.00  0.00    +0.000 A 
ATOM     20  C   UNL     1      45.981   5.725  11.549  0.00  0.00    +0.000 A 
ENDBRANCH  14  15
ENDBRANCH  12  14
ENDBRANCH   4  12
TORSDOF 4
ENDMDL
