MODEL 1
REMARK VINA RESULT:    -8.900      0.000      0.000
REMARK INTER + INTRA:         -12.761
REMARK INTER:                 -11.501
REMARK INTRA:                  -1.260
REMARK UNBOUND:                -1.260
REMARK  Name = 
REMARK  6 active torsions:
REMARK  status: ('A' for Active; 'I' for Inactive)
REMARK    1  A    between atoms: C_1  and  C_2
REMARK    2  A    between atoms: C_4  and  C_5
REMARK    3  A    between atoms: C_10  and  N_11
REMARK    4  A    between atoms: N_11  and  C_12
REMARK    5  A    between atoms: C_12  and  C_13
REMARK    6  A    between atoms: C_17  and  C_18
REMARK                            x       y       z     vdW  Elec       q    Type
REMARK                         _______ _______ _______ _____ _____    ______ ____
ROOT
ATOM      1  N   UNL     1      44.275   6.878  12.568  0.00  0.00    +0.000 N 
ATOM      2  H   UNL     1      43.877   6.442  13.397  0.00  0.00    +0.000 HD
ENDROOT
BRANCH   1   9
ATOM      3  C   UNL     1      46.245   4.641  13.520  0.00  0.00    +0.000 C 
ATOM      4  C   UNL     1      46.595   6.011  13.002  0.00  0.00    +0.000 A 
ATOM      5  C   UNL     1      47.981   6.284  12.910  0.00  0.00    +0.000 A 
ATOM      6  C   UNL     1      48.477   7.506  12.447  0.00  0.00    +0.000 A 
ATOM      7  C   UNL     1      47.567   8.486  12.070  0.00  0.00    +0.000 A 
ATOM      8  C   UNL     1      46.189   8.228  12.160  0.00  0.00    +0.000 A 
ATOM      9  C   UNL     1      45.663   7.005  12.638  0.00  0.00    +0.000 A 
BRANCH   6  10
ATOM     10  C   UNL     1      49.960   7.666  12.378  0.00  0.00    +0.000 C 
ATOM     11  N   UNL     1      50.680   7.635  13.539  0.00  0.00    +0.000 N 
ATOM     12  O   UNL     1      50.539   7.825  11.312  0.00  0.00    +0.000 OA
ATOM     13  H   UNL     1      50.296   7.521  14.461  0.00  0.00    +0.000 HD
ATOM     14  H   UNL     1      51.681   7.758  13.451  0.00  0.00    +0.000 HD
ENDBRANCH   6  10
ENDBRANCH   1   9
BRANCH   1  15
ATOM     15  C   UNL     1      43.543   6.568  11.353  0.00  0.00    +0.000 C 
BRANCH  15  16
ATOM     16  C   UNL     1      43.640   5.110  11.000  0.00  0.00    +0.000 A 
ATOM     17  C   UNL     1      42.987   4.144  11.752  0.00  0.00    +0.000 A 
ATOM     18  N   UNL     1      43.113   2.817  11.542  0.00  0.00    +0.000 NA
ATOM     19  C   UNL     1      43.936   2.436  10.534  0.00  0.00    +0.000 A 
ATOM     20  C   UNL     1      44.645   3.303   9.699  0.00  0.00    +0.000 A 
ATOM     21  C   UNL     1      44.473   4.670   9.965  0.00  0.00    +0.000 A 
BRANCH  20  22
ATOM     22  C   UNL     1      45.511   2.827   8.601  0.00  0.00    +0.000 A 
ATOM     23  C   UNL     1      46.038   3.718   7.645  0.00  0.00    +0.000 A 
ATOM     24  C   UNL     1      46.894   3.280   6.628  0.00  0.00    +0.000 A 
ATOM     25  C   UNL     1      47.248   1.937   6.552  0.00  0.00    +0.000 A 
ATOM     26  C   UNL     1      46.732   1.045   7.480  0.00  0.00    +0.000 A 
ATOM     27  F   UNL     1      47.077  -0.247   7.414  0.00  0.00    +0.000 F 
ATOM     28  C   UNL     1      45.869   1.472   8.486  0.00  0.00    +0.000 A 
ENDBRANCH  20  22
ENDBRANCH  15  16
ENDBRANCH   1  15
TORSDOF 5
ENDMDL
MODEL 2
REMARK VINA RESULT:    -8.367      0.730      1.560
REMARK INTER + INTRA:         -12.073
REMARK INTER:                 -11.123
REMARK INTRA:                  -0.950
REMARK UNBOUND:                -1.260
REMARK  Name = 
REMARK  6 active torsions:
REMARK  status: ('A' for Active; 'I' for Inactive)
REMARK    1  A    between atoms: C_1  and  C_2
REMARK    2  A    between atoms: C_4  and  C_5
REMARK    3  A    between atoms: C_10  and  N_11
REMARK    4  A    between atoms: N_11  and  C_12
REMARK    5  A    between atoms: C_12  and  C_13
REMARK    6  A    between atoms: C_17  and  C_18
REMARK                            x       y       z     vdW  Elec       q    Type
REMARK                         _______ _______ _______ _____ _____    ______ ____
ROOT
ATOM      1  N   UNL     1      44.145   6.737  12.530  0.00  0.00    +0.000 N 
ATOM      2  H   UNL     1      43.925   6.179  13.353  0.00  0.00    +0.000 HD
ENDROOT
BRANCH   1   9
ATOM      3  C   UNL     1      45.163   9.675  12.181  0.00  0.00    +0.000 C 
ATOM      4  C   UNL     1      45.993   8.436  12.386  0.00  0.00    +0.000 A 
ATOM      5  C   UNL     1      47.390   8.652  12.462  0.00  0.00    +0.000 A 
ATOM      6  C   UNL     1      48.303   7.610  12.650  0.00  0.00    +0.000 A 
ATOM      7  C   UNL     1      47.810   6.316  12.762  0.00  0.00    +0.000 A 
ATOM      8  C   UNL     1      46.426   6.088  12.686  0.00  0.00    +0.000 A 
ATOM      9  C   UNL     1      45.485   7.123  12.481  0.00  0.00    +0.000 A 
BRANCH   6  10
ATOM     10  C   UNL     1      49.750   7.969  12.732  0.00  0.00    +0.000 C 
ATOM     11  N   UNL     1      50.630   7.350  11.891  0.00  0.00    +0.000 N 
ATOM     12  O   UNL     1      50.160   8.798  13.534  0.00  0.00    +0.000 OA
ATOM     13  H   UNL     1      50.392   6.650  11.210  0.00  0.00    +0.000 HD
ATOM     14  H   UNL     1      51.603   7.611  11.985  0.00  0.00    +0.000 HD
ENDBRANCH   6  10
ENDBRANCH   1   9
BRANCH   1  15
ATOM     15  C   UNL     1      43.355   6.373  11.367  0.00  0.00    +0.000 C 
BRANCH  15  16
ATOM     16  C   UNL     1      43.523   4.921  11.012  0.00  0.00    +0.000 A 
ATOM     17  C   UNL     1      42.934   3.923  11.775  0.00  0.00    +0.000 A 
ATOM     18  N   UNL     1      43.125   2.605  11.562  0.00  0.00    +0.000 NA
ATOM     19  C   UNL     1      43.950   2.266  10.540  0.00  0.00    +0.000 A 
ATOM     20  C   UNL     1      44.598   3.169   9.693  0.00  0.00    +0.000 A 
ATOM     21  C   UNL     1      44.360   4.525   9.962  0.00  0.00    +0.000 A 
BRANCH  20  22
ATOM     22  C   UNL     1      45.468   2.738   8.580  0.00  0.00    +0.000 A 
ATOM     23  C   UNL     1      45.961   3.662   7.636  0.00  0.00    +0.000 A 
ATOM     24  C   UNL     1      46.822   3.267   6.605  0.00  0.00    +0.000 A 
ATOM     25  C   UNL     1      47.214   1.937   6.502  0.00  0.00    +0.000 A 
ATOM     26  C   UNL     1      46.733   1.014   7.418  0.00  0.00    +0.000 A 
ATOM     27  F   UNL     1      47.115  -0.267   7.326  0.00  0.00    +0.000 F 
ATOM     28  C   UNL     1      45.866   1.396   8.438  0.00  0.00    +0.000 A 
ENDBRANCH  20  22
ENDBRANCH  15  16
ENDBRANCH   1  15
TORSDOF 5
ENDMDL
MODEL 3
REMARK VINA RESULT:    -8.283      3.194      6.649
REMARK INTER + INTRA:         -11.964
REMARK INTER:                 -11.060
REMARK INTRA:                  -0.904
REMARK UNBOUND:                -1.260
REMARK  Name = 
REMARK  6 active torsions:
REMARK  status: ('A' for Active; 'I' for Inactive)
REMARK    1  A    between atoms: C_1  and  C_2
REMARK    2  A    between atoms: C_4  and  C_5
REMARK    3  A    between atoms: C_10  and  N_11
REMARK    4  A    between atoms: N_11  and  C_12
REMARK    5  A    between atoms: C_12  and  C_13
REMARK    6  A    between atoms: C_17  and  C_18
REMARK                            x       y       z     vdW  Elec       q    Type
REMARK                         _______ _______ _______ _____ _____    ______ ____
ROOT
ATOM      1  N   UNL     1      43.826   5.160   9.874  0.00  0.00    +0.000 N 
ATOM      2  H   UNL     1      43.820   5.979   9.270  0.00  0.00    +0.000 HD
ENDROOT
BRANCH   1   9
ATOM      3  C   UNL     1      43.698   2.174  10.799  0.00  0.00    +0.000 C 
ATOM      4  C   UNL     1      44.570   2.763   9.722  0.00  0.00    +0.000 A 
ATOM      5  C   UNL     1      45.392   1.837   9.037  0.00  0.00    +0.000 A 
ATOM      6  C   UNL     1      46.260   2.217   8.010  0.00  0.00    +0.000 A 
ATOM      7  C   UNL     1      46.313   3.560   7.656  0.00  0.00    +0.000 A 
ATOM      8  C   UNL     1      45.503   4.490   8.330  0.00  0.00    +0.000 A 
ATOM      9  C   UNL     1      44.630   4.131   9.382  0.00  0.00    +0.000 A 
BRANCH   6  10
ATOM     10  C   UNL     1      47.062   1.143   7.352  0.00  0.00    +0.000 C 
ATOM     11  N   UNL     1      46.760  -0.162   7.621  0.00  0.00    +0.000 N 
ATOM     12  O   UNL     1      47.979   1.406   6.585  0.00  0.00    +0.000 OA
ATOM     13  H   UNL     1      46.036  -0.477   8.243  0.00  0.00    +0.000 HD
ATOM     14  H   UNL     1      47.334  -0.860   7.165  0.00  0.00    +0.000 HD
ENDBRANCH   6  10
ENDBRANCH   1   9
BRANCH   1  15
ATOM     15  C   UNL     1      43.689   5.490  11.281  0.00  0.00    +0.000 C 
BRANCH  15  16
ATOM     16  C   UNL     1      45.024   5.572  11.967  0.00  0.00    +0.000 A 
ATOM     17  C   UNL     1      45.342   4.728  13.022  0.00  0.00    +0.000 A 
ATOM     18  N   UNL     1      46.483   4.817  13.737  0.00  0.00    +0.000 NA
ATOM     19  C   UNL     1      47.347   5.801  13.384  0.00  0.00    +0.000 A 
ATOM     20  C   UNL     1      47.152   6.710  12.340  0.00  0.00    +0.000 A 
ATOM     21  C   UNL     1      45.949   6.568  11.634  0.00  0.00    +0.000 A 
BRANCH  20  22
ATOM     22  C   UNL     1      48.143   7.748  11.989  0.00  0.00    +0.000 A 
ATOM     23  C   UNL     1      47.808   9.117  12.010  0.00  0.00    +0.000 A 
ATOM     24  C   UNL     1      48.754  10.107  11.720  0.00  0.00    +0.000 A 
ATOM     25  C   UNL     1      50.061   9.747  11.410  0.00  0.00    +0.000 A 
ATOM     26  C   UNL     1      50.405   8.404  11.377  0.00  0.00    +0.000 A 
ATOM     27  F   UNL     1      51.665   8.054  11.085  0.00  0.00    +0.000 F 
ATOM     28  C   UNL     1      49.467   7.413  11.651  0.00  0.00    +0.000 A 
ENDBRANCH  20  22
ENDBRANCH  15  16
ENDBRANCH   1  15
TORSDOF 5
ENDMDL
MODEL 4
REMARK VINA RESULT:    -7.899      2.276      2.872
REMARK INTER + INTRA:         -11.468
REMARK INTER:                 -10.824
REMARK INTRA:                  -0.643
REMARK UNBOUND:                -1.260
REMARK  Name = 
REMARK  6 active torsions:
REMARK  status: ('A' for Active; 'I' for Inactive)
REMARK    1  A    between atoms: C_1  and  C_2
REMARK    2  A    between atoms: C_4  and  C_5
REMARK    3  A    between atoms: C_10  and  N_11
REMARK    4  A    between atoms: N_11  and  C_12
REMARK    5  A    between atoms: C_12  and  C_13
REMARK    6  A    between atoms: C_17  and  C_18
REMARK                            x       y       z     vdW  Elec       q    Type
REMARK                         _______ _______ _______ _____ _____    ______ ____
ROOT
ATOM      1  N   UNL     1      46.619   6.886  11.834  0.00  0.00    +0.000 N 
ATOM      2  H   UNL     1      47.121   7.667  11.417  0.00  0.00    +0.000 HD
ENDROOT
BRANCH   1   9
ATOM      3  C   UNL     1      48.759   8.457  13.491  0.00  0.00    +0.000 C 
ATOM      4  C   UNL     1      48.122   7.137  13.836  0.00  0.00    +0.000 A 
ATOM      5  C   UNL     1      48.524   6.578  15.072  0.00  0.00    +0.000 A 
ATOM      6  C   UNL     1      48.027   5.359  15.542  0.00  0.00    +0.000 A 
ATOM      7  C   UNL     1      47.107   4.675  14.757  0.00  0.00    +0.000 A 
ATOM      8  C   UNL     1      46.702   5.219  13.527  0.00  0.00    +0.000 A 
ATOM      9  C   UNL     1      47.201   6.442  13.023  0.00  0.00    +0.000 A 
BRANCH   6  10
ATOM     10  C   UNL     1      48.515   4.884  16.872  0.00  0.00    +0.000 C 
ATOM     11  N   UNL     1      47.747   5.118  17.976  0.00  0.00    +0.000 N 
ATOM     12  O   UNL     1      49.582   4.295  16.990  0.00  0.00    +0.000 OA
ATOM     13  H   UNL     1      46.865   5.601  17.983  0.00  0.00    +0.000 HD
ATOM     14  H   UNL     1      48.117   4.791  18.860  0.00  0.00    +0.000 HD
ENDBRANCH   6  10
ENDBRANCH   1   9
BRANCH   1  15
ATOM     15  C   UNL     1      45.188   6.933  11.592  0.00  0.00    +0.000 C 
BRANCH  15  16
ATOM     16  C   UNL     1      44.679   5.646  11.005  0.00  0.00    +0.000 A 
ATOM     17  C   UNL     1      43.539   5.032  11.502  0.00  0.00    +0.000 A 
ATOM     18  N   UNL     1      43.088   3.832  11.082  0.00  0.00    +0.000 NA
ATOM     19  C   UNL     1      43.816   3.211  10.120  0.00  0.00    +0.000 A 
ATOM     20  C   UNL     1      44.975   3.722   9.530  0.00  0.00    +0.000 A 
ATOM     21  C   UNL     1      45.394   4.972  10.007  0.00  0.00    +0.000 A 
BRANCH  20  22
ATOM     22  C   UNL     1      45.713   3.007   8.469  0.00  0.00    +0.000 A 
ATOM     23  C   UNL     1      46.261   3.695   7.367  0.00  0.00    +0.000 A 
ATOM     24  C   UNL     1      46.999   3.030   6.381  0.00  0.00    +0.000 A 
ATOM     25  C   UNL     1      47.212   1.660   6.481  0.00  0.00    +0.000 A 
ATOM     26  C   UNL     1      46.673   0.966   7.555  0.00  0.00    +0.000 A 
ATOM     27  F   UNL     1      46.882  -0.353   7.658  0.00  0.00    +0.000 F 
ATOM     28  C   UNL     1      45.927   1.618   8.532  0.00  0.00    +0.000 A 
ENDBRANCH  20  22
ENDBRANCH  15  16
ENDBRANCH   1  15
TORSDOF 5
ENDMDL
MODEL 5
REMARK VINA RESULT:    -7.870      2.671      3.128
REMARK INTER + INTRA:         -11.431
REMARK INTER:                 -10.544
REMARK INTRA:                  -0.887
REMARK UNBOUND:                -1.260
REMARK  Name = 
REMARK  6 active torsions:
REMARK  status: ('A' for Active; 'I' for Inactive)
REMARK    1  A    between atoms: C_1  and  C_2
REMARK    2  A    between atoms: C_4  and  C_5
REMARK    3  A    between atoms: C_10  and  N_11
REMARK    4  A    between atoms: N_11  and  C_12
REMARK    5  A    between atoms: C_12  and  C_13
REMARK    6  A    between atoms: C_17  and  C_18
REMARK                            x       y       z     vdW  Elec       q    Type
REMARK                         _______ _______ _______ _____ _____    ______ ____
ROOT
ATOM      1  N   UNL     1      47.280   6.619  12.308  0.00  0.00    +0.000 N 
ATOM      2  H   UNL     1      48.109   7.078  11.935  0.00  0.00    +0.000 HD
ENDROOT
BRANCH   1   9
ATOM      3  C   UNL     1      46.137   3.928  13.421  0.00  0.00    +0.000 C 
ATOM      4  C   UNL     1      47.024   4.912  14.137  0.00  0.00    +0.000 A 
ATOM      5  C   UNL     1      47.400   4.540  15.449  0.00  0.00    +0.000 A 
ATOM      6  C   UNL     1      48.221   5.340  16.251  0.00  0.00    +0.000 A 
ATOM      7  C   UNL     1      48.676   6.545  15.731  0.00  0.00    +0.000 A 
ATOM      8  C   UNL     1      48.307   6.926  14.430  0.00  0.00    +0.000 A 
ATOM      9  C   UNL     1      47.466   6.142  13.607  0.00  0.00    +0.000 A 
BRANCH   6  10
ATOM     10  C   UNL     1      48.563   4.829  17.612  0.00  0.00    +0.000 C 
ATOM     11  N   UNL     1      48.340   3.511  17.896  0.00  0.00    +0.000 N 
ATOM     12  O   UNL     1      49.034   5.561  18.472  0.00  0.00    +0.000 OA
ATOM     13  H   UNL     1      47.948   2.836  17.262  0.00  0.00    +0.000 HD
ATOM     14  H   UNL     1      48.574   3.206  18.832  0.00  0.00    +0.000 HD
ENDBRANCH   6  10
ENDBRANCH   1   9
BRANCH   1  15
ATOM     15  C   UNL     1      46.040   7.194  11.818  0.00  0.00    +0.000 C 
BRANCH  15  16
ATOM     16  C   UNL     1      45.236   6.196  11.032  0.00  0.00    +0.000 A 
ATOM     17  C   UNL     1      43.879   6.024  11.267  0.00  0.00    +0.000 A 
ATOM     18  N   UNL     1      43.126   5.082  10.662  0.00  0.00    +0.000 NA
ATOM     19  C   UNL     1      43.762   4.266   9.784  0.00  0.00    +0.000 A 
ATOM     20  C   UNL     1      45.117   4.338   9.452  0.00  0.00    +0.000 A 
ATOM     21  C   UNL     1      45.847   5.337  10.111  0.00  0.00    +0.000 A 
BRANCH  20  22
ATOM     22  C   UNL     1      45.748   3.434   8.468  0.00  0.00    +0.000 A 
ATOM     23  C   UNL     1      46.388   3.937   7.317  0.00  0.00    +0.000 A 
ATOM     24  C   UNL     1      47.026   3.089   6.404  0.00  0.00    +0.000 A 
ATOM     25  C   UNL     1      47.043   1.717   6.628  0.00  0.00    +0.000 A 
ATOM     26  C   UNL     1      46.412   1.205   7.752  0.00  0.00    +0.000 A 
ATOM     27  F   UNL     1      46.433  -0.115   7.976  0.00  0.00    +0.000 F 
ATOM     28  C   UNL     1      45.764   2.041   8.658  0.00  0.00    +0.000 A 
ENDBRANCH  20  22
ENDBRANCH  15  16
ENDBRANCH   1  15
TORSDOF 5
ENDMDL
MODEL 6
REMARK VINA RESULT:    -7.848      1.218      2.056
REMARK INTER + INTRA:         -11.402
REMARK INTER:                 -10.542
REMARK INTRA:                  -0.861
REMARK UNBOUND:                -1.260
REMARK  Name = 
REMARK  6 active torsions:
REMARK  status: ('A' for Active; 'I' for Inactive)
REMARK    1  A    between atoms: C_1  and  C_2
REMARK    2  A    between atoms: C_4  and  C_5
REMARK    3  A    between atoms: C_10  and  N_11
REMARK    4  A    between atoms: N_11  and  C_12
REMARK    5  A    between atoms: C_12  and  C_13
REMARK    6  A    between atoms: C_17  and  C_18
REMARK                            x       y       z     vdW  Elec       q    Type
REMARK                         _______ _______ _______ _____ _____    ______ ____
ROOT
ATOM      1  N   UNL     1      45.135   6.678  12.547  0.00  0.00    +0.000 N 
ATOM      2  H   UNL     1      45.094   5.933  13.239  0.00  0.00    +0.000 HD
ENDROOT
BRANCH   1   9
ATOM      3  C   UNL     1      45.852   9.680  12.037  0.00  0.00    +0.000 C 
ATOM      4  C   UNL     1      46.805   8.525  12.193  0.00  0.00    +0.000 A 
ATOM      5  C   UNL     1      48.177   8.863  12.134  0.00  0.00    +0.000 A 
ATOM      6  C   UNL     1      49.192   7.910  12.262  0.00  0.00    +0.000 A 
ATOM      7  C   UNL     1      48.829   6.582  12.449  0.00  0.00    +0.000 A 
ATOM      8  C   UNL     1      47.469   6.233  12.506  0.00  0.00    +0.000 A 
ATOM      9  C   UNL     1      46.425   7.177  12.365  0.00  0.00    +0.000 A 
BRANCH   6  10
ATOM     10  C   UNL     1      50.604   8.395  12.202  0.00  0.00    +0.000 C 
ATOM     11  N   UNL     1      51.457   8.064  13.216  0.00  0.00    +0.000 N 
ATOM     12  O   UNL     1      51.008   9.078  11.270  0.00  0.00    +0.000 OA
ATOM     13  H   UNL     1      51.217   7.519  14.026  0.00  0.00    +0.000 HD
ATOM     14  H   UNL     1      52.401   8.421  13.145  0.00  0.00    +0.000 HD
ENDBRANCH   6  10
ENDBRANCH   1   9
BRANCH   1  15
ATOM     15  C   UNL     1      44.161   6.520  11.481  0.00  0.00    +0.000 C 
BRANCH  15  16
ATOM     16  C   UNL     1      44.080   5.096  11.006  0.00  0.00    +0.000 A 
ATOM     17  C   UNL     1      43.296   4.162  11.669  0.00  0.00    +0.000 A 
ATOM     18  N   UNL     1      43.257   2.852  11.348  0.00  0.00    +0.000 NA
ATOM     19  C   UNL     1      44.044   2.454  10.318  0.00  0.00    +0.000 A 
ATOM     20  C   UNL     1      44.872   3.290   9.565  0.00  0.00    +0.000 A 
ATOM     21  C   UNL     1      44.870   4.640   9.944  0.00  0.00    +0.000 A 
BRANCH  20  22
ATOM     22  C   UNL     1      45.692   2.800   8.438  0.00  0.00    +0.000 A 
ATOM     23  C   UNL     1      46.199   1.485   8.417  0.00  0.00    +0.000 A 
ATOM     24  C   UNL     1      46.938   1.002   7.332  0.00  0.00    +0.000 A 
ATOM     25  C   UNL     1      47.180   1.824   6.237  0.00  0.00    +0.000 A 
ATOM     26  C   UNL     1      46.695   3.123   6.244  0.00  0.00    +0.000 A 
ATOM     27  F   UNL     1      46.920   3.916   5.188  0.00  0.00    +0.000 F 
ATOM     28  C   UNL     1      45.970   3.616   7.326  0.00  0.00    +0.000 A 
ENDBRANCH  20  22
ENDBRANCH  15  16
ENDBRANCH   1  15
TORSDOF 5
ENDMDL
MODEL 7
REMARK VINA RESULT:    -7.798      3.611      6.772
REMARK INTER + INTRA:         -11.338
REMARK INTER:                 -10.419
REMARK INTRA:                  -0.919
REMARK UNBOUND:                -1.260
REMARK  Name = 
REMARK  6 active torsions:
REMARK  status: ('A' for Active; 'I' for Inactive)
REMARK    1  A    between atoms: C_1  and  C_2
REMARK    2  A    between atoms: C_4  and  C_5
REMARK    3  A    between atoms: C_10  and  N_11
REMARK    4  A    between atoms: N_11  and  C_12
REMARK    5  A    between atoms: C_12  and  C_13
REMARK    6  A    between atoms: C_17  and  C_18
REMARK                            x       y       z     vdW  Elec       q    Type
REMARK                         _______ _______ _______ _____ _____    ______ ____
ROOT
ATOM      1  N   UNL     1      43.851   4.685   9.957  0.00  0.00    +0.000 N 
ATOM      2  H   UNL     1      42.964   4.770   9.465  0.00  0.00    +0.000 HD
ENDROOT
BRANCH   1   9
ATOM      3  C   UNL     1      44.105   1.584   9.628  0.00  0.00    +0.000 C 
ATOM      4  C   UNL     1      44.948   2.646   8.975  0.00  0.00    +0.000 A 
ATOM      5  C   UNL     1      45.940   2.168   8.087  0.00  0.00    +0.000 A 
ATOM      6  C   UNL     1      46.807   3.020   7.398  0.00  0.00    +0.000 A 
ATOM      7  C   UNL     1      46.685   4.389   7.602  0.00  0.00    +0.000 A 
ATOM      8  C   UNL     1      45.705   4.877   8.483  0.00  0.00    +0.000 A 
ATOM      9  C   UNL     1      44.828   4.033   9.203  0.00  0.00    +0.000 A 
BRANCH   6  10
ATOM     10  C   UNL     1      47.799   2.394   6.474  0.00  0.00    +0.000 C 
ATOM     11  N   UNL     1      48.012   2.965   5.251  0.00  0.00    +0.000 N 
ATOM     12  O   UNL     1      48.419   1.386   6.786  0.00  0.00    +0.000 OA
ATOM     13  H   UNL     1      47.545   3.784   4.900  0.00  0.00    +0.000 HD
ATOM     14  H   UNL     1      48.683   2.505   4.649  0.00  0.00    +0.000 HD
ENDBRANCH   6  10
ENDBRANCH   1   9
BRANCH   1  15
ATOM     15  C   UNL     1      44.115   5.797  10.852  0.00  0.00    +0.000 C 
BRANCH  15  16
ATOM     16  C   UNL     1      45.164   5.455  11.873  0.00  0.00    +0.000 A 
ATOM     17  C   UNL     1      44.959   4.445  12.802  0.00  0.00    +0.000 A 
ATOM     18  N   UNL     1      45.821   4.157  13.799  0.00  0.00    +0.000 NA
ATOM     19  C   UNL     1      46.941   4.918  13.876  0.00  0.00    +0.000 A 
ATOM     20  C   UNL     1      47.271   5.957  13.002  0.00  0.00    +0.000 A 
ATOM     21  C   UNL     1      46.338   6.210  11.986  0.00  0.00    +0.000 A 
BRANCH  20  22
ATOM     22  C   UNL     1      48.519   6.738  13.123  0.00  0.00    +0.000 A 
ATOM     23  C   UNL     1      49.133   7.318  11.994  0.00  0.00    +0.000 A 
ATOM     24  C   UNL     1      50.291   8.096  12.109  0.00  0.00    +0.000 A 
ATOM     25  C   UNL     1      50.857   8.316  13.359  0.00  0.00    +0.000 A 
ATOM     26  C   UNL     1      50.270   7.746  14.479  0.00  0.00    +0.000 A 
ATOM     27  F   UNL     1      50.808   7.962  15.687  0.00  0.00    +0.000 F 
ATOM     28  C   UNL     1      49.126   6.961  14.372  0.00  0.00    +0.000 A 
ENDBRANCH  20  22
ENDBRANCH  15  16
ENDBRANCH   1  15
TORSDOF 5
ENDMDL
MODEL 8
REMARK VINA RESULT:    -7.158      3.544      7.036
REMARK INTER + INTRA:         -10.510
REMARK INTER:                  -9.761
REMARK INTRA:                  -0.749
REMARK UNBOUND:                -1.260
REMARK  Name = 
REMARK  6 active torsions:
REMARK  status: ('A' for Active; 'I' for Inactive)
REMARK    1  A    between atoms: C_1  and  C_2
REMARK    2  A    between atoms: C_4  and  C_5
REMARK    3  A    between atoms: C_10  and  N_11
REMARK    4  A    between atoms: N_11  and  C_12
REMARK    5  A    between atoms: C_12  and  C_13
REMARK    6  A    between atoms: C_17  and  C_18
REMARK                            x       y       z     vdW  Elec       q    Type
REMARK                         _______ _______ _______ _____ _____    ______ ____
ROOT
ATOM      1  N   UNL     1      43.978   5.110   9.980  0.00  0.00    +0.000 N 
ATOM      2  H   UNL     1      43.786   5.942   9.426  0.00  0.00    +0.000 HD
ENDROOT
BRANCH   1   9
ATOM      3  C   UNL     1      43.945   2.002  10.345  0.00  0.00    +0.000 C 
ATOM      4  C   UNL     1      44.818   2.806   9.419  0.00  0.00    +0.000 A 
ATOM      5  C   UNL     1      45.691   2.049   8.603  0.00  0.00    +0.000 A 
ATOM      6  C   UNL     1      46.567   2.639   7.687  0.00  0.00    +0.000 A 
ATOM      7  C   UNL     1      46.576   4.024   7.584  0.00  0.00    +0.000 A 
ATOM      8  C   UNL     1      45.716   4.788   8.391  0.00  0.00    +0.000 A 
ATOM      9  C   UNL     1      44.833   4.215   9.334  0.00  0.00    +0.000 A 
BRANCH   6  10
ATOM     10  C   UNL     1      47.425   1.730   6.870  0.00  0.00    +0.000 C 
ATOM     11  N   UNL     1      48.462   2.266   6.160  0.00  0.00    +0.000 N 
ATOM     12  O   UNL     1      47.219   0.525   6.822  0.00  0.00    +0.000 OA
ATOM     13  H   UNL     1      48.704   3.241   6.127  0.00  0.00    +0.000 HD
ATOM     14  H   UNL     1      49.013   1.619   5.610  0.00  0.00    +0.000 HD
ENDBRANCH   6  10
ENDBRANCH   1   9
BRANCH   1  15
ATOM     15  C   UNL     1      43.992   5.367  11.409  0.00  0.00    +0.000 C 
BRANCH  15  16
ATOM     16  C   UNL     1      44.737   6.630  11.741  0.00  0.00    +0.000 A 
ATOM     17  C   UNL     1      44.239   7.873  11.378  0.00  0.00    +0.000 A 
ATOM     18  N   UNL     1      44.905   9.032  11.563  0.00  0.00    +0.000 NA
ATOM     19  C   UNL     1      46.132   8.943  12.135  0.00  0.00    +0.000 A 
ATOM     20  C   UNL     1      46.744   7.759  12.553  0.00  0.00    +0.000 A 
ATOM     21  C   UNL     1      46.004   6.588  12.335  0.00  0.00    +0.000 A 
BRANCH  20  22
ATOM     22  C   UNL     1      48.076   7.729  13.192  0.00  0.00    +0.000 A 
ATOM     23  C   UNL     1      49.165   8.441  12.649  0.00  0.00    +0.000 A 
ATOM     24  C   UNL     1      50.418   8.451  13.274  0.00  0.00    +0.000 A 
ATOM     25  C   UNL     1      50.605   7.755  14.462  0.00  0.00    +0.000 A 
ATOM     26  C   UNL     1      49.546   7.043  15.006  0.00  0.00    +0.000 A 
ATOM     27  F   UNL     1      49.721   6.377  16.155  0.00  0.00    +0.000 F 
ATOM     28  C   UNL     1      48.301   7.017  14.384  0.00  0.00    +0.000 A 
ENDBRANCH  20  22
ENDBRANCH  15  16
ENDBRANCH   1  15
TORSDOF 5
ENDMDL
MODEL 9
REMARK VINA RESULT:    -6.782      1.557      2.086
REMARK INTER + INTRA:         -10.025
REMARK INTER:                  -9.216
REMARK INTRA:                  -0.809
REMARK UNBOUND:                -1.260
REMARK  Name = 
REMARK  6 active torsions:
REMARK  status: ('A' for Active; 'I' for Inactive)
REMARK    1  A    between atoms: C_1  and  C_2
REMARK    2  A    between atoms: C_4  and  C_5
REMARK    3  A    between atoms: C_10  and  N_11
REMARK    4  A    between atoms: N_11  and  C_12
REMARK    5  A    between atoms: C_12  and  C_13
REMARK    6  A    between atoms: C_17  and  C_18
REMARK                            x       y       z     vdW  Elec       q    Type
REMARK                         _______ _______ _______ _____ _____    ______ ____
ROOT
ATOM      1  N   UNL     1      47.035   5.879  13.273  0.00  0.00    +0.000 N 
ATOM      2  H   UNL     1      47.187   4.995  12.792  0.00  0.00    +0.000 HD
ENDROOT
BRANCH   1   9
ATOM      3  C   UNL     1      48.950   6.675  15.616  0.00  0.00    +0.000 C 
ATOM      4  C   UNL     1      49.048   7.089  14.172  0.00  0.00    +0.000 A 
ATOM      5  C   UNL     1      50.161   7.902  13.852  0.00  0.00    +0.000 A 
ATOM      6  C   UNL     1      50.402   8.373  12.558  0.00  0.00    +0.000 A 
ATOM      7  C   UNL     1      49.506   8.027  11.555  0.00  0.00    +0.000 A 
ATOM      8  C   UNL     1      48.395   7.222  11.860  0.00  0.00    +0.000 A 
ATOM      9  C   UNL     1      48.123   6.747  13.163  0.00  0.00    +0.000 A 
BRANCH   6  10
ATOM     10  C   UNL     1      51.622   9.207  12.344  0.00  0.00    +0.000 C 
ATOM     11  N   UNL     1      52.103   9.948  13.386  0.00  0.00    +0.000 N 
ATOM     12  O   UNL     1      52.193   9.242  11.263  0.00  0.00    +0.000 OA
ATOM     13  H   UNL     1      51.699   9.995  14.305  0.00  0.00    +0.000 HD
ATOM     14  H   UNL     1      52.924  10.510  13.198  0.00  0.00    +0.000 HD
ENDBRANCH   6  10
ENDBRANCH   1   9
BRANCH   1  15
ATOM     15  C   UNL     1      45.647   6.302  13.262  0.00  0.00    +0.000 C 
BRANCH  15  16
ATOM     16  C   UNL     1      44.855   5.593  12.200  0.00  0.00    +0.000 A 
ATOM     17  C   UNL     1      43.475   5.477  12.289  0.00  0.00    +0.000 A 
ATOM     18  N   UNL     1      42.723   4.773  11.419  0.00  0.00    +0.000 NA
ATOM     19  C   UNL     1      43.382   4.148  10.411  0.00  0.00    +0.000 A 
ATOM     20  C   UNL     1      44.762   4.190  10.202  0.00  0.00    +0.000 A 
ATOM     21  C   UNL     1      45.491   4.938  11.139  0.00  0.00    +0.000 A 
BRANCH  20  22
ATOM     22  C   UNL     1      45.421   3.505   9.071  0.00  0.00    +0.000 A 
ATOM     23  C   UNL     1      45.957   4.230   7.988  0.00  0.00    +0.000 A 
ATOM     24  C   UNL     1      46.621   3.591   6.935  0.00  0.00    +0.000 A 
ATOM     25  C   UNL     1      46.770   2.208   6.948  0.00  0.00    +0.000 A 
ATOM     26  C   UNL     1      46.243   1.479   8.003  0.00  0.00    +0.000 A 
ATOM     27  F   UNL     1      46.390   0.148   8.022  0.00  0.00    +0.000 F 
ATOM     28  C   UNL     1      45.569   2.106   9.047  0.00  0.00    +0.000 A 
ENDBRANCH  20  22
ENDBRANCH  15  16
ENDBRANCH   1  15
TORSDOF 5
ENDMDL
