MODEL 1
REMARK VINA RESULT:    -8.329      0.000      0.000
REMARK INTER + INTRA:          -9.955
REMARK INTER:                 -10.276
REMARK INTRA:                   0.321
REMARK UNBOUND:                 0.321
REMARK  Name = 
REMARK  4 active torsions:
REMARK  status: ('A' for Active; 'I' for Inactive)
REMARK    1  A    between atoms: C_2  and  C_3
REMARK    2  A    between atoms: C_6  and  C_7
REMARK    3  A    between atoms: C_7  and  N_8
REMARK    4  A    between atoms: C_12  and  C_13
REMARK                            x       y       z     vdW  Elec       q    Type
REMARK                         _______ _______ _______ _____ _____    ______ ____
ROOT
ATOM      1  N   UNL     1      44.456   5.219   9.731  0.00  0.00    +0.000 N 
ATOM      2  C   UNL     1      45.070   4.113   9.166  0.00  0.00    +0.000 A 
ATOM      3  C   UNL     1      45.058   2.815   9.677  0.00  0.00    +0.000 A 
ATOM      4  N   UNL     1      45.692   1.759   9.086  0.00  0.00    +0.000 NA
ATOM      5  C   UNL     1      46.328   2.063   7.920  0.00  0.00    +0.000 A 
ATOM      6  C   UNL     1      46.320   3.340   7.388  0.00  0.00    +0.000 A 
ATOM      7  N   UNL     1      45.699   4.380   7.999  0.00  0.00    +0.000 NA
ATOM      8  H   UNL     1      44.731   6.036   9.192  0.00  0.00    +0.000 HD
ENDROOT
BRANCH   5   9
ATOM      9  C   UNL     1      47.063   0.985   7.204  0.00  0.00    +0.000 C 
ATOM     10  N   UNL     1      46.776  -0.305   7.557  0.00  0.00    +0.000 N 
ATOM     11  O   UNL     1      47.895   1.236   6.338  0.00  0.00    +0.000 OA
ATOM     12  H   UNL     1      46.092  -0.515   8.273  0.00  0.00    +0.000 HD
ATOM     13  H   UNL     1      47.261  -1.056   7.082  0.00  0.00    +0.000 HD
ENDBRANCH   5   9
BRANCH   1  14
ATOM     14  C   UNL     1      44.027   5.386  11.116  0.00  0.00    +0.000 C 
ATOM     15  C   UNL     1      42.621   5.815  11.478  0.00  0.00    +0.000 C 
ATOM     16  C   UNL     1      42.975   4.371  11.570  0.00  0.00    +0.000 C 
BRANCH  14  20
ATOM     17  C   UNL     1      47.380   6.194  13.768  0.00  0.00    +0.000 A 
ATOM     18  C   UNL     1      46.841   4.908  13.711  0.00  0.00    +0.000 A 
ATOM     19  C   UNL     1      45.743   4.649  12.888  0.00  0.00    +0.000 A 
ATOM     20  C   UNL     1      45.164   5.660  12.097  0.00  0.00    +0.000 A 
ATOM     21  C   UNL     1      45.692   6.958  12.221  0.00  0.00    +0.000 A 
ATOM     22  C   UNL     1      46.795   7.224  13.034  0.00  0.00    +0.000 A 
BRANCH  17  24
ATOM     23  N   UNL     1      49.490   6.650  15.203  0.00  0.00    +0.000 NA
ATOM     24  C   UNL     1      48.537   6.453  14.564  0.00  0.00    +0.000 C 
ENDBRANCH  17  24
ENDBRANCH  14  20
ENDBRANCH   1  14
TORSDOF 4
ENDMDL
MODEL 2
REMARK VINA RESULT:    -8.239      3.143      6.720
REMARK INTER + INTRA:          -9.844
REMARK INTER:                  -9.420
REMARK INTRA:                  -0.424
REMARK UNBOUND:                 0.321
REMARK  Name = 
REMARK  4 active torsions:
REMARK  status: ('A' for Active; 'I' for Inactive)
REMARK    1  A    between atoms: C_2  and  C_3
REMARK    2  A    between atoms: C_6  and  C_7
REMARK    3  A    between atoms: C_7  and  N_8
REMARK    4  A    between atoms: C_12  and  C_13
REMARK                            x       y       z     vdW  Elec       q    Type
REMARK                         _______ _______ _______ _____ _____    ______ ____
ROOT
ATOM      1  N   UNL     1      45.429   5.219  11.669  0.00  0.00    +0.000 N 
ATOM      2  C   UNL     1      46.095   4.804  12.810  0.00  0.00    +0.000 A 
ATOM      3  C   UNL     1      46.382   3.484  13.160  0.00  0.00    +0.000 A 
ATOM      4  N   UNL     1      47.033   3.126  14.306  0.00  0.00    +0.000 NA
ATOM      5  C   UNL     1      47.416   4.173  15.089  0.00  0.00    +0.000 A 
ATOM      6  C   UNL     1      47.164   5.487  14.737  0.00  0.00    +0.000 A 
ATOM      7  N   UNL     1      46.501   5.822  13.602  0.00  0.00    +0.000 NA
ATOM      8  H   UNL     1      45.276   6.221  11.746  0.00  0.00    +0.000 HD
ENDROOT
BRANCH   5   9
ATOM      9  C   UNL     1      48.120   3.889  16.369  0.00  0.00    +0.000 C 
ATOM     10  N   UNL     1      47.460   3.115  17.284  0.00  0.00    +0.000 N 
ATOM     11  O   UNL     1      49.240   4.332  16.602  0.00  0.00    +0.000 OA
ATOM     12  H   UNL     1      46.534   2.751  17.097  0.00  0.00    +0.000 HD
ATOM     13  H   UNL     1      47.919   2.906  18.162  0.00  0.00    +0.000 HD
ENDBRANCH   5   9
BRANCH   1  14
ATOM     14  C   UNL     1      44.551   4.426  10.814  0.00  0.00    +0.000 C 
ATOM     15  C   UNL     1      43.287   3.778  11.337  0.00  0.00    +0.000 C 
ATOM     16  C   UNL     1      43.175   5.055  10.579  0.00  0.00    +0.000 C 
BRANCH  14  20
ATOM     17  C   UNL     1      46.643   2.674   7.425  0.00  0.00    +0.000 A 
ATOM     18  C   UNL     1      46.538   4.062   7.528  0.00  0.00    +0.000 A 
ATOM     19  C   UNL     1      45.838   4.631   8.594  0.00  0.00    +0.000 A 
ATOM     20  C   UNL     1      45.237   3.833   9.586  0.00  0.00    +0.000 A 
ATOM     21  C   UNL     1      45.311   2.438   9.424  0.00  0.00    +0.000 A 
ATOM     22  C   UNL     1      46.016   1.861   8.366  0.00  0.00    +0.000 A 
BRANCH  17  24
ATOM     23  N   UNL     1      48.039   1.624   5.511  0.00  0.00    +0.000 NA
ATOM     24  C   UNL     1      47.405   2.088   6.369  0.00  0.00    +0.000 C 
ENDBRANCH  17  24
ENDBRANCH  14  20
ENDBRANCH   1  14
TORSDOF 4
ENDMDL
MODEL 3
REMARK VINA RESULT:    -7.844      3.013      6.957
REMARK INTER + INTRA:          -9.357
REMARK INTER:                  -9.051
REMARK INTRA:                  -0.305
REMARK UNBOUND:                 0.321
REMARK  Name = 
REMARK  4 active torsions:
REMARK  status: ('A' for Active; 'I' for Inactive)
REMARK    1  A    between atoms: C_2  and  C_3
REMARK    2  A    between atoms: C_6  and  C_7
REMARK    3  A    between atoms: C_7  and  N_8
REMARK    4  A    between atoms: C_12  and  C_13
REMARK                            x       y       z     vdW  Elec       q    Type
REMARK                         _______ _______ _______ _____ _____    ______ ____
ROOT
ATOM      1  N   UNL     1      44.577   5.849  11.051  0.00  0.00    +0.000 N 
ATOM      2  C   UNL     1      45.514   6.466  11.863  0.00  0.00    +0.000 A 
ATOM      3  C   UNL     1      46.682   5.886  12.359  0.00  0.00    +0.000 A 
ATOM      4  N   UNL     1      47.570   6.536  13.168  0.00  0.00    +0.000 NA
ATOM      5  C   UNL     1      47.242   7.829  13.442  0.00  0.00    +0.000 A 
ATOM      6  C   UNL     1      46.101   8.425  12.931  0.00  0.00    +0.000 A 
ATOM      7  N   UNL     1      45.223   7.757  12.142  0.00  0.00    +0.000 NA
ATOM      8  H   UNL     1      43.790   6.484  10.946  0.00  0.00    +0.000 HD
ENDROOT
BRANCH   5   9
ATOM      9  C   UNL     1      48.136   8.622  14.329  0.00  0.00    +0.000 C 
ATOM     10  N   UNL     1      47.555   9.257  15.393  0.00  0.00    +0.000 N 
ATOM     11  O   UNL     1      49.341   8.712  14.117  0.00  0.00    +0.000 OA
ATOM     12  H   UNL     1      46.560   9.188  15.568  0.00  0.00    +0.000 HD
ATOM     13  H   UNL     1      48.143   9.800  16.012  0.00  0.00    +0.000 HD
ENDBRANCH   5   9
BRANCH   1  14
ATOM     14  C   UNL     1      44.369   4.417  10.863  0.00  0.00    +0.000 C 
ATOM     15  C   UNL     1      43.972   3.504  12.005  0.00  0.00    +0.000 C 
ATOM     16  C   UNL     1      42.918   3.967  11.059  0.00  0.00    +0.000 C 
BRANCH  14  20
ATOM     17  C   UNL     1      46.584   2.678   7.547  0.00  0.00    +0.000 A 
ATOM     18  C   UNL     1      46.455   4.065   7.638  0.00  0.00    +0.000 A 
ATOM     19  C   UNL     1      45.716   4.629   8.681  0.00  0.00    +0.000 A 
ATOM     20  C   UNL     1      45.099   3.827   9.660  0.00  0.00    +0.000 A 
ATOM     21  C   UNL     1      45.198   2.432   9.508  0.00  0.00    +0.000 A 
ATOM     22  C   UNL     1      45.942   1.860   8.474  0.00  0.00    +0.000 A 
BRANCH  17  24
ATOM     23  N   UNL     1      48.050   1.619   5.691  0.00  0.00    +0.000 NA
ATOM     24  C   UNL     1      47.385   2.097   6.517  0.00  0.00    +0.000 C 
ENDBRANCH  17  24
ENDBRANCH  14  20
ENDBRANCH   1  14
TORSDOF 4
ENDMDL
MODEL 4
REMARK VINA RESULT:    -7.730      2.962      6.773
REMARK INTER + INTRA:          -9.217
REMARK INTER:                  -8.777
REMARK INTRA:                  -0.440
REMARK UNBOUND:                 0.321
REMARK  Name = 
REMARK  4 active torsions:
REMARK  status: ('A' for Active; 'I' for Inactive)
REMARK    1  A    between atoms: C_2  and  C_3
REMARK    2  A    between atoms: C_6  and  C_7
REMARK    3  A    between atoms: C_7  and  N_8
REMARK    4  A    between atoms: C_12  and  C_13
REMARK                            x       y       z     vdW  Elec       q    Type
REMARK                         _______ _______ _______ _____ _____    ______ ____
ROOT
ATOM      1  N   UNL     1      44.900   6.300  11.602  0.00  0.00    +0.000 N 
ATOM      2  C   UNL     1      46.003   6.449  12.426  0.00  0.00    +0.000 A 
ATOM      3  C   UNL     1      46.879   5.436  12.819  0.00  0.00    +0.000 A 
ATOM      4  N   UNL     1      47.949   5.633  13.645  0.00  0.00    +0.000 NA
ATOM      5  C   UNL     1      48.121   6.923  14.047  0.00  0.00    +0.000 A 
ATOM      6  C   UNL     1      47.277   7.942  13.639  0.00  0.00    +0.000 A 
ATOM      7  N   UNL     1      46.210   7.723  12.831  0.00  0.00    +0.000 NA
ATOM      8  H   UNL     1      44.401   7.186  11.588  0.00  0.00    +0.000 HD
ENDROOT
BRANCH   5   9
ATOM      9  C   UNL     1      49.250   7.243  14.962  0.00  0.00    +0.000 C 
ATOM     10  N   UNL     1      50.489   7.381  14.399  0.00  0.00    +0.000 N 
ATOM     11  O   UNL     1      49.084   7.373  16.171  0.00  0.00    +0.000 OA
ATOM     12  H   UNL     1      50.630   7.271  13.402  0.00  0.00    +0.000 HD
ATOM     13  H   UNL     1      51.272   7.601  15.000  0.00  0.00    +0.000 HD
ENDBRANCH   5   9
BRANCH   1  14
ATOM     14  C   UNL     1      44.179   5.069  11.296  0.00  0.00    +0.000 C 
ATOM     15  C   UNL     1      43.312   4.367  12.322  0.00  0.00    +0.000 C 
ATOM     16  C   UNL     1      42.655   5.224  11.294  0.00  0.00    +0.000 C 
BRANCH  14  20
ATOM     17  C   UNL     1      46.002   2.698   8.137  0.00  0.00    +0.000 A 
ATOM     18  C   UNL     1      46.079   4.090   8.086  0.00  0.00    +0.000 A 
ATOM     19  C   UNL     1      45.467   4.859   9.078  0.00  0.00    +0.000 A 
ATOM     20  C   UNL     1      44.773   4.260  10.147  0.00  0.00    +0.000 A 
ATOM     21  C   UNL     1      44.663   2.858  10.139  0.00  0.00    +0.000 A 
ATOM     22  C   UNL     1      45.280   2.081   9.157  0.00  0.00    +0.000 A 
BRANCH  17  24
ATOM     23  N   UNL     1      47.231   1.250   6.374  0.00  0.00    +0.000 NA
ATOM     24  C   UNL     1      46.674   1.905   7.158  0.00  0.00    +0.000 C 
ENDBRANCH  17  24
ENDBRANCH  14  20
ENDBRANCH   1  14
TORSDOF 4
ENDMDL
MODEL 5
REMARK VINA RESULT:    -7.488      1.641      2.314
REMARK INTER + INTRA:          -8.917
REMARK INTER:                  -8.561
REMARK INTRA:                  -0.356
REMARK UNBOUND:                 0.321
REMARK  Name = 
REMARK  4 active torsions:
REMARK  status: ('A' for Active; 'I' for Inactive)
REMARK    1  A    between atoms: C_2  and  C_3
REMARK    2  A    between atoms: C_6  and  C_7
REMARK    3  A    between atoms: C_7  and  N_8
REMARK    4  A    between atoms: C_12  and  C_13
REMARK                            x       y       z     vdW  Elec       q    Type
REMARK                         _______ _______ _______ _____ _____    ______ ____
ROOT
ATOM      1  N   UNL     1      44.580   3.956  11.153  0.00  0.00    +0.000 N 
ATOM      2  C   UNL     1      45.207   3.765   9.934  0.00  0.00    +0.000 A 
ATOM      3  C   UNL     1      45.758   4.761   9.127  0.00  0.00    +0.000 A 
ATOM      4  N   UNL     1      46.357   4.521   7.923  0.00  0.00    +0.000 NA
ATOM      5  C   UNL     1      46.406   3.206   7.569  0.00  0.00    +0.000 A 
ATOM      6  C   UNL     1      45.890   2.206   8.375  0.00  0.00    +0.000 A 
ATOM      7  N   UNL     1      45.283   2.467   9.560  0.00  0.00    +0.000 NA
ATOM      8  H   UNL     1      44.190   3.063  11.445  0.00  0.00    +0.000 HD
ENDROOT
BRANCH   5   9
ATOM      9  C   UNL     1      47.025   2.838   6.267  0.00  0.00    +0.000 C 
ATOM     10  N   UNL     1      48.361   2.541   6.275  0.00  0.00    +0.000 N 
ATOM     11  O   UNL     1      46.374   2.805   5.228  0.00  0.00    +0.000 OA
ATOM     12  H   UNL     1      48.902   2.570   7.130  0.00  0.00    +0.000 HD
ATOM     13  H   UNL     1      48.804   2.285   5.402  0.00  0.00    +0.000 HD
ENDBRANCH   5   9
BRANCH   1  14
ATOM     14  C   UNL     1      44.002   5.192  11.671  0.00  0.00    +0.000 C 
ATOM     15  C   UNL     1      42.582   5.612  11.353  0.00  0.00    +0.000 C 
ATOM     16  C   UNL     1      42.862   4.975  12.671  0.00  0.00    +0.000 C 
BRANCH  14  20
ATOM     17  C   UNL     1      46.872   8.218  12.906  0.00  0.00    +0.000 A 
ATOM     18  C   UNL     1      45.783   8.584  12.113  0.00  0.00    +0.000 A 
ATOM     19  C   UNL     1      44.876   7.612  11.684  0.00  0.00    +0.000 A 
ATOM     20  C   UNL     1      45.027   6.259  12.042  0.00  0.00    +0.000 A 
ATOM     21  C   UNL     1      46.166   5.913  12.793  0.00  0.00    +0.000 A 
ATOM     22  C   UNL     1      47.072   6.879  13.233  0.00  0.00    +0.000 A 
BRANCH  17  24
ATOM     23  N   UNL     1      48.517  10.015  13.792  0.00  0.00    +0.000 NA
ATOM     24  C   UNL     1      47.771   9.215  13.395  0.00  0.00    +0.000 C 
ENDBRANCH  17  24
ENDBRANCH  14  20
ENDBRANCH   1  14
TORSDOF 4
ENDMDL
MODEL 6
REMARK VINA RESULT:    -6.536      4.320      6.846
REMARK INTER + INTRA:          -7.743
REMARK INTER:                  -7.529
REMARK INTRA:                  -0.213
REMARK UNBOUND:                 0.321
REMARK  Name = 
REMARK  4 active torsions:
REMARK  status: ('A' for Active; 'I' for Inactive)
REMARK    1  A    between atoms: C_2  and  C_3
REMARK    2  A    between atoms: C_6  and  C_7
REMARK    3  A    between atoms: C_7  and  N_8
REMARK    4  A    between atoms: C_12  and  C_13
REMARK                            x       y       z     vdW  Elec       q    Type
REMARK                         _______ _______ _______ _____ _____    ______ ____
ROOT
ATOM      1  N   UNL     1      47.158   4.023  15.841  0.00  0.00    +0.000 N 
ATOM      2  C   UNL     1      46.840   4.596  14.621  0.00  0.00    +0.000 A 
ATOM      3  C   UNL     1      47.549   5.612  13.979  0.00  0.00    +0.000 A 
ATOM      4  N   UNL     1      47.186   6.152  12.779  0.00  0.00    +0.000 NA
ATOM      5  C   UNL     1      46.072   5.598  12.224  0.00  0.00    +0.000 A 
ATOM      6  C   UNL     1      45.378   4.570  12.837  0.00  0.00    +0.000 A 
ATOM      7  N   UNL     1      45.744   4.057  14.038  0.00  0.00    +0.000 NA
ATOM      8  H   UNL     1      46.401   3.393  16.095  0.00  0.00    +0.000 HD
ENDROOT
BRANCH   5   9
ATOM      9  C   UNL     1      45.582   6.127  10.922  0.00  0.00    +0.000 C 
ATOM     10  N   UNL     1      44.711   7.181  10.966  0.00  0.00    +0.000 N 
ATOM     11  O   UNL     1      45.936   5.640   9.853  0.00  0.00    +0.000 OA
ATOM     12  H   UNL     1      44.414   7.583  11.846  0.00  0.00    +0.000 HD
ATOM     13  H   UNL     1      44.366   7.559  10.093  0.00  0.00    +0.000 HD
ENDBRANCH   5   9
BRANCH   1  14
ATOM     14  C   UNL     1      48.008   4.578  16.889  0.00  0.00    +0.000 C 
ATOM     15  C   UNL     1      47.931   6.034  17.301  0.00  0.00    +0.000 C 
ATOM     16  C   UNL     1      47.245   5.013  18.144  0.00  0.00    +0.000 C 
BRANCH  14  20
ATOM     17  C   UNL     1      51.622   2.298  17.705  0.00  0.00    +0.000 A 
ATOM     18  C   UNL     1      51.628   3.683  17.873  0.00  0.00    +0.000 A 
ATOM     19  C   UNL     1      50.482   4.426  17.581  0.00  0.00    +0.000 A 
ATOM     20  C   UNL     1      49.303   3.807  17.124  0.00  0.00    +0.000 A 
ATOM     21  C   UNL     1      49.347   2.417  16.908  0.00  0.00    +0.000 A 
ATOM     22  C   UNL     1      50.484   1.666  17.207  0.00  0.00    +0.000 A 
BRANCH  17  24
ATOM     23  N   UNL     1      53.703   0.886  18.330  0.00  0.00    +0.000 NA
ATOM     24  C   UNL     1      52.771   1.526  18.057  0.00  0.00    +0.000 C 
ENDBRANCH  17  24
ENDBRANCH  14  20
ENDBRANCH   1  14
TORSDOF 4
ENDMDL
MODEL 7
REMARK VINA RESULT:    -6.069      3.790      5.378
REMARK INTER + INTRA:          -7.167
REMARK INTER:                  -6.971
REMARK INTRA:                  -0.196
REMARK UNBOUND:                 0.321
REMARK  Name = 
REMARK  4 active torsions:
REMARK  status: ('A' for Active; 'I' for Inactive)
REMARK    1  A    between atoms: C_2  and  C_3
REMARK    2  A    between atoms: C_6  and  C_7
REMARK    3  A    between atoms: C_7  and  N_8
REMARK    4  A    between atoms: C_12  and  C_13
REMARK                            x       y       z     vdW  Elec       q    Type
REMARK                         _______ _______ _______ _____ _____    ______ ____
ROOT
ATOM      1  N   UNL     1      47.456   6.647  13.164  0.00  0.00    +0.000 N 
ATOM      2  C   UNL     1      46.606   5.761  12.524  0.00  0.00    +0.000 A 
ATOM      3  C   UNL     1      46.009   5.947  11.276  0.00  0.00    +0.000 A 
ATOM      4  N   UNL     1      45.166   5.044  10.694  0.00  0.00    +0.000 NA
ATOM      5  C   UNL     1      44.965   3.909  11.421  0.00  0.00    +0.000 A 
ATOM      6  C   UNL     1      45.575   3.700  12.645  0.00  0.00    +0.000 A 
ATOM      7  N   UNL     1      46.396   4.617  13.215  0.00  0.00    +0.000 NA
ATOM      8  H   UNL     1      47.638   6.286  14.096  0.00  0.00    +0.000 HD
ENDROOT
BRANCH   5   9
ATOM      9  C   UNL     1      44.049   2.867  10.881  0.00  0.00    +0.000 C 
ATOM     10  N   UNL     1      44.472   2.179   9.776  0.00  0.00    +0.000 N 
ATOM     11  O   UNL     1      42.961   2.634  11.396  0.00  0.00    +0.000 OA
ATOM     12  H   UNL     1      45.368   2.371   9.347  0.00  0.00    +0.000 HD
ATOM     13  H   UNL     1      43.868   1.464   9.392  0.00  0.00    +0.000 HD
ENDBRANCH   5   9
BRANCH   1  14
ATOM     14  C   UNL     1      47.603   8.077  12.910  0.00  0.00    +0.000 C 
ATOM     15  C   UNL     1      46.416   9.018  12.893  0.00  0.00    +0.000 C 
ATOM     16  C   UNL     1      47.267   8.961  14.114  0.00  0.00    +0.000 C 
BRANCH  14  20
ATOM     17  C   UNL     1      51.287   9.115  10.842  0.00  0.00    +0.000 A 
ATOM     18  C   UNL     1      50.336  10.104  11.094  0.00  0.00    +0.000 A 
ATOM     19  C   UNL     1      49.136   9.772  11.727  0.00  0.00    +0.000 A 
ATOM     20  C   UNL     1      48.860   8.452  12.131  0.00  0.00    +0.000 A 
ATOM     21  C   UNL     1      49.813   7.468  11.811  0.00  0.00    +0.000 A 
ATOM     22  C   UNL     1      51.018   7.792  11.187  0.00  0.00    +0.000 A 
BRANCH  17  24
ATOM     23  N   UNL     1      53.561   9.719   9.756  0.00  0.00    +0.000 NA
ATOM     24  C   UNL     1      52.540   9.457  10.247  0.00  0.00    +0.000 C 
ENDBRANCH  17  24
ENDBRANCH  14  20
ENDBRANCH   1  14
TORSDOF 4
ENDMDL
MODEL 8
REMARK VINA RESULT:    -6.019      3.558      4.948
REMARK INTER + INTRA:          -7.105
REMARK INTER:                  -7.051
REMARK INTRA:                  -0.054
REMARK UNBOUND:                 0.321
REMARK  Name = 
REMARK  4 active torsions:
REMARK  status: ('A' for Active; 'I' for Inactive)
REMARK    1  A    between atoms: C_2  and  C_3
REMARK    2  A    between atoms: C_6  and  C_7
REMARK    3  A    between atoms: C_7  and  N_8
REMARK    4  A    between atoms: C_12  and  C_13
REMARK                            x       y       z     vdW  Elec       q    Type
REMARK                         _______ _______ _______ _____ _____    ______ ____
ROOT
ATOM      1  N   UNL     1      45.079   7.947  12.723  0.00  0.00    +0.000 N 
ATOM      2  C   UNL     1      44.814   6.677  12.237  0.00  0.00    +0.000 A 
ATOM      3  C   UNL     1      45.179   6.184  10.983  0.00  0.00    +0.000 A 
ATOM      4  N   UNL     1      44.882   4.925  10.546  0.00  0.00    +0.000 NA
ATOM      5  C   UNL     1      44.213   4.156  11.450  0.00  0.00    +0.000 A 
ATOM      6  C   UNL     1      43.873   4.624  12.707  0.00  0.00    +0.000 A 
ATOM      7  N   UNL     1      44.162   5.884  13.117  0.00  0.00    +0.000 NA
ATOM      8  H   UNL     1      44.598   8.045  13.613  0.00  0.00    +0.000 HD
ENDROOT
BRANCH   5   9
ATOM      9  C   UNL     1      43.828   2.771  11.066  0.00  0.00    +0.000 C 
ATOM     10  N   UNL     1      44.499   2.207  10.015  0.00  0.00    +0.000 N 
ATOM     11  O   UNL     1      42.945   2.158  11.657  0.00  0.00    +0.000 OA
ATOM     12  H   UNL     1      45.226   2.710   9.523  0.00  0.00    +0.000 HD
ATOM     13  H   UNL     1      44.257   1.264   9.736  0.00  0.00    +0.000 HD
ENDBRANCH   5   9
BRANCH   1  14
ATOM     14  C   UNL     1      45.411   9.142  11.954  0.00  0.00    +0.000 C 
ATOM     15  C   UNL     1      44.488   9.696  10.889  0.00  0.00    +0.000 C 
ATOM     16  C   UNL     1      44.495  10.337  12.234  0.00  0.00    +0.000 C 
BRANCH  14  20
ATOM     17  C   UNL     1      49.655  10.005  11.541  0.00  0.00    +0.000 A 
ATOM     18  C   UNL     1      49.249   8.767  12.040  0.00  0.00    +0.000 A 
ATOM     19  C   UNL     1      47.889   8.495  12.208  0.00  0.00    +0.000 A 
ATOM     20  C   UNL     1      46.904   9.445  11.874  0.00  0.00    +0.000 A 
ATOM     21  C   UNL     1      47.347  10.703  11.429  0.00  0.00    +0.000 A 
ATOM     22  C   UNL     1      48.703  10.980  11.250  0.00  0.00    +0.000 A 
BRANCH  17  24
ATOM     23  N   UNL     1      52.167  10.498  11.139  0.00  0.00    +0.000 NA
ATOM     24  C   UNL     1      51.039  10.269  11.313  0.00  0.00    +0.000 C 
ENDBRANCH  17  24
ENDBRANCH  14  20
ENDBRANCH   1  14
TORSDOF 4
ENDMDL
MODEL 9
REMARK VINA RESULT:    -5.955      3.439      5.245
REMARK INTER + INTRA:          -7.027
REMARK INTER:                  -6.575
REMARK INTRA:                  -0.452
REMARK UNBOUND:                 0.321
REMARK  Name = 
REMARK  4 active torsions:
REMARK  status: ('A' for Active; 'I' for Inactive)
REMARK    1  A    between atoms: C_2  and  C_3
REMARK    2  A    between atoms: C_6  and  C_7
REMARK    3  A    between atoms: C_7  and  N_8
REMARK    4  A    between atoms: C_12  and  C_13
REMARK                            x       y       z     vdW  Elec       q    Type
REMARK                         _______ _______ _______ _____ _____    ______ ____
ROOT
ATOM      1  N   UNL     1      47.008   7.972  12.297  0.00  0.00    +0.000 N 
ATOM      2  C   UNL     1      46.293   6.792  12.175  0.00  0.00    +0.000 A 
ATOM      3  C   UNL     1      46.618   5.568  12.762  0.00  0.00    +0.000 A 
ATOM      4  N   UNL     1      45.884   4.428  12.600  0.00  0.00    +0.000 NA
ATOM      5  C   UNL     1      44.771   4.577  11.829  0.00  0.00    +0.000 A 
ATOM      6  C   UNL     1      44.422   5.793  11.267  0.00  0.00    +0.000 A 
ATOM      7  N   UNL     1      45.173   6.911  11.426  0.00  0.00    +0.000 NA
ATOM      8  H   UNL     1      46.588   8.655  11.673  0.00  0.00    +0.000 HD
ENDROOT
BRANCH   5   9
ATOM      9  C   UNL     1      43.910   3.390  11.578  0.00  0.00    +0.000 C 
ATOM     10  N   UNL     1      43.741   2.513  12.614  0.00  0.00    +0.000 N 
ATOM     11  O   UNL     1      43.377   3.198  10.490  0.00  0.00    +0.000 OA
ATOM     12  H   UNL     1      44.182   2.667  13.512  0.00  0.00    +0.000 HD
ATOM     13  H   UNL     1      43.157   1.699  12.468  0.00  0.00    +0.000 HD
ENDBRANCH   5   9
BRANCH   1  14
ATOM     14  C   UNL     1      48.404   8.128  12.694  0.00  0.00    +0.000 C 
ATOM     15  C   UNL     1      49.548   7.755  11.775  0.00  0.00    +0.000 C 
ATOM     16  C   UNL     1      49.163   9.189  11.892  0.00  0.00    +0.000 C 
BRANCH  14  20
ATOM     17  C   UNL     1      48.943   7.997  17.009  0.00  0.00    +0.000 A 
ATOM     18  C   UNL     1      48.256   9.066  16.432  0.00  0.00    +0.000 A 
ATOM     19  C   UNL     1      48.109   9.133  15.045  0.00  0.00    +0.000 A 
ATOM     20  C   UNL     1      48.632   8.134  14.202  0.00  0.00    +0.000 A 
ATOM     21  C   UNL     1      49.369   7.100  14.809  0.00  0.00    +0.000 A 
ATOM     22  C   UNL     1      49.514   7.021  16.195  0.00  0.00    +0.000 A 
BRANCH  17  24
ATOM     23  N   UNL     1      49.146   7.822  19.586  0.00  0.00    +0.000 NA
ATOM     24  C   UNL     1      49.048   7.893  18.429  0.00  0.00    +0.000 C 
ENDBRANCH  17  24
ENDBRANCH  14  20
ENDBRANCH   1  14
TORSDOF 4
ENDMDL
