MODEL 1
REMARK VINA RESULT:    -9.143      0.000      0.000
REMARK INTER + INTRA:         -12.081
REMARK INTER:                 -11.281
REMARK INTRA:                  -0.800
REMARK UNBOUND:                -0.800
REMARK  Name = 
REMARK  4 active torsions:
REMARK  status: ('A' for Active; 'I' for Inactive)
REMARK    1  A    between atoms: C_2  and  C_4
REMARK    2  A    between atoms: N_8  and  C_9
REMARK    3  A    between atoms: C_9  and  C_10
REMARK    4  A    between atoms: C_14  and  N_15
REMARK                            x       y       z     vdW  Elec       q    Type
REMARK                         _______ _______ _______ _____ _____    ______ ____
ROOT
ATOM      1  C   UNL     1      46.363   2.259   7.658  0.00  0.00    +0.000 A 
ATOM      2  C   UNL     1      45.609   1.802   8.732  0.00  0.00    +0.000 A 
ATOM      3  C   UNL     1      44.773   2.696   9.406  0.00  0.00    +0.000 A 
ATOM      4  C   UNL     1      44.705   4.025   9.000  0.00  0.00    +0.000 A 
ATOM      5  N   UNL     1      43.854   4.951   9.554  0.00  0.00    +0.000 N 
ATOM      6  N   UNL     1      45.442   4.481   7.966  0.00  0.00    +0.000 NA
ATOM      7  C   UNL     1      46.260   3.601   7.326  0.00  0.00    +0.000 A 
ATOM      8  H   UNL     1      44.017   5.864   9.144  0.00  0.00    +0.000 HD
ENDROOT
BRANCH   1  10
ATOM      9  N   UNL     1      48.316   1.980   6.243  0.00  0.00    +0.000 N 
ATOM     10  C   UNL     1      47.261   1.387   6.877  0.00  0.00    +0.000 C 
ATOM     11  O   UNL     1      47.091   0.175   6.827  0.00  0.00    +0.000 OA
ATOM     12  H   UNL     1      48.982   1.359   5.801  0.00  0.00    +0.000 HD
ATOM     13  H   UNL     1      48.635   2.913   6.475  0.00  0.00    +0.000 HD
ENDBRANCH   1  10
BRANCH   5  14
ATOM     14  C   UNL     1      43.437   4.936  10.942  0.00  0.00    +0.000 C 
BRANCH  14  15
ATOM     15  C   UNL     1      44.541   5.067  11.957  0.00  0.00    +0.000 A 
ATOM     16  C   UNL     1      44.666   4.068  12.920  0.00  0.00    +0.000 A 
ATOM     17  N   UNL     1      45.611   4.044  13.879  0.00  0.00    +0.000 NA
ATOM     18  C   UNL     1      46.485   5.081  13.881  0.00  0.00    +0.000 A 
ATOM     19  C   UNL     1      46.483   6.155  12.987  0.00  0.00    +0.000 A 
ATOM     20  C   UNL     1      45.470   6.115  12.016  0.00  0.00    +0.000 A 
BRANCH  19  21
ATOM     21  N   UNL     1      47.404   7.183  13.039  0.00  0.00    +0.000 N 
ATOM     22  C   UNL     1      47.012   8.566  13.312  0.00  0.00    +0.000 C 
ATOM     23  C   UNL     1      47.402   9.456  12.135  0.00  0.00    +0.000 C 
ATOM     24  C   UNL     1      48.881   9.295  11.789  0.00  0.00    +0.000 C 
ATOM     25  C   UNL     1      49.241   7.827  11.569  0.00  0.00    +0.000 C 
ATOM     26  C   UNL     1      48.823   6.958  12.756  0.00  0.00    +0.000 C 
ENDBRANCH  19  21
ENDBRANCH  14  15
ENDBRANCH   5  14
TORSDOF 4
ENDMDL
MODEL 2
REMARK VINA RESULT:    -8.237      1.485      2.736
REMARK INTER + INTRA:         -10.963
REMARK INTER:                 -10.227
REMARK INTRA:                  -0.736
REMARK UNBOUND:                -0.800
REMARK  Name = 
REMARK  4 active torsions:
REMARK  status: ('A' for Active; 'I' for Inactive)
REMARK    1  A    between atoms: C_2  and  C_4
REMARK    2  A    between atoms: N_8  and  C_9
REMARK    3  A    between atoms: C_9  and  C_10
REMARK    4  A    between atoms: C_14  and  N_15
REMARK                            x       y       z     vdW  Elec       q    Type
REMARK                         _______ _______ _______ _____ _____    ______ ____
ROOT
ATOM      1  C   UNL     1      46.367   2.185   7.650  0.00  0.00    +0.000 A 
ATOM      2  C   UNL     1      45.726   1.803   8.822  0.00  0.00    +0.000 A 
ATOM      3  C   UNL     1      44.888   2.716   9.468  0.00  0.00    +0.000 A 
ATOM      4  C   UNL     1      44.709   3.989   8.939  0.00  0.00    +0.000 A 
ATOM      5  N   UNL     1      43.846   4.921   9.466  0.00  0.00    +0.000 N 
ATOM      6  N   UNL     1      45.338   4.374   7.809  0.00  0.00    +0.000 NA
ATOM      7  C   UNL     1      46.158   3.478   7.196  0.00  0.00    +0.000 A 
ATOM      8  H   UNL     1      43.922   5.794   8.954  0.00  0.00    +0.000 HD
ENDROOT
BRANCH   1  10
ATOM      9  N   UNL     1      48.282   1.860   6.193  0.00  0.00    +0.000 N 
ATOM     10  C   UNL     1      47.257   1.286   6.890  0.00  0.00    +0.000 C 
ATOM     11  O   UNL     1      47.107   0.071   6.911  0.00  0.00    +0.000 OA
ATOM     12  H   UNL     1      48.945   1.226   5.765  0.00  0.00    +0.000 HD
ATOM     13  H   UNL     1      48.591   2.808   6.364  0.00  0.00    +0.000 HD
ENDBRANCH   1  10
BRANCH   5  14
ATOM     14  C   UNL     1      43.536   5.028  10.877  0.00  0.00    +0.000 C 
BRANCH  14  15
ATOM     15  C   UNL     1      44.507   5.833  11.700  0.00  0.00    +0.000 A 
ATOM     16  C   UNL     1      44.419   7.222  11.641  0.00  0.00    +0.000 A 
ATOM     17  N   UNL     1      45.208   8.068  12.330  0.00  0.00    +0.000 NA
ATOM     18  C   UNL     1      46.145   7.495  13.126  0.00  0.00    +0.000 A 
ATOM     19  C   UNL     1      46.356   6.122  13.283  0.00  0.00    +0.000 A 
ATOM     20  C   UNL     1      45.499   5.301  12.535  0.00  0.00    +0.000 A 
BRANCH  19  21
ATOM     21  N   UNL     1      47.328   5.599  14.114  0.00  0.00    +0.000 N 
ATOM     22  C   UNL     1      47.201   4.274  14.723  0.00  0.00    +0.000 C 
ATOM     23  C   UNL     1      47.216   4.400  16.244  0.00  0.00    +0.000 C 
ATOM     24  C   UNL     1      48.442   5.178  16.719  0.00  0.00    +0.000 C 
ATOM     25  C   UNL     1      48.551   6.527  16.010  0.00  0.00    +0.000 C 
ATOM     26  C   UNL     1      48.515   6.371  14.489  0.00  0.00    +0.000 C 
ENDBRANCH  19  21
ENDBRANCH  14  15
ENDBRANCH   5  14
TORSDOF 4
ENDMDL
MODEL 3
REMARK VINA RESULT:    -7.411      1.548      2.176
REMARK INTER + INTRA:          -9.944
REMARK INTER:                  -9.445
REMARK INTRA:                  -0.499
REMARK UNBOUND:                -0.800
REMARK  Name = 
REMARK  4 active torsions:
REMARK  status: ('A' for Active; 'I' for Inactive)
REMARK    1  A    between atoms: C_2  and  C_4
REMARK    2  A    between atoms: N_8  and  C_9
REMARK    3  A    between atoms: C_9  and  C_10
REMARK    4  A    between atoms: C_14  and  N_15
REMARK                            x       y       z     vdW  Elec       q    Type
REMARK                         _______ _______ _______ _____ _____    ______ ____
ROOT
ATOM      1  C   UNL     1      46.639   2.543   7.190  0.00  0.00    +0.000 A 
ATOM      2  C   UNL     1      46.113   3.754   7.624  0.00  0.00    +0.000 A 
ATOM      3  C   UNL     1      45.371   3.787   8.809  0.00  0.00    +0.000 A 
ATOM      4  C   UNL     1      45.165   2.618   9.533  0.00  0.00    +0.000 A 
ATOM      5  N   UNL     1      44.516   2.573  10.744  0.00  0.00    +0.000 N 
ATOM      6  N   UNL     1      45.662   1.436   9.111  0.00  0.00    +0.000 NA
ATOM      7  C   UNL     1      46.373   1.417   7.952  0.00  0.00    +0.000 A 
ATOM      8  H   UNL     1      44.432   1.612  11.059  0.00  0.00    +0.000 HD
ENDROOT
BRANCH   1  10
ATOM      9  N   UNL     1      47.226   3.322   4.965  0.00  0.00    +0.000 N 
ATOM     10  C   UNL     1      47.447   2.413   5.962  0.00  0.00    +0.000 C 
ATOM     11  O   UNL     1      48.308   1.549   5.852  0.00  0.00    +0.000 OA
ATOM     12  H   UNL     1      47.858   3.287   4.176  0.00  0.00    +0.000 HD
ATOM     13  H   UNL     1      46.727   4.188   5.122  0.00  0.00    +0.000 HD
ENDBRANCH   1  10
BRANCH   5  14
ATOM     14  C   UNL     1      43.440   3.468  11.117  0.00  0.00    +0.000 C 
BRANCH  14  15
ATOM     15  C   UNL     1      43.841   4.893  11.394  0.00  0.00    +0.000 A 
ATOM     16  C   UNL     1      42.995   5.908  10.955  0.00  0.00    +0.000 A 
ATOM     17  N   UNL     1      43.216   7.223  11.142  0.00  0.00    +0.000 NA
ATOM     18  C   UNL     1      44.353   7.547  11.807  0.00  0.00    +0.000 A 
ATOM     19  C   UNL     1      45.299   6.644  12.300  0.00  0.00    +0.000 A 
ATOM     20  C   UNL     1      45.004   5.292  12.067  0.00  0.00    +0.000 A 
BRANCH  19  21
ATOM     21  N   UNL     1      46.439   7.038  12.972  0.00  0.00    +0.000 N 
ATOM     22  C   UNL     1      46.660   8.425  13.384  0.00  0.00    +0.000 C 
ATOM     23  C   UNL     1      47.925   8.966  12.724  0.00  0.00    +0.000 C 
ATOM     24  C   UNL     1      49.119   8.051  12.989  0.00  0.00    +0.000 C 
ATOM     25  C   UNL     1      48.810   6.608  12.590  0.00  0.00    +0.000 C 
ATOM     26  C   UNL     1      47.528   6.101  13.252  0.00  0.00    +0.000 C 
ENDBRANCH  19  21
ENDBRANCH  14  15
ENDBRANCH   5  14
TORSDOF 4
ENDMDL
MODEL 4
REMARK VINA RESULT:    -7.215      4.157      8.220
REMARK INTER + INTRA:          -9.702
REMARK INTER:                  -9.204
REMARK INTRA:                  -0.499
REMARK UNBOUND:                -0.800
REMARK  Name = 
REMARK  4 active torsions:
REMARK  status: ('A' for Active; 'I' for Inactive)
REMARK    1  A    between atoms: C_2  and  C_4
REMARK    2  A    between atoms: N_8  and  C_9
REMARK    3  A    between atoms: C_9  and  C_10
REMARK    4  A    between atoms: C_14  and  N_15
REMARK                            x       y       z     vdW  Elec       q    Type
REMARK                         _______ _______ _______ _____ _____    ______ ____
ROOT
ATOM      1  C   UNL     1      48.971   4.455  18.131  0.00  0.00    +0.000 A 
ATOM      2  C   UNL     1      48.971   5.517  17.235  0.00  0.00    +0.000 A 
ATOM      3  C   UNL     1      48.089   5.494  16.151  0.00  0.00    +0.000 A 
ATOM      4  C   UNL     1      47.229   4.415  15.978  0.00  0.00    +0.000 A 
ATOM      5  N   UNL     1      46.279   4.346  14.988  0.00  0.00    +0.000 N 
ATOM      6  N   UNL     1      47.231   3.373  16.836  0.00  0.00    +0.000 NA
ATOM      7  C   UNL     1      48.102   3.405  17.880  0.00  0.00    +0.000 A 
ATOM      8  H   UNL     1      45.809   3.448  15.018  0.00  0.00    +0.000 HD
ENDROOT
BRANCH   1  10
ATOM      9  N   UNL     1      49.256   4.331  20.539  0.00  0.00    +0.000 N 
ATOM     10  C   UNL     1      49.854   4.398  19.312  0.00  0.00    +0.000 C 
ATOM     11  O   UNL     1      51.073   4.376  19.198  0.00  0.00    +0.000 OA
ATOM     12  H   UNL     1      49.870   4.185  21.331  0.00  0.00    +0.000 HD
ATOM     13  H   UNL     1      48.282   4.082  20.656  0.00  0.00    +0.000 HD
ENDBRANCH   1  10
BRANCH   5  14
ATOM     14  C   UNL     1      46.432   4.948  13.678  0.00  0.00    +0.000 C 
BRANCH  14  15
ATOM     15  C   UNL     1      45.348   4.629  12.683  0.00  0.00    +0.000 A 
ATOM     16  C   UNL     1      44.029   4.892  13.045  0.00  0.00    +0.000 A 
ATOM     17  N   UNL     1      42.960   4.673  12.256  0.00  0.00    +0.000 NA
ATOM     18  C   UNL     1      43.222   4.156  11.029  0.00  0.00    +0.000 A 
ATOM     19  C   UNL     1      44.487   3.835  10.529  0.00  0.00    +0.000 A 
ATOM     20  C   UNL     1      45.552   4.088  11.406  0.00  0.00    +0.000 A 
BRANCH  19  21
ATOM     21  N   UNL     1      44.688   3.311   9.266  0.00  0.00    +0.000 N 
ATOM     22  C   UNL     1      44.714   1.869   9.017  0.00  0.00    +0.000 C 
ATOM     23  C   UNL     1      46.069   1.469   8.439  0.00  0.00    +0.000 C 
ATOM     24  C   UNL     1      46.414   2.309   7.211  0.00  0.00    +0.000 C 
ATOM     25  C   UNL     1      46.317   3.803   7.518  0.00  0.00    +0.000 C 
ATOM     26  C   UNL     1      44.956   4.171   8.112  0.00  0.00    +0.000 C 
ENDBRANCH  19  21
ENDBRANCH  14  15
ENDBRANCH   5  14
TORSDOF 4
ENDMDL
MODEL 5
REMARK VINA RESULT:    -7.038      1.628      2.144
REMARK INTER + INTRA:          -9.483
REMARK INTER:                  -8.854
REMARK INTRA:                  -0.629
REMARK UNBOUND:                -0.800
REMARK  Name = 
REMARK  4 active torsions:
REMARK  status: ('A' for Active; 'I' for Inactive)
REMARK    1  A    between atoms: C_2  and  C_4
REMARK    2  A    between atoms: N_8  and  C_9
REMARK    3  A    between atoms: C_9  and  C_10
REMARK    4  A    between atoms: C_14  and  N_15
REMARK                            x       y       z     vdW  Elec       q    Type
REMARK                         _______ _______ _______ _____ _____    ______ ____
ROOT
ATOM      1  C   UNL     1      46.284   2.018   7.924  0.00  0.00    +0.000 A 
ATOM      2  C   UNL     1      45.587   1.807   9.107  0.00  0.00    +0.000 A 
ATOM      3  C   UNL     1      44.873   2.867   9.675  0.00  0.00    +0.000 A 
ATOM      4  C   UNL     1      44.872   4.113   9.057  0.00  0.00    +0.000 A 
ATOM      5  N   UNL     1      44.137   5.186   9.502  0.00  0.00    +0.000 N 
ATOM      6  N   UNL     1      45.556   4.330   7.914  0.00  0.00    +0.000 NA
ATOM      7  C   UNL     1      46.254   3.291   7.380  0.00  0.00    +0.000 A 
ATOM      8  H   UNL     1      44.333   6.003   8.934  0.00  0.00    +0.000 HD
ENDROOT
BRANCH   1  10
ATOM      9  N   UNL     1      46.767  -0.337   7.580  0.00  0.00    +0.000 N 
ATOM     10  C   UNL     1      47.051   0.957   7.244  0.00  0.00    +0.000 C 
ATOM     11  O   UNL     1      47.884   1.220   6.385  0.00  0.00    +0.000 OA
ATOM     12  H   UNL     1      47.223  -1.055   7.031  0.00  0.00    +0.000 HD
ATOM     13  H   UNL     1      45.922  -0.597   8.073  0.00  0.00    +0.000 HD
ENDBRANCH   1  10
BRANCH   5  14
ATOM     14  C   UNL     1      43.830   5.432  10.897  0.00  0.00    +0.000 C 
BRANCH  14  15
ATOM     15  C   UNL     1      44.481   6.647  11.504  0.00  0.00    +0.000 A 
ATOM     16  C   UNL     1      43.877   7.885  11.294  0.00  0.00    +0.000 A 
ATOM     17  N   UNL     1      44.335   9.052  11.785  0.00  0.00    +0.000 NA
ATOM     18  C   UNL     1      45.467   8.982  12.529  0.00  0.00    +0.000 A 
ATOM     19  C   UNL     1      46.186   7.819  12.819  0.00  0.00    +0.000 A 
ATOM     20  C   UNL     1      45.652   6.642  12.274  0.00  0.00    +0.000 A 
BRANCH  19  21
ATOM     21  N   UNL     1      47.334   7.814  13.587  0.00  0.00    +0.000 N 
ATOM     22  C   UNL     1      47.731   8.963  14.402  0.00  0.00    +0.000 C 
ATOM     23  C   UNL     1      49.095   9.475  13.945  0.00  0.00    +0.000 C 
ATOM     24  C   UNL     1      50.128   8.349  13.928  0.00  0.00    +0.000 C 
ATOM     25  C   UNL     1      49.634   7.158  13.108  0.00  0.00    +0.000 C 
ATOM     26  C   UNL     1      48.259   6.679  13.577  0.00  0.00    +0.000 C 
ENDBRANCH  19  21
ENDBRANCH  14  15
ENDBRANCH   5  14
TORSDOF 4
ENDMDL
MODEL 6
REMARK VINA RESULT:    -6.509      5.035      8.158
REMARK INTER + INTRA:          -8.831
REMARK INTER:                  -8.200
REMARK INTRA:                  -0.631
REMARK UNBOUND:                -0.800
REMARK  Name = 
REMARK  4 active torsions:
REMARK  status: ('A' for Active; 'I' for Inactive)
REMARK    1  A    between atoms: C_2  and  C_4
REMARK    2  A    between atoms: N_8  and  C_9
REMARK    3  A    between atoms: C_9  and  C_10
REMARK    4  A    between atoms: C_14  and  N_15
REMARK                            x       y       z     vdW  Elec       q    Type
REMARK                         _______ _______ _______ _____ _____    ______ ____
ROOT
ATOM      1  C   UNL     1      51.751   2.460  17.750  0.00  0.00    +0.000 A 
ATOM      2  C   UNL     1      51.064   3.570  18.227  0.00  0.00    +0.000 A 
ATOM      3  C   UNL     1      49.733   3.762  17.847  0.00  0.00    +0.000 A 
ATOM      4  C   UNL     1      49.114   2.850  16.999  0.00  0.00    +0.000 A 
ATOM      5  N   UNL     1      47.789   2.919  16.638  0.00  0.00    +0.000 N 
ATOM      6  N   UNL     1      49.776   1.776  16.521  0.00  0.00    +0.000 NA
ATOM      7  C   UNL     1      51.075   1.608  16.891  0.00  0.00    +0.000 A 
ATOM      8  H   UNL     1      47.572   2.187  15.971  0.00  0.00    +0.000 HD
ENDROOT
BRANCH   1  10
ATOM      9  N   UNL     1      53.516   2.345  19.413  0.00  0.00    +0.000 N 
ATOM     10  C   UNL     1      53.151   2.166  18.108  0.00  0.00    +0.000 C 
ATOM     11  O   UNL     1      53.948   1.742  17.280  0.00  0.00    +0.000 OA
ATOM     12  H   UNL     1      54.447   2.039  19.666  0.00  0.00    +0.000 HD
ATOM     13  H   UNL     1      52.838   2.433  20.159  0.00  0.00    +0.000 HD
ENDBRANCH   1  10
BRANCH   5  14
ATOM     14  C   UNL     1      47.056   4.160  16.493  0.00  0.00    +0.000 C 
BRANCH  14  15
ATOM     15  C   UNL     1      47.136   4.812  15.137  0.00  0.00    +0.000 A 
ATOM     16  C   UNL     1      48.201   5.674  14.889  0.00  0.00    +0.000 A 
ATOM     17  N   UNL     1      48.411   6.315  13.723  0.00  0.00    +0.000 NA
ATOM     18  C   UNL     1      47.500   6.084  12.745  0.00  0.00    +0.000 A 
ATOM     19  C   UNL     1      46.381   5.253  12.847  0.00  0.00    +0.000 A 
ATOM     20  C   UNL     1      46.226   4.620  14.089  0.00  0.00    +0.000 A 
BRANCH  19  21
ATOM     21  N   UNL     1      45.490   5.057  11.810  0.00  0.00    +0.000 N 
ATOM     22  C   UNL     1      44.606   3.892  11.754  0.00  0.00    +0.000 C 
ATOM     23  C   UNL     1      44.893   3.085  10.490  0.00  0.00    +0.000 C 
ATOM     24  C   UNL     1      44.823   3.969   9.245  0.00  0.00    +0.000 C 
ATOM     25  C   UNL     1      45.725   5.194   9.386  0.00  0.00    +0.000 C 
ATOM     26  C   UNL     1      45.426   5.972  10.669  0.00  0.00    +0.000 C 
ENDBRANCH  19  21
ENDBRANCH  14  15
ENDBRANCH   5  14
TORSDOF 4
ENDMDL
MODEL 7
REMARK VINA RESULT:    -6.455      3.184      7.248
REMARK INTER + INTRA:          -8.764
REMARK INTER:                  -8.094
REMARK INTRA:                  -0.670
REMARK UNBOUND:                -0.800
REMARK  Name = 
REMARK  4 active torsions:
REMARK  status: ('A' for Active; 'I' for Inactive)
REMARK    1  A    between atoms: C_2  and  C_4
REMARK    2  A    between atoms: N_8  and  C_9
REMARK    3  A    between atoms: C_9  and  C_10
REMARK    4  A    between atoms: C_14  and  N_15
REMARK                            x       y       z     vdW  Elec       q    Type
REMARK                         _______ _______ _______ _____ _____    ______ ____
ROOT
ATOM      1  C   UNL     1      49.753   7.353  14.541  0.00  0.00    +0.000 A 
ATOM      2  C   UNL     1      48.718   6.479  14.851  0.00  0.00    +0.000 A 
ATOM      3  C   UNL     1      47.622   6.390  13.989  0.00  0.00    +0.000 A 
ATOM      4  C   UNL     1      47.576   7.173  12.840  0.00  0.00    +0.000 A 
ATOM      5  N   UNL     1      46.576   7.092  11.900  0.00  0.00    +0.000 N 
ATOM      6  N   UNL     1      48.571   8.033  12.538  0.00  0.00    +0.000 NA
ATOM      7  C   UNL     1      49.626   8.116  13.392  0.00  0.00    +0.000 A 
ATOM      8  H   UNL     1      46.717   7.793  11.181  0.00  0.00    +0.000 HD
ENDROOT
BRANCH   1  10
ATOM      9  N   UNL     1      50.926   6.944  16.628  0.00  0.00    +0.000 N 
ATOM     10  C   UNL     1      50.957   7.503  15.381  0.00  0.00    +0.000 C 
ATOM     11  O   UNL     1      51.959   8.073  14.967  0.00  0.00    +0.000 OA
ATOM     12  H   UNL     1      51.792   6.962  17.151  0.00  0.00    +0.000 HD
ATOM     13  H   UNL     1      50.236   6.254  16.896  0.00  0.00    +0.000 HD
ENDBRANCH   1  10
BRANCH   5  14
ATOM     14  C   UNL     1      45.201   6.758  12.211  0.00  0.00    +0.000 C 
BRANCH  14  15
ATOM     15  C   UNL     1      44.742   5.396  11.759  0.00  0.00    +0.000 A 
ATOM     16  C   UNL     1      43.981   4.636  12.644  0.00  0.00    +0.000 A 
ATOM     17  N   UNL     1      43.491   3.411  12.374  0.00  0.00    +0.000 NA
ATOM     18  C   UNL     1      43.780   2.911  11.147  0.00  0.00    +0.000 A 
ATOM     19  C   UNL     1      44.534   3.550  10.159  0.00  0.00    +0.000 A 
ATOM     20  C   UNL     1      45.013   4.822  10.510  0.00  0.00    +0.000 A 
BRANCH  19  21
ATOM     21  N   UNL     1      44.792   2.987   8.924  0.00  0.00    +0.000 N 
ATOM     22  C   UNL     1      45.001   1.548   8.753  0.00  0.00    +0.000 C 
ATOM     23  C   UNL     1      46.392   1.292   8.179  0.00  0.00    +0.000 C 
ATOM     24  C   UNL     1      46.618   2.100   6.902  0.00  0.00    +0.000 C 
ATOM     25  C   UNL     1      46.332   3.584   7.129  0.00  0.00    +0.000 C 
ATOM     26  C   UNL     1      44.940   3.808   7.721  0.00  0.00    +0.000 C 
ENDBRANCH  19  21
ENDBRANCH  14  15
ENDBRANCH   5  14
TORSDOF 4
ENDMDL
