MODEL 1
REMARK VINA RESULT:    -7.042      0.000      0.000
REMARK INTER + INTRA:         -11.094
REMARK INTER:                 -10.335
REMARK INTRA:                  -0.759
REMARK UNBOUND:                -0.759
REMARK  Name = 
REMARK  12 active torsions:
REMARK  status: ('A' for Active; 'I' for Inactive)
REMARK    1  A    between atoms: C_1  and  N_2
REMARK    2  A    between atoms: N_2  and  C_3
REMARK    3  A    between atoms: N_2  and  C_4
REMARK    4  A    between atoms: C_4  and  C_5
REMARK    5  A    between atoms: C_5  and  N_6
REMARK    6  A    between atoms: C_7  and  C_9
REMARK    7  A    between atoms: N_13  and  C_14
REMARK    8  A    between atoms: C_14  and  C_15
REMARK    9  A    between atoms: C_15  and  C_16
REMARK   10  A    between atoms: C_15  and  C_17
REMARK   11  A    between atoms: C_15  and  C_18
REMARK   12  A    between atoms: C_22  and  C_23
REMARK                            x       y       z     vdW  Elec       q    Type
REMARK                         _______ _______ _______ _____ _____    ______ ____
ROOT
ATOM      1  C   UNL     1      45.379   4.271  11.600  0.00  0.00    +0.000 A 
ATOM      2  C   UNL     1      45.709   5.604  11.821  0.00  0.00    +0.000 A 
ATOM      3  C   UNL     1      46.323   5.958  13.023  0.00  0.00    +0.000 A 
ATOM      4  C   UNL     1      46.611   4.981  13.979  0.00  0.00    +0.000 A 
ATOM      5  N   UNL     1      47.159   5.401  15.200  0.00  0.00    +0.000 N 
ATOM      6  N   UNL     1      46.298   3.688  13.773  0.00  0.00    +0.000 NA
ATOM      7  C   UNL     1      45.685   3.361  12.603  0.00  0.00    +0.000 A 
ATOM      8  H   UNL     1      47.914   6.053  15.017  0.00  0.00    +0.000 HD
ENDROOT
BRANCH   1  10
ATOM      9  N   UNL     1      45.317   3.866   9.194  0.00  0.00    +0.000 N 
ATOM     10  C   UNL     1      44.654   3.797  10.400  0.00  0.00    +0.000 C 
ATOM     11  O   UNL     1      43.512   3.362  10.515  0.00  0.00    +0.000 OA
ATOM     12  H   UNL     1      46.322   3.983   9.161  0.00  0.00    +0.000 HD
BRANCH   9  13
ATOM     13  C   UNL     1      44.693   3.373   7.979  0.00  0.00    +0.000 C 
BRANCH  13  14
ATOM     14  C   UNL     1      45.727   2.896   6.943  0.00  0.00    +0.000 C 
BRANCH  14  16
ATOM     15  C   UNL     1      46.706   0.797   7.700  0.00  0.00    +0.000 C 
ATOM     16  N   UNL     1      46.924   2.236   7.516  0.00  0.00    +0.000 NA
ATOM     17  C   UNL     1      48.064   2.434   6.611  0.00  0.00    +0.000 C 
ENDBRANCH  14  16
ENDBRANCH  13  14
ENDBRANCH   9  13
ENDBRANCH   1  10
BRANCH   5  18
ATOM     18  C   UNL     1      47.534   4.329  16.133  0.00  0.00    +0.000 C 
BRANCH  18  19
ATOM     19  C   UNL     1      48.443   4.858  17.296  0.00  0.00    +0.000 C 
ATOM     20  C   UNL     1      48.933   6.294  16.986  0.00  0.00    +0.000 C 
ATOM     21  C   UNL     1      47.602   4.934  18.594  0.00  0.00    +0.000 C 
BRANCH  19  22
ATOM     22  C   UNL     1      49.689   3.946  17.440  0.00  0.00    +0.000 A 
ATOM     23  C   UNL     1      49.577   2.556  17.247  0.00  0.00    +0.000 A 
ATOM     24  C   UNL     1      50.690   1.712  17.332  0.00  0.00    +0.000 A 
ATOM     25  C   UNL     1      51.947   2.238  17.614  0.00  0.00    +0.000 A 
ATOM     26  C   UNL     1      52.090   3.610  17.818  0.00  0.00    +0.000 A 
ATOM     27  C   UNL     1      50.971   4.451  17.736  0.00  0.00    +0.000 A 
BRANCH  26  28
ATOM     28  C   UNL     1      53.382   4.161  18.105  0.00  0.00    +0.000 C 
ATOM     29  N   UNL     1      54.429   4.615  18.337  0.00  0.00    +0.000 NA
ENDBRANCH  26  28
ENDBRANCH  19  22
ENDBRANCH  18  19
ENDBRANCH   5  18
TORSDOF 8
ENDMDL
MODEL 2
REMARK VINA RESULT:    -6.856      2.444      9.391
REMARK INTER + INTRA:         -10.822
REMARK INTER:                 -10.107
REMARK INTRA:                  -0.715
REMARK UNBOUND:                -0.759
REMARK  Name = 
REMARK  12 active torsions:
REMARK  status: ('A' for Active; 'I' for Inactive)
REMARK    1  A    between atoms: C_1  and  N_2
REMARK    2  A    between atoms: N_2  and  C_3
REMARK    3  A    between atoms: N_2  and  C_4
REMARK    4  A    between atoms: C_4  and  C_5
REMARK    5  A    between atoms: C_5  and  N_6
REMARK    6  A    between atoms: C_7  and  C_9
REMARK    7  A    between atoms: N_13  and  C_14
REMARK    8  A    between atoms: C_14  and  C_15
REMARK    9  A    between atoms: C_15  and  C_16
REMARK   10  A    between atoms: C_15  and  C_17
REMARK   11  A    between atoms: C_15  and  C_18
REMARK   12  A    between atoms: C_22  and  C_23
REMARK                            x       y       z     vdW  Elec       q    Type
REMARK                         _______ _______ _______ _____ _____    ______ ____
ROOT
ATOM      1  C   UNL     1      48.279   5.728  15.829  0.00  0.00    +0.000 A 
ATOM      2  C   UNL     1      48.293   6.622  14.765  0.00  0.00    +0.000 A 
ATOM      3  C   UNL     1      47.521   6.343  13.636  0.00  0.00    +0.000 A 
ATOM      4  C   UNL     1      46.737   5.186  13.590  0.00  0.00    +0.000 A 
ATOM      5  N   UNL     1      46.040   4.916  12.404  0.00  0.00    +0.000 N 
ATOM      6  N   UNL     1      46.715   4.317  14.617  0.00  0.00    +0.000 NA
ATOM      7  C   UNL     1      47.486   4.595  15.703  0.00  0.00    +0.000 A 
ATOM      8  H   UNL     1      45.571   5.760  12.096  0.00  0.00    +0.000 HD
ENDROOT
BRANCH   1  10
ATOM      9  N   UNL     1      50.443   5.511  16.937  0.00  0.00    +0.000 N 
ATOM     10  C   UNL     1      49.120   5.883  17.037  0.00  0.00    +0.000 C 
ATOM     11  O   UNL     1      48.624   6.333  18.066  0.00  0.00    +0.000 OA
ATOM     12  H   UNL     1      50.880   5.390  16.032  0.00  0.00    +0.000 HD
BRANCH   9  13
ATOM     13  C   UNL     1      51.344   5.681  18.063  0.00  0.00    +0.000 C 
BRANCH  13  14
ATOM     14  C   UNL     1      51.537   4.377  18.859  0.00  0.00    +0.000 C 
BRANCH  14  16
ATOM     15  C   UNL     1      53.528   3.124  19.492  0.00  0.00    +0.000 C 
ATOM     16  N   UNL     1      52.647   3.517  18.386  0.00  0.00    +0.000 NA
ATOM     17  C   UNL     1      52.090   2.307  17.767  0.00  0.00    +0.000 C 
ENDBRANCH  14  16
ENDBRANCH  13  14
ENDBRANCH   9  13
ENDBRANCH   1  10
BRANCH   5  18
ATOM     18  C   UNL     1      45.155   3.742  12.439  0.00  0.00    +0.000 C 
BRANCH  18  19
ATOM     19  C   UNL     1      44.143   3.738  11.242  0.00  0.00    +0.000 C 
ATOM     20  C   UNL     1      43.117   2.590  11.408  0.00  0.00    +0.000 C 
ATOM     21  C   UNL     1      43.346   5.067  11.256  0.00  0.00    +0.000 C 
BRANCH  19  22
ATOM     22  C   UNL     1      44.906   3.511   9.912  0.00  0.00    +0.000 A 
ATOM     23  C   UNL     1      45.248   4.606   9.095  0.00  0.00    +0.000 A 
ATOM     24  C   UNL     1      45.971   4.438   7.908  0.00  0.00    +0.000 A 
ATOM     25  C   UNL     1      46.371   3.167   7.507  0.00  0.00    +0.000 A 
ATOM     26  C   UNL     1      46.041   2.062   8.290  0.00  0.00    +0.000 A 
ATOM     27  C   UNL     1      45.313   2.235   9.477  0.00  0.00    +0.000 A 
BRANCH  26  28
ATOM     28  C   UNL     1      46.454   0.749   7.887  0.00  0.00    +0.000 C 
ATOM     29  N   UNL     1      46.781  -0.319   7.560  0.00  0.00    +0.000 NA
ENDBRANCH  26  28
ENDBRANCH  19  22
ENDBRANCH  18  19
ENDBRANCH   5  18
TORSDOF 8
ENDMDL
MODEL 3
REMARK VINA RESULT:    -6.755      5.409      8.579
REMARK INTER + INTRA:         -10.673
REMARK INTER:                  -9.680
REMARK INTRA:                  -0.993
REMARK UNBOUND:                -0.759
REMARK  Name = 
REMARK  12 active torsions:
REMARK  status: ('A' for Active; 'I' for Inactive)
REMARK    1  A    between atoms: C_1  and  N_2
REMARK    2  A    between atoms: N_2  and  C_3
REMARK    3  A    between atoms: N_2  and  C_4
REMARK    4  A    between atoms: C_4  and  C_5
REMARK    5  A    between atoms: C_5  and  N_6
REMARK    6  A    between atoms: C_7  and  C_9
REMARK    7  A    between atoms: N_13  and  C_14
REMARK    8  A    between atoms: C_14  and  C_15
REMARK    9  A    between atoms: C_15  and  C_16
REMARK   10  A    between atoms: C_15  and  C_17
REMARK   11  A    between atoms: C_15  and  C_18
REMARK   12  A    between atoms: C_22  and  C_23
REMARK                            x       y       z     vdW  Elec       q    Type
REMARK                         _______ _______ _______ _____ _____    ______ ____
ROOT
ATOM      1  C   UNL     1      47.865   8.659  12.138  0.00  0.00    +0.000 A 
ATOM      2  C   UNL     1      46.677   9.076  12.728  0.00  0.00    +0.000 A 
ATOM      3  C   UNL     1      45.656   8.145  12.925  0.00  0.00    +0.000 A 
ATOM      4  C   UNL     1      45.838   6.812  12.545  0.00  0.00    +0.000 A 
ATOM      5  N   UNL     1      44.754   5.935  12.697  0.00  0.00    +0.000 N 
ATOM      6  N   UNL     1      46.986   6.398  11.977  0.00  0.00    +0.000 NA
ATOM      7  C   UNL     1      47.964   7.322  11.776  0.00  0.00    +0.000 A 
ATOM      8  H   UNL     1      44.350   6.064  13.617  0.00  0.00    +0.000 HD
ENDROOT
BRANCH   1  10
ATOM      9  N   UNL     1      50.165   9.005  11.400  0.00  0.00    +0.000 N 
ATOM     10  C   UNL     1      48.979   9.575  11.808  0.00  0.00    +0.000 C 
ATOM     11  O   UNL     1      48.813  10.788  11.900  0.00  0.00    +0.000 OA
ATOM     12  H   UNL     1      50.198   8.042  11.090  0.00  0.00    +0.000 HD
BRANCH   9  13
ATOM     13  C   UNL     1      51.288   9.838  11.009  0.00  0.00    +0.000 C 
BRANCH  13  14
ATOM     14  C   UNL     1      52.618   9.061  11.002  0.00  0.00    +0.000 C 
BRANCH  14  16
ATOM     15  C   UNL     1      54.606   8.673   9.650  0.00  0.00    +0.000 C 
ATOM     16  N   UNL     1      53.140   8.733   9.655  0.00  0.00    +0.000 NA
ATOM     17  C   UNL     1      52.609   7.429   9.236  0.00  0.00    +0.000 C 
ENDBRANCH  14  16
ENDBRANCH  13  14
ENDBRANCH   9  13
ENDBRANCH   1  10
BRANCH   5  18
ATOM     18  C   UNL     1      45.025   4.527  12.375  0.00  0.00    +0.000 C 
BRANCH  18  19
ATOM     19  C   UNL     1      44.068   3.989  11.255  0.00  0.00    +0.000 C 
ATOM     20  C   UNL     1      43.429   2.647  11.691  0.00  0.00    +0.000 C 
ATOM     21  C   UNL     1      42.912   5.000  11.057  0.00  0.00    +0.000 C 
BRANCH  19  22
ATOM     22  C   UNL     1      44.874   3.737   9.955  0.00  0.00    +0.000 A 
ATOM     23  C   UNL     1      45.292   4.820   9.158  0.00  0.00    +0.000 A 
ATOM     24  C   UNL     1      46.054   4.628   8.001  0.00  0.00    +0.000 A 
ATOM     25  C   UNL     1      46.419   3.344   7.609  0.00  0.00    +0.000 A 
ATOM     26  C   UNL     1      46.015   2.249   8.372  0.00  0.00    +0.000 A 
ATOM     27  C   UNL     1      45.247   2.447   9.530  0.00  0.00    +0.000 A 
BRANCH  26  28
ATOM     28  C   UNL     1      46.390   0.923   7.978  0.00  0.00    +0.000 C 
ATOM     29  N   UNL     1      46.702  -0.152   7.657  0.00  0.00    +0.000 NA
ENDBRANCH  26  28
ENDBRANCH  19  22
ENDBRANCH  18  19
ENDBRANCH   5  18
TORSDOF 8
ENDMDL
MODEL 4
REMARK VINA RESULT:    -6.731      3.023      9.827
REMARK INTER + INTRA:         -10.638
REMARK INTER:                  -9.782
REMARK INTRA:                  -0.856
REMARK UNBOUND:                -0.759
REMARK  Name = 
REMARK  12 active torsions:
REMARK  status: ('A' for Active; 'I' for Inactive)
REMARK    1  A    between atoms: C_1  and  N_2
REMARK    2  A    between atoms: N_2  and  C_3
REMARK    3  A    between atoms: N_2  and  C_4
REMARK    4  A    between atoms: C_4  and  C_5
REMARK    5  A    between atoms: C_5  and  N_6
REMARK    6  A    between atoms: C_7  and  C_9
REMARK    7  A    between atoms: N_13  and  C_14
REMARK    8  A    between atoms: C_14  and  C_15
REMARK    9  A    between atoms: C_15  and  C_16
REMARK   10  A    between atoms: C_15  and  C_17
REMARK   11  A    between atoms: C_15  and  C_18
REMARK   12  A    between atoms: C_22  and  C_23
REMARK                            x       y       z     vdW  Elec       q    Type
REMARK                         _______ _______ _______ _____ _____    ______ ____
ROOT
ATOM      1  C   UNL     1      48.272   5.379  16.033  0.00  0.00    +0.000 A 
ATOM      2  C   UNL     1      48.318   6.336  15.025  0.00  0.00    +0.000 A 
ATOM      3  C   UNL     1      47.577   6.128  13.861  0.00  0.00    +0.000 A 
ATOM      4  C   UNL     1      46.792   4.980  13.724  0.00  0.00    +0.000 A 
ATOM      5  N   UNL     1      46.127   4.784  12.505  0.00  0.00    +0.000 N 
ATOM      6  N   UNL     1      46.737   4.051  14.696  0.00  0.00    +0.000 NA
ATOM      7  C   UNL     1      47.479   4.260  15.818  0.00  0.00    +0.000 A 
ATOM      8  H   UNL     1      45.669   5.648  12.235  0.00  0.00    +0.000 HD
ENDROOT
BRANCH   1  10
ATOM      9  N   UNL     1      48.571   4.843  18.396  0.00  0.00    +0.000 N 
ATOM     10  C   UNL     1      49.079   5.457  17.271  0.00  0.00    +0.000 C 
ATOM     11  O   UNL     1      50.155   6.049  17.256  0.00  0.00    +0.000 OA
ATOM     12  H   UNL     1      47.828   4.160  18.322  0.00  0.00    +0.000 HD
BRANCH   9  13
ATOM     13  C   UNL     1      49.327   4.832  19.635  0.00  0.00    +0.000 C 
BRANCH  13  14
ATOM     14  C   UNL     1      49.041   6.069  20.505  0.00  0.00    +0.000 C 
BRANCH  14  16
ATOM     15  C   UNL     1      51.477   6.111  20.552  0.00  0.00    +0.000 C 
ATOM     16  N   UNL     1      50.247   6.760  21.020  0.00  0.00    +0.000 NA
ATOM     17  C   UNL     1      50.238   8.155  20.559  0.00  0.00    +0.000 C 
ENDBRANCH  14  16
ENDBRANCH  13  14
ENDBRANCH   9  13
ENDBRANCH   1  10
BRANCH   5  18
ATOM     18  C   UNL     1      45.238   3.616  12.445  0.00  0.00    +0.000 C 
BRANCH  18  19
ATOM     19  C   UNL     1      44.221   3.715  11.255  0.00  0.00    +0.000 C 
ATOM     20  C   UNL     1      43.126   2.628  11.389  0.00  0.00    +0.000 C 
ATOM     21  C   UNL     1      43.509   5.089  11.319  0.00  0.00    +0.000 C 
BRANCH  19  22
ATOM     22  C   UNL     1      44.963   3.486   9.913  0.00  0.00    +0.000 A 
ATOM     23  C   UNL     1      45.312   4.582   9.100  0.00  0.00    +0.000 A 
ATOM     24  C   UNL     1      46.016   4.411   7.902  0.00  0.00    +0.000 A 
ATOM     25  C   UNL     1      46.390   3.137   7.486  0.00  0.00    +0.000 A 
ATOM     26  C   UNL     1      46.053   2.031   8.266  0.00  0.00    +0.000 A 
ATOM     27  C   UNL     1      45.344   2.207   9.463  0.00  0.00    +0.000 A 
BRANCH  26  28
ATOM     28  C   UNL     1      46.439   0.715   7.847  0.00  0.00    +0.000 C 
ATOM     29  N   UNL     1      46.751  -0.356   7.514  0.00  0.00    +0.000 NA
ENDBRANCH  26  28
ENDBRANCH  19  22
ENDBRANCH  18  19
ENDBRANCH   5  18
TORSDOF 8
ENDMDL
MODEL 5
REMARK VINA RESULT:    -6.550      2.114      2.998
REMARK INTER + INTRA:         -10.372
REMARK INTER:                  -9.381
REMARK INTRA:                  -0.991
REMARK UNBOUND:                -0.759
REMARK  Name = 
REMARK  12 active torsions:
REMARK  status: ('A' for Active; 'I' for Inactive)
REMARK    1  A    between atoms: C_1  and  N_2
REMARK    2  A    between atoms: N_2  and  C_3
REMARK    3  A    between atoms: N_2  and  C_4
REMARK    4  A    between atoms: C_4  and  C_5
REMARK    5  A    between atoms: C_5  and  N_6
REMARK    6  A    between atoms: C_7  and  C_9
REMARK    7  A    between atoms: N_13  and  C_14
REMARK    8  A    between atoms: C_14  and  C_15
REMARK    9  A    between atoms: C_15  and  C_16
REMARK   10  A    between atoms: C_15  and  C_17
REMARK   11  A    between atoms: C_15  and  C_18
REMARK   12  A    between atoms: C_22  and  C_23
REMARK                            x       y       z     vdW  Elec       q    Type
REMARK                         _______ _______ _______ _____ _____    ______ ____
ROOT
ATOM      1  C   UNL     1      45.767   5.092  12.578  0.00  0.00    +0.000 A 
ATOM      2  C   UNL     1      45.386   6.427  12.493  0.00  0.00    +0.000 A 
ATOM      3  C   UNL     1      46.166   7.395  13.129  0.00  0.00    +0.000 A 
ATOM      4  C   UNL     1      47.318   7.022  13.825  0.00  0.00    +0.000 A 
ATOM      5  N   UNL     1      48.023   8.024  14.507  0.00  0.00    +0.000 N 
ATOM      6  N   UNL     1      47.697   5.733  13.909  0.00  0.00    +0.000 NA
ATOM      7  C   UNL     1      46.917   4.800  13.299  0.00  0.00    +0.000 A 
ATOM      8  H   UNL     1      48.136   8.824  13.895  0.00  0.00    +0.000 HD
ENDROOT
BRANCH   1  10
ATOM      9  N   UNL     1      44.889   3.894  10.641  0.00  0.00    +0.000 N 
ATOM     10  C   UNL     1      44.973   3.979  12.014  0.00  0.00    +0.000 C 
ATOM     11  O   UNL     1      44.430   3.179  12.770  0.00  0.00    +0.000 OA
ATOM     12  H   UNL     1      45.540   4.398  10.051  0.00  0.00    +0.000 HD
BRANCH   9  13
ATOM     13  C   UNL     1      44.172   2.801  10.010  0.00  0.00    +0.000 C 
BRANCH  13  14
ATOM     14  C   UNL     1      44.534   2.645   8.522  0.00  0.00    +0.000 C 
BRANCH  14  16
ATOM     15  C   UNL     1      46.403   1.198   7.931  0.00  0.00    +0.000 C 
ATOM     16  N   UNL     1      45.987   2.571   8.240  0.00  0.00    +0.000 NA
ATOM     17  C   UNL     1      46.301   3.434   7.093  0.00  0.00    +0.000 C 
ENDBRANCH  14  16
ENDBRANCH  13  14
ENDBRANCH   9  13
ENDBRANCH   1  10
BRANCH   5  18
ATOM     18  C   UNL     1      49.279   7.600  15.141  0.00  0.00    +0.000 C 
BRANCH  18  19
ATOM     19  C   UNL     1      49.254   7.822  16.694  0.00  0.00    +0.000 C 
ATOM     20  C   UNL     1      50.618   8.369  17.182  0.00  0.00    +0.000 C 
ATOM     21  C   UNL     1      48.187   8.894  17.028  0.00  0.00    +0.000 C 
BRANCH  19  22
ATOM     22  C   UNL     1      48.993   6.473  17.411  0.00  0.00    +0.000 A 
ATOM     23  C   UNL     1      48.455   6.453  18.712  0.00  0.00    +0.000 A 
ATOM     24  C   UNL     1      48.172   5.251  19.371  0.00  0.00    +0.000 A 
ATOM     25  C   UNL     1      48.421   4.035  18.744  0.00  0.00    +0.000 A 
ATOM     26  C   UNL     1      48.961   4.020  17.458  0.00  0.00    +0.000 A 
ATOM     27  C   UNL     1      49.247   5.227  16.803  0.00  0.00    +0.000 A 
BRANCH  26  28
ATOM     28  C   UNL     1      49.216   2.770  16.803  0.00  0.00    +0.000 C 
ATOM     29  N   UNL     1      49.421   1.752  16.277  0.00  0.00    +0.000 NA
ENDBRANCH  26  28
ENDBRANCH  19  22
ENDBRANCH  18  19
ENDBRANCH   5  18
TORSDOF 8
ENDMDL
MODEL 6
REMARK VINA RESULT:    -6.457      2.805      3.967
REMARK INTER + INTRA:         -10.237
REMARK INTER:                  -9.114
REMARK INTRA:                  -1.123
REMARK UNBOUND:                -0.759
REMARK  Name = 
REMARK  12 active torsions:
REMARK  status: ('A' for Active; 'I' for Inactive)
REMARK    1  A    between atoms: C_1  and  N_2
REMARK    2  A    between atoms: N_2  and  C_3
REMARK    3  A    between atoms: N_2  and  C_4
REMARK    4  A    between atoms: C_4  and  C_5
REMARK    5  A    between atoms: C_5  and  N_6
REMARK    6  A    between atoms: C_7  and  C_9
REMARK    7  A    between atoms: N_13  and  C_14
REMARK    8  A    between atoms: C_14  and  C_15
REMARK    9  A    between atoms: C_15  and  C_16
REMARK   10  A    between atoms: C_15  and  C_17
REMARK   11  A    between atoms: C_15  and  C_18
REMARK   12  A    between atoms: C_22  and  C_23
REMARK                            x       y       z     vdW  Elec       q    Type
REMARK                         _______ _______ _______ _____ _____    ______ ____
ROOT
ATOM      1  C   UNL     1      46.763   7.157  12.918  0.00  0.00    +0.000 A 
ATOM      2  C   UNL     1      46.823   8.497  13.287  0.00  0.00    +0.000 A 
ATOM      3  C   UNL     1      47.713   8.883  14.291  0.00  0.00    +0.000 A 
ATOM      4  C   UNL     1      48.537   7.934  14.901  0.00  0.00    +0.000 A 
ATOM      5  N   UNL     1      49.358   8.362  15.955  0.00  0.00    +0.000 N 
ATOM      6  N   UNL     1      48.489   6.636  14.548  0.00  0.00    +0.000 NA
ATOM      7  C   UNL     1      47.604   6.273  13.580  0.00  0.00    +0.000 A 
ATOM      8  H   UNL     1      49.825   9.219  15.684  0.00  0.00    +0.000 HD
ENDROOT
BRANCH   1  10
ATOM      9  N   UNL     1      44.461   6.743  12.221  0.00  0.00    +0.000 N 
ATOM     10  C   UNL     1      45.802   6.625  11.927  0.00  0.00    +0.000 C 
ATOM     11  O   UNL     1      46.220   6.112  10.893  0.00  0.00    +0.000 OA
ATOM     12  H   UNL     1      44.142   7.384  12.938  0.00  0.00    +0.000 HD
BRANCH   9  13
ATOM     13  C   UNL     1      43.455   6.293  11.277  0.00  0.00    +0.000 C 
BRANCH  13  14
ATOM     14  C   UNL     1      42.611   5.131  11.832  0.00  0.00    +0.000 C 
BRANCH  14  16
ATOM     15  C   UNL     1      43.825   3.876  10.133  0.00  0.00    +0.000 C 
ATOM     16  N   UNL     1      43.004   3.787  11.346  0.00  0.00    +0.000 NA
ATOM     17  C   UNL     1      43.774   3.102  12.394  0.00  0.00    +0.000 C 
ENDBRANCH  14  16
ENDBRANCH  13  14
ENDBRANCH   9  13
ENDBRANCH   1  10
BRANCH   5  18
ATOM     18  C   UNL     1      50.276   7.351  16.498  0.00  0.00    +0.000 C 
BRANCH  18  19
ATOM     19  C   UNL     1      49.783   6.796  17.880  0.00  0.00    +0.000 C 
ATOM     20  C   UNL     1      50.939   6.813  18.911  0.00  0.00    +0.000 C 
ATOM     21  C   UNL     1      48.673   7.728  18.425  0.00  0.00    +0.000 C 
BRANCH  19  22
ATOM     22  C   UNL     1      49.308   5.330  17.715  0.00  0.00    +0.000 A 
ATOM     23  C   UNL     1      47.933   5.034  17.643  0.00  0.00    +0.000 A 
ATOM     24  C   UNL     1      47.473   3.725  17.455  0.00  0.00    +0.000 A 
ATOM     25  C   UNL     1      48.379   2.676  17.335  0.00  0.00    +0.000 A 
ATOM     26  C   UNL     1      49.747   2.935  17.409  0.00  0.00    +0.000 A 
ATOM     27  C   UNL     1      50.203   4.248  17.602  0.00  0.00    +0.000 A 
BRANCH  26  28
ATOM     28  C   UNL     1      50.688   1.861  17.282  0.00  0.00    +0.000 C 
ATOM     29  N   UNL     1      51.456   0.992  17.173  0.00  0.00    +0.000 NA
ENDBRANCH  26  28
ENDBRANCH  19  22
ENDBRANCH  18  19
ENDBRANCH   5  18
TORSDOF 8
ENDMDL
MODEL 7
REMARK VINA RESULT:    -6.315      2.279      3.840
REMARK INTER + INTRA:         -10.027
REMARK INTER:                  -8.960
REMARK INTRA:                  -1.067
REMARK UNBOUND:                -0.759
REMARK  Name = 
REMARK  12 active torsions:
REMARK  status: ('A' for Active; 'I' for Inactive)
REMARK    1  A    between atoms: C_1  and  N_2
REMARK    2  A    between atoms: N_2  and  C_3
REMARK    3  A    between atoms: N_2  and  C_4
REMARK    4  A    between atoms: C_4  and  C_5
REMARK    5  A    between atoms: C_5  and  N_6
REMARK    6  A    between atoms: C_7  and  C_9
REMARK    7  A    between atoms: N_13  and  C_14
REMARK    8  A    between atoms: C_14  and  C_15
REMARK    9  A    between atoms: C_15  and  C_16
REMARK   10  A    between atoms: C_15  and  C_17
REMARK   11  A    between atoms: C_15  and  C_18
REMARK   12  A    between atoms: C_22  and  C_23
REMARK                            x       y       z     vdW  Elec       q    Type
REMARK                         _______ _______ _______ _____ _____    ______ ____
ROOT
ATOM      1  C   UNL     1      46.792   7.149  12.884  0.00  0.00    +0.000 A 
ATOM      2  C   UNL     1      46.795   8.408  13.473  0.00  0.00    +0.000 A 
ATOM      3  C   UNL     1      47.860   8.764  14.303  0.00  0.00    +0.000 A 
ATOM      4  C   UNL     1      48.911   7.869  14.520  0.00  0.00    +0.000 A 
ATOM      5  N   UNL     1      49.918   8.248  15.420  0.00  0.00    +0.000 N 
ATOM      6  N   UNL     1      48.918   6.650  13.950  0.00  0.00    +0.000 NA
ATOM      7  C   UNL     1      47.865   6.311  13.158  0.00  0.00    +0.000 A 
ATOM      8  H   UNL     1      50.204   9.198  15.215  0.00  0.00    +0.000 HD
ENDROOT
BRANCH   1  10
ATOM      9  N   UNL     1      45.593   5.273  11.884  0.00  0.00    +0.000 N 
ATOM     10  C   UNL     1      45.677   6.637  12.056  0.00  0.00    +0.000 C 
ATOM     11  O   UNL     1      44.877   7.427  11.563  0.00  0.00    +0.000 OA
ATOM     12  H   UNL     1      46.097   4.642  12.494  0.00  0.00    +0.000 HD
BRANCH   9  13
ATOM     13  C   UNL     1      44.499   4.690  11.128  0.00  0.00    +0.000 C 
BRANCH  13  14
ATOM     14  C   UNL     1      44.786   3.236  10.712  0.00  0.00    +0.000 C 
BRANCH  14  16
ATOM     15  C   UNL     1      44.662   4.019   8.408  0.00  0.00    +0.000 C 
ATOM     16  N   UNL     1      44.402   2.899   9.320  0.00  0.00    +0.000 NA
ATOM     17  C   UNL     1      45.176   1.732   8.875  0.00  0.00    +0.000 C 
ENDBRANCH  14  16
ENDBRANCH  13  14
ENDBRANCH   9  13
ENDBRANCH   1  10
BRANCH   5  18
ATOM     18  C   UNL     1      51.048   7.316  15.539  0.00  0.00    +0.000 C 
BRANCH  18  19
ATOM     19  C   UNL     1      51.278   6.865  17.024  0.00  0.00    +0.000 C 
ATOM     20  C   UNL     1      52.784   6.933  17.380  0.00  0.00    +0.000 C 
ATOM     21  C   UNL     1      50.542   7.850  17.966  0.00  0.00    +0.000 C 
BRANCH  19  22
ATOM     22  C   UNL     1      50.808   5.399  17.203  0.00  0.00    +0.000 A 
ATOM     23  C   UNL     1      51.747   4.377  17.443  0.00  0.00    +0.000 A 
ATOM     24  C   UNL     1      51.351   3.051  17.649  0.00  0.00    +0.000 A 
ATOM     25  C   UNL     1      50.002   2.711  17.619  0.00  0.00    +0.000 A 
ATOM     26  C   UNL     1      49.048   3.698  17.377  0.00  0.00    +0.000 A 
ATOM     27  C   UNL     1      49.450   5.026  17.167  0.00  0.00    +0.000 A 
BRANCH  26  28
ATOM     28  C   UNL     1      47.655   3.357  17.349  0.00  0.00    +0.000 C 
ATOM     29  N   UNL     1      46.524   3.086  17.332  0.00  0.00    +0.000 NA
ENDBRANCH  26  28
ENDBRANCH  19  22
ENDBRANCH  18  19
ENDBRANCH   5  18
TORSDOF 8
ENDMDL
MODEL 8
REMARK VINA RESULT:    -6.078      2.263      3.892
REMARK INTER + INTRA:          -9.679
REMARK INTER:                  -8.829
REMARK INTRA:                  -0.851
REMARK UNBOUND:                -0.759
REMARK  Name = 
REMARK  12 active torsions:
REMARK  status: ('A' for Active; 'I' for Inactive)
REMARK    1  A    between atoms: C_1  and  N_2
REMARK    2  A    between atoms: N_2  and  C_3
REMARK    3  A    between atoms: N_2  and  C_4
REMARK    4  A    between atoms: C_4  and  C_5
REMARK    5  A    between atoms: C_5  and  N_6
REMARK    6  A    between atoms: C_7  and  C_9
REMARK    7  A    between atoms: N_13  and  C_14
REMARK    8  A    between atoms: C_14  and  C_15
REMARK    9  A    between atoms: C_15  and  C_16
REMARK   10  A    between atoms: C_15  and  C_17
REMARK   11  A    between atoms: C_15  and  C_18
REMARK   12  A    between atoms: C_22  and  C_23
REMARK                            x       y       z     vdW  Elec       q    Type
REMARK                         _______ _______ _______ _____ _____    ______ ____
ROOT
ATOM      1  C   UNL     1      44.967   4.992  10.950  0.00  0.00    +0.000 A 
ATOM      2  C   UNL     1      44.549   4.912  12.273  0.00  0.00    +0.000 A 
ATOM      3  C   UNL     1      45.019   5.856  13.189  0.00  0.00    +0.000 A 
ATOM      4  C   UNL     1      45.884   6.870  12.769  0.00  0.00    +0.000 A 
ATOM      5  N   UNL     1      46.385   7.747  13.743  0.00  0.00    +0.000 N 
ATOM      6  N   UNL     1      46.290   6.957  11.489  0.00  0.00    +0.000 NA
ATOM      7  C   UNL     1      45.837   6.020  10.613  0.00  0.00    +0.000 A 
ATOM      8  H   UNL     1      45.622   8.056  14.335  0.00  0.00    +0.000 HD
ENDROOT
BRANCH   1  10
ATOM      9  N   UNL     1      45.130   4.171   8.657  0.00  0.00    +0.000 N 
ATOM     10  C   UNL     1      44.597   3.999   9.916  0.00  0.00    +0.000 C 
ATOM     11  O   UNL     1      43.848   3.071  10.208  0.00  0.00    +0.000 OA
ATOM     12  H   UNL     1      45.928   4.777   8.510  0.00  0.00    +0.000 HD
BRANCH   9  13
ATOM     13  C   UNL     1      44.857   3.211   7.602  0.00  0.00    +0.000 C 
BRANCH  13  14
ATOM     14  C   UNL     1      46.082   2.968   6.701  0.00  0.00    +0.000 C 
BRANCH  14  16
ATOM     15  C   UNL     1      46.790   0.829   7.627  0.00  0.00    +0.000 C 
ATOM     16  N   UNL     1      47.185   2.213   7.340  0.00  0.00    +0.000 NA
ATOM     17  C   UNL     1      48.346   2.201   6.440  0.00  0.00    +0.000 C 
ENDBRANCH  14  16
ENDBRANCH  13  14
ENDBRANCH   9  13
ENDBRANCH   1  10
BRANCH   5  18
ATOM     18  C   UNL     1      47.211   8.853  13.240  0.00  0.00    +0.000 C 
BRANCH  18  19
ATOM     19  C   UNL     1      48.690   8.758  13.752  0.00  0.00    +0.000 C 
ATOM     20  C   UNL     1      49.511   7.799  12.855  0.00  0.00    +0.000 C 
ATOM     21  C   UNL     1      49.348  10.157  13.645  0.00  0.00    +0.000 C 
BRANCH  19  22
ATOM     22  C   UNL     1      48.708   8.196  15.197  0.00  0.00    +0.000 A 
ATOM     23  C   UNL     1      48.325   9.012  16.280  0.00  0.00    +0.000 A 
ATOM     24  C   UNL     1      48.292   8.522  17.591  0.00  0.00    +0.000 A 
ATOM     25  C   UNL     1      48.643   7.202  17.853  0.00  0.00    +0.000 A 
ATOM     26  C   UNL     1      49.034   6.371  16.804  0.00  0.00    +0.000 A 
ATOM     27  C   UNL     1      49.069   6.867  15.492  0.00  0.00    +0.000 A 
BRANCH  26  28
ATOM     28  C   UNL     1      49.392   5.007  17.065  0.00  0.00    +0.000 C 
ATOM     29  N   UNL     1      49.676   3.898  17.276  0.00  0.00    +0.000 NA
ENDBRANCH  26  28
ENDBRANCH  19  22
ENDBRANCH  18  19
ENDBRANCH   5  18
TORSDOF 8
ENDMDL
MODEL 9
REMARK VINA RESULT:    -5.868      3.871      5.326
REMARK INTER + INTRA:          -9.372
REMARK INTER:                  -8.448
REMARK INTRA:                  -0.924
REMARK UNBOUND:                -0.759
REMARK  Name = 
REMARK  12 active torsions:
REMARK  status: ('A' for Active; 'I' for Inactive)
REMARK    1  A    between atoms: C_1  and  N_2
REMARK    2  A    between atoms: N_2  and  C_3
REMARK    3  A    between atoms: N_2  and  C_4
REMARK    4  A    between atoms: C_4  and  C_5
REMARK    5  A    between atoms: C_5  and  N_6
REMARK    6  A    between atoms: C_7  and  C_9
REMARK    7  A    between atoms: N_13  and  C_14
REMARK    8  A    between atoms: C_14  and  C_15
REMARK    9  A    between atoms: C_15  and  C_16
REMARK   10  A    between atoms: C_15  and  C_17
REMARK   11  A    between atoms: C_15  and  C_18
REMARK   12  A    between atoms: C_22  and  C_23
REMARK                            x       y       z     vdW  Elec       q    Type
REMARK                         _______ _______ _______ _____ _____    ______ ____
ROOT
ATOM      1  C   UNL     1      45.149   4.844  11.008  0.00  0.00    +0.000 A 
ATOM      2  C   UNL     1      44.831   4.686  12.352  0.00  0.00    +0.000 A 
ATOM      3  C   UNL     1      45.330   5.605  13.278  0.00  0.00    +0.000 A 
ATOM      4  C   UNL     1      46.124   6.672  12.850  0.00  0.00    +0.000 A 
ATOM      5  N   UNL     1      46.660   7.522  13.828  0.00  0.00    +0.000 N 
ATOM      6  N   UNL     1      46.433   6.835  11.550  0.00  0.00    +0.000 NA
ATOM      7  C   UNL     1      45.954   5.922  10.663  0.00  0.00    +0.000 A 
ATOM      8  H   UNL     1      45.931   7.772  14.486  0.00  0.00    +0.000 HD
ENDROOT
BRANCH   1  10
ATOM      9  N   UNL     1      45.137   4.164   8.663  0.00  0.00    +0.000 N 
ATOM     10  C   UNL     1      44.744   3.887   9.955  0.00  0.00    +0.000 C 
ATOM     11  O   UNL     1      44.089   2.894  10.259  0.00  0.00    +0.000 OA
ATOM     12  H   UNL     1      45.875   4.832   8.479  0.00  0.00    +0.000 HD
BRANCH   9  13
ATOM     13  C   UNL     1      44.823   3.248   7.583  0.00  0.00    +0.000 C 
BRANCH  13  14
ATOM     14  C   UNL     1      46.038   2.974   6.677  0.00  0.00    +0.000 C 
BRANCH  14  16
ATOM     15  C   UNL     1      46.762   0.847   7.620  0.00  0.00    +0.000 C 
ATOM     16  N   UNL     1      47.144   2.233   7.328  0.00  0.00    +0.000 NA
ATOM     17  C   UNL     1      48.312   2.229   6.435  0.00  0.00    +0.000 C 
ENDBRANCH  14  16
ENDBRANCH  13  14
ENDBRANCH   9  13
ENDBRANCH   1  10
BRANCH   5  18
ATOM     18  C   UNL     1      47.406   8.683  13.323  0.00  0.00    +0.000 C 
BRANCH  18  19
ATOM     19  C   UNL     1      48.890   8.690  13.831  0.00  0.00    +0.000 C 
ATOM     20  C   UNL     1      49.080   9.767  14.927  0.00  0.00    +0.000 C 
ATOM     21  C   UNL     1      49.203   7.319  14.480  0.00  0.00    +0.000 C 
BRANCH  19  22
ATOM     22  C   UNL     1      49.843   9.028  12.655  0.00  0.00    +0.000 A 
ATOM     23  C   UNL     1      50.019  10.364  12.246  0.00  0.00    +0.000 A 
ATOM     24  C   UNL     1      50.902  10.705  11.215  0.00  0.00    +0.000 A 
ATOM     25  C   UNL     1      51.632   9.716  10.565  0.00  0.00    +0.000 A 
ATOM     26  C   UNL     1      51.475   8.383  10.941  0.00  0.00    +0.000 A 
ATOM     27  C   UNL     1      50.586   8.045  11.972  0.00  0.00    +0.000 A 
BRANCH  26  28
ATOM     28  C   UNL     1      52.228   7.358  10.279  0.00  0.00    +0.000 C 
ATOM     29  N   UNL     1      52.836   6.527   9.734  0.00  0.00    +0.000 NA
ENDBRANCH  26  28
ENDBRANCH  19  22
ENDBRANCH  18  19
ENDBRANCH   5  18
TORSDOF 8
ENDMDL
