MODEL 1
REMARK VINA RESULT:    -8.326      0.000      0.000
REMARK INTER + INTRA:         -11.306
REMARK INTER:                 -10.760
REMARK INTRA:                  -0.545
REMARK UNBOUND:                -0.545
REMARK  Name = 
REMARK  5 active torsions:
REMARK  status: ('A' for Active; 'I' for Inactive)
REMARK    1  A    between atoms: C_2  and  C_4
REMARK    2  A    between atoms: C_7  and  N_8
REMARK    3  A    between atoms: N_8  and  C_9
REMARK    4  A    between atoms: C_9  and  C_10
REMARK    5  A    between atoms: C_13  and  C_14
REMARK                            x       y       z     vdW  Elec       q    Type
REMARK                         _______ _______ _______ _____ _____    ______ ____
ROOT
ATOM      1  N   UNL     1      44.450   5.855  10.778  0.00  0.00    +0.000 N 
ATOM      2  H   UNL     1      45.051   6.287  10.081  0.00  0.00    +0.000 HD
ENDROOT
BRANCH   1   6
ATOM      3  C   UNL     1      46.583   4.635  14.076  0.00  0.00    +0.000 A 
ATOM      4  C   UNL     1      47.136   5.527  13.171  0.00  0.00    +0.000 A 
ATOM      5  N   UNL     1      46.464   5.966  12.071  0.00  0.00    +0.000 NA
ATOM      6  C   UNL     1      45.208   5.497  11.903  0.00  0.00    +0.000 A 
ATOM      7  C   UNL     1      44.669   4.596  12.834  0.00  0.00    +0.000 A 
ATOM      8  N   UNL     1      45.324   4.143  13.935  0.00  0.00    +0.000 NA
BRANCH   3  10
ATOM      9  N   UNL     1      47.582   5.084  16.236  0.00  0.00    +0.000 N 
ATOM     10  C   UNL     1      47.379   4.163  15.242  0.00  0.00    +0.000 C 
ATOM     11  O   UNL     1      47.818   3.023  15.316  0.00  0.00    +0.000 OA
ATOM     12  H   UNL     1      48.087   4.817  17.068  0.00  0.00    +0.000 HD
ATOM     13  H   UNL     1      47.183   6.012  16.154  0.00  0.00    +0.000 HD
ENDBRANCH   3  10
ENDBRANCH   1   6
BRANCH   1  14
ATOM     14  C   UNL     1      43.644   4.782  10.206  0.00  0.00    +0.000 C 
BRANCH  14  15
ATOM     15  C   UNL     1      44.532   3.885   9.379  0.00  0.00    +0.000 A 
ATOM     16  C   UNL     1      45.360   4.395   8.375  0.00  0.00    +0.000 A 
ATOM     17  C   UNL     1      46.175   3.536   7.639  0.00  0.00    +0.000 A 
ATOM     18  C   UNL     1      46.149   2.167   7.915  0.00  0.00    +0.000 A 
ATOM     19  N   UNL     1      45.334   1.653   8.882  0.00  0.00    +0.000 NA
ATOM     20  C   UNL     1      44.553   2.512   9.578  0.00  0.00    +0.000 A 
BRANCH  18  21
ATOM     21  C   UNL     1      47.051   1.218   7.134  0.00  0.00    +0.000 C 
ATOM     22  F   UNL     1      46.849   1.274   5.782  0.00  0.00    +0.000 F 
ATOM     23  F   UNL     1      48.379   1.476   7.309  0.00  0.00    +0.000 F 
ATOM     24  F   UNL     1      46.872  -0.093   7.469  0.00  0.00    +0.000 F 
ENDBRANCH  18  21
ENDBRANCH  14  15
ENDBRANCH   1  14
TORSDOF 5
ENDMDL
MODEL 2
REMARK VINA RESULT:    -8.006      1.517      2.155
REMARK INTER + INTRA:         -10.891
REMARK INTER:                 -10.330
REMARK INTRA:                  -0.562
REMARK UNBOUND:                -0.545
REMARK  Name = 
REMARK  5 active torsions:
REMARK  status: ('A' for Active; 'I' for Inactive)
REMARK    1  A    between atoms: C_2  and  C_4
REMARK    2  A    between atoms: C_7  and  N_8
REMARK    3  A    between atoms: N_8  and  C_9
REMARK    4  A    between atoms: C_9  and  C_10
REMARK    5  A    between atoms: C_13  and  C_14
REMARK                            x       y       z     vdW  Elec       q    Type
REMARK                         _______ _______ _______ _____ _____    ______ ____
ROOT
ATOM      1  N   UNL     1      43.928   3.601  12.019  0.00  0.00    +0.000 N 
ATOM      2  H   UNL     1      43.142   3.595  12.665  0.00  0.00    +0.000 HD
ENDROOT
BRANCH   1   6
ATOM      3  C   UNL     1      47.089   5.481  13.859  0.00  0.00    +0.000 A 
ATOM      4  C   UNL     1      46.984   4.100  13.878  0.00  0.00    +0.000 A 
ATOM      5  N   UNL     1      45.962   3.434  13.274  0.00  0.00    +0.000 NA
ATOM      6  C   UNL     1      45.043   4.189  12.634  0.00  0.00    +0.000 A 
ATOM      7  C   UNL     1      45.171   5.587  12.627  0.00  0.00    +0.000 A 
ATOM      8  N   UNL     1      46.181   6.271  13.226  0.00  0.00    +0.000 NA
BRANCH   3  10
ATOM      9  N   UNL     1      48.119   6.188  15.933  0.00  0.00    +0.000 N 
ATOM     10  C   UNL     1      48.211   6.156  14.566  0.00  0.00    +0.000 C 
ATOM     11  O   UNL     1      49.162   6.645  13.969  0.00  0.00    +0.000 OA
ATOM     12  H   UNL     1      48.864   6.605  16.474  0.00  0.00    +0.000 HD
ATOM     13  H   UNL     1      47.331   5.752  16.397  0.00  0.00    +0.000 HD
ENDBRANCH   3  10
ENDBRANCH   1   6
BRANCH   1  14
ATOM     14  C   UNL     1      43.561   4.168  10.726  0.00  0.00    +0.000 C 
BRANCH  14  15
ATOM     15  C   UNL     1      44.500   3.639   9.671  0.00  0.00    +0.000 A 
ATOM     16  C   UNL     1      44.717   2.269   9.500  0.00  0.00    +0.000 A 
ATOM     17  C   UNL     1      45.584   1.817   8.506  0.00  0.00    +0.000 A 
ATOM     18  C   UNL     1      46.233   2.748   7.692  0.00  0.00    +0.000 A 
ATOM     19  N   UNL     1      46.043   4.090   7.858  0.00  0.00    +0.000 NA
ATOM     20  C   UNL     1      45.197   4.498   8.833  0.00  0.00    +0.000 A 
BRANCH  18  21
ATOM     21  C   UNL     1      47.168   2.270   6.587  0.00  0.00    +0.000 C 
ATOM     22  F   UNL     1      48.479   2.586   6.816  0.00  0.00    +0.000 F 
ATOM     23  F   UNL     1      47.151   0.915   6.421  0.00  0.00    +0.000 F 
ATOM     24  F   UNL     1      46.877   2.805   5.366  0.00  0.00    +0.000 F 
ENDBRANCH  18  21
ENDBRANCH  14  15
ENDBRANCH   1  14
TORSDOF 5
ENDMDL
MODEL 3
REMARK VINA RESULT:    -7.859      4.116      6.658
REMARK INTER + INTRA:         -10.702
REMARK INTER:                 -10.144
REMARK INTRA:                  -0.558
REMARK UNBOUND:                -0.545
REMARK  Name = 
REMARK  5 active torsions:
REMARK  status: ('A' for Active; 'I' for Inactive)
REMARK    1  A    between atoms: C_2  and  C_4
REMARK    2  A    between atoms: C_7  and  N_8
REMARK    3  A    between atoms: N_8  and  C_9
REMARK    4  A    between atoms: C_9  and  C_10
REMARK    5  A    between atoms: C_13  and  C_14
REMARK                            x       y       z     vdW  Elec       q    Type
REMARK                         _______ _______ _______ _____ _____    ______ ____
ROOT
ATOM      1  N   UNL     1      43.716   4.805   9.626  0.00  0.00    +0.000 N 
ATOM      2  H   UNL     1      42.837   4.756   9.118  0.00  0.00    +0.000 HD
ENDROOT
BRANCH   1   6
ATOM      3  C   UNL     1      46.386   2.252   7.818  0.00  0.00    +0.000 A 
ATOM      4  C   UNL     1      46.404   3.608   7.531  0.00  0.00    +0.000 A 
ATOM      5  N   UNL     1      45.547   4.492   8.113  0.00  0.00    +0.000 NA
ATOM      6  C   UNL     1      44.670   3.985   9.006  0.00  0.00    +0.000 A 
ATOM      7  C   UNL     1      44.672   2.608   9.282  0.00  0.00    +0.000 A 
ATOM      8  N   UNL     1      45.516   1.709   8.711  0.00  0.00    +0.000 NA
BRANCH   3  10
ATOM      9  N   UNL     1      48.375   1.923   6.478  0.00  0.00    +0.000 N 
ATOM     10  C   UNL     1      47.325   1.328   7.125  0.00  0.00    +0.000 C 
ATOM     11  O   UNL     1      47.176   0.113   7.139  0.00  0.00    +0.000 OA
ATOM     12  H   UNL     1      49.066   1.350   6.015  0.00  0.00    +0.000 HD
ATOM     13  H   UNL     1      48.483   2.930   6.508  0.00  0.00    +0.000 HD
ENDBRANCH   3  10
ENDBRANCH   1   6
BRANCH   1  14
ATOM     14  C   UNL     1      43.530   4.571  11.054  0.00  0.00    +0.000 C 
BRANCH  14  15
ATOM     15  C   UNL     1      44.701   5.153  11.806  0.00  0.00    +0.000 A 
ATOM     16  C   UNL     1      45.130   6.466  11.596  0.00  0.00    +0.000 A 
ATOM     17  C   UNL     1      46.210   6.973  12.319  0.00  0.00    +0.000 A 
ATOM     18  C   UNL     1      46.854   6.152  13.247  0.00  0.00    +0.000 A 
ATOM     19  N   UNL     1      46.455   4.862  13.452  0.00  0.00    +0.000 NA
ATOM     20  C   UNL     1      45.406   4.399  12.734  0.00  0.00    +0.000 A 
BRANCH  18  21
ATOM     21  C   UNL     1      48.022   6.698  14.061  0.00  0.00    +0.000 C 
ATOM     22  F   UNL     1      49.198   6.729  13.362  0.00  0.00    +0.000 F 
ATOM     23  F   UNL     1      47.825   7.979  14.487  0.00  0.00    +0.000 F 
ATOM     24  F   UNL     1      48.289   5.963  15.180  0.00  0.00    +0.000 F 
ENDBRANCH  18  21
ENDBRANCH  14  15
ENDBRANCH   1  14
TORSDOF 5
ENDMDL
MODEL 4
REMARK VINA RESULT:    -6.799      2.403      2.964
REMARK INTER + INTRA:          -9.332
REMARK INTER:                  -8.794
REMARK INTRA:                  -0.538
REMARK UNBOUND:                -0.545
REMARK  Name = 
REMARK  5 active torsions:
REMARK  status: ('A' for Active; 'I' for Inactive)
REMARK    1  A    between atoms: C_2  and  C_4
REMARK    2  A    between atoms: C_7  and  N_8
REMARK    3  A    between atoms: N_8  and  C_9
REMARK    4  A    between atoms: C_9  and  C_10
REMARK    5  A    between atoms: C_13  and  C_14
REMARK                            x       y       z     vdW  Elec       q    Type
REMARK                         _______ _______ _______ _____ _____    ______ ____
ROOT
ATOM      1  N   UNL     1      44.935   5.010  12.192  0.00  0.00    +0.000 N 
ATOM      2  H   UNL     1      44.330   5.152  12.997  0.00  0.00    +0.000 HD
ENDROOT
BRANCH   1   6
ATOM      3  C   UNL     1      48.483   7.041  12.633  0.00  0.00    +0.000 A 
ATOM      4  C   UNL     1      47.410   7.632  11.985  0.00  0.00    +0.000 A 
ATOM      5  N   UNL     1      46.213   7.002  11.825  0.00  0.00    +0.000 NA
ATOM      6  C   UNL     1      46.111   5.759  12.344  0.00  0.00    +0.000 A 
ATOM      7  C   UNL     1      47.211   5.182  12.997  0.00  0.00    +0.000 A 
ATOM      8  N   UNL     1      48.414   5.791  13.164  0.00  0.00    +0.000 NA
BRANCH   3  10
ATOM      9  N   UNL     1      50.463   7.577  13.919  0.00  0.00    +0.000 N 
ATOM     10  C   UNL     1      49.779   7.765  12.748  0.00  0.00    +0.000 C 
ATOM     11  O   UNL     1      50.212   8.476  11.850  0.00  0.00    +0.000 OA
ATOM     12  H   UNL     1      51.364   8.016  14.047  0.00  0.00    +0.000 HD
ATOM     13  H   UNL     1      50.087   6.962  14.631  0.00  0.00    +0.000 HD
ENDBRANCH   3  10
ENDBRANCH   1   6
BRANCH   1  14
ATOM     14  C   UNL     1      44.222   5.220  10.936  0.00  0.00    +0.000 C 
BRANCH  14  15
ATOM     15  C   UNL     1      44.911   4.442   9.842  0.00  0.00    +0.000 A 
ATOM     16  C   UNL     1      44.870   3.046   9.795  0.00  0.00    +0.000 A 
ATOM     17  C   UNL     1      45.510   2.363   8.762  0.00  0.00    +0.000 A 
ATOM     18  C   UNL     1      46.190   3.089   7.783  0.00  0.00    +0.000 A 
ATOM     19  N   UNL     1      46.252   4.452   7.824  0.00  0.00    +0.000 NA
ATOM     20  C   UNL     1      45.623   5.087   8.840  0.00  0.00    +0.000 A 
BRANCH  18  21
ATOM     21  C   UNL     1      46.876   2.357   6.634  0.00  0.00    +0.000 C 
ATOM     22  F   UNL     1      46.830   0.996   6.758  0.00  0.00    +0.000 F 
ATOM     23  F   UNL     1      46.316   2.625   5.419  0.00  0.00    +0.000 F 
ATOM     24  F   UNL     1      48.201   2.662   6.516  0.00  0.00    +0.000 F 
ENDBRANCH  18  21
ENDBRANCH  14  15
ENDBRANCH   1  14
TORSDOF 5
ENDMDL
MODEL 5
REMARK VINA RESULT:    -6.460      3.580      5.542
REMARK INTER + INTRA:          -8.894
REMARK INTER:                  -8.517
REMARK INTRA:                  -0.377
REMARK UNBOUND:                -0.545
REMARK  Name = 
REMARK  5 active torsions:
REMARK  status: ('A' for Active; 'I' for Inactive)
REMARK    1  A    between atoms: C_2  and  C_4
REMARK    2  A    between atoms: C_7  and  N_8
REMARK    3  A    between atoms: N_8  and  C_9
REMARK    4  A    between atoms: C_9  and  C_10
REMARK    5  A    between atoms: C_13  and  C_14
REMARK                            x       y       z     vdW  Elec       q    Type
REMARK                         _______ _______ _______ _____ _____    ______ ____
ROOT
ATOM      1  N   UNL     1      47.484   4.740  16.131  0.00  0.00    +0.000 N 
ATOM      2  H   UNL     1      47.112   5.299  16.895  0.00  0.00    +0.000 HD
ENDROOT
BRANCH   1   6
ATOM      3  C   UNL     1      50.703   2.458  17.290  0.00  0.00    +0.000 A 
ATOM      4  C   UNL     1      50.685   3.823  17.530  0.00  0.00    +0.000 A 
ATOM      5  N   UNL     1      49.637   4.616  17.174  0.00  0.00    +0.000 NA
ATOM      6  C   UNL     1      48.592   4.004  16.576  0.00  0.00    +0.000 A 
ATOM      7  C   UNL     1      48.633   2.620  16.344  0.00  0.00    +0.000 A 
ATOM      8  N   UNL     1      49.669   1.811  16.689  0.00  0.00    +0.000 NA
BRANCH   3  10
ATOM      9  N   UNL     1      51.640   0.341  17.999  0.00  0.00    +0.000 N 
ATOM     10  C   UNL     1      51.892   1.647  17.671  0.00  0.00    +0.000 C 
ATOM     11  O   UNL     1      53.024   2.112  17.681  0.00  0.00    +0.000 OA
ATOM     12  H   UNL     1      52.408  -0.271  18.237  0.00  0.00    +0.000 HD
ATOM     13  H   UNL     1      50.694  -0.018  17.955  0.00  0.00    +0.000 HD
ENDBRANCH   3  10
ENDBRANCH   1   6
BRANCH   1  14
ATOM     14  C   UNL     1      47.713   5.544  14.935  0.00  0.00    +0.000 C 
BRANCH  14  15
ATOM     15  C   UNL     1      46.822   5.043  13.826  0.00  0.00    +0.000 A 
ATOM     16  C   UNL     1      46.364   5.888  12.812  0.00  0.00    +0.000 A 
ATOM     17  C   UNL     1      45.551   5.385  11.797  0.00  0.00    +0.000 A 
ATOM     18  C   UNL     1      45.200   4.034  11.811  0.00  0.00    +0.000 A 
ATOM     19  N   UNL     1      45.627   3.199  12.803  0.00  0.00    +0.000 NA
ATOM     20  C   UNL     1      46.414   3.717  13.776  0.00  0.00    +0.000 A 
BRANCH  18  21
ATOM     21  C   UNL     1      44.329   3.464  10.696  0.00  0.00    +0.000 C 
ATOM     22  F   UNL     1      43.541   2.424  11.107  0.00  0.00    +0.000 F 
ATOM     23  F   UNL     1      43.466   4.381  10.170  0.00  0.00    +0.000 F 
ATOM     24  F   UNL     1      45.050   2.976   9.646  0.00  0.00    +0.000 F 
ENDBRANCH  18  21
ENDBRANCH  14  15
ENDBRANCH   1  14
TORSDOF 5
ENDMDL
MODEL 6
REMARK VINA RESULT:    -6.394      2.152      3.315
REMARK INTER + INTRA:          -8.808
REMARK INTER:                  -8.357
REMARK INTRA:                  -0.451
REMARK UNBOUND:                -0.545
REMARK  Name = 
REMARK  5 active torsions:
REMARK  status: ('A' for Active; 'I' for Inactive)
REMARK    1  A    between atoms: C_2  and  C_4
REMARK    2  A    between atoms: C_7  and  N_8
REMARK    3  A    between atoms: N_8  and  C_9
REMARK    4  A    between atoms: C_9  and  C_10
REMARK    5  A    between atoms: C_13  and  C_14
REMARK                            x       y       z     vdW  Elec       q    Type
REMARK                         _______ _______ _______ _____ _____    ______ ____
ROOT
ATOM      1  N   UNL     1      46.383   5.903  13.672  0.00  0.00    +0.000 N 
ATOM      2  H   UNL     1      46.975   6.047  12.857  0.00  0.00    +0.000 HD
ENDROOT
BRANCH   1   6
ATOM      3  C   UNL     1      48.614   4.357  16.761  0.00  0.00    +0.000 A 
ATOM      4  C   UNL     1      47.532   3.655  16.255  0.00  0.00    +0.000 A 
ATOM      5  N   UNL     1      46.772   4.122  15.226  0.00  0.00    +0.000 NA
ATOM      6  C   UNL     1      47.129   5.315  14.703  0.00  0.00    +0.000 A 
ATOM      7  C   UNL     1      48.229   6.008  15.233  0.00  0.00    +0.000 A 
ATOM      8  N   UNL     1      48.999   5.561  16.260  0.00  0.00    +0.000 NA
BRANCH   3  10
ATOM      9  N   UNL     1      48.669   3.082  18.819  0.00  0.00    +0.000 N 
ATOM     10  C   UNL     1      49.388   3.812  17.910  0.00  0.00    +0.000 C 
ATOM     11  O   UNL     1      50.592   3.995  18.033  0.00  0.00    +0.000 OA
ATOM     12  H   UNL     1      49.141   2.659  19.605  0.00  0.00    +0.000 HD
ATOM     13  H   UNL     1      47.678   2.929  18.673  0.00  0.00    +0.000 HD
ENDBRANCH   3  10
ENDBRANCH   1   6
BRANCH   1  14
ATOM     14  C   UNL     1      45.147   5.208  13.326  0.00  0.00    +0.000 C 
BRANCH  14  15
ATOM     15  C   UNL     1      45.227   4.743  11.893  0.00  0.00    +0.000 A 
ATOM     16  C   UNL     1      45.578   5.613  10.857  0.00  0.00    +0.000 A 
ATOM     17  C   UNL     1      45.652   5.144   9.546  0.00  0.00    +0.000 A 
ATOM     18  C   UNL     1      45.369   3.802   9.285  0.00  0.00    +0.000 A 
ATOM     19  N   UNL     1      45.010   2.944  10.285  0.00  0.00    +0.000 NA
ATOM     20  C   UNL     1      44.945   3.429  11.546  0.00  0.00    +0.000 A 
BRANCH  18  21
ATOM     21  C   UNL     1      45.467   3.268   7.860  0.00  0.00    +0.000 C 
ATOM     22  F   UNL     1      46.279   4.021   7.057  0.00  0.00    +0.000 F 
ATOM     23  F   UNL     1      45.975   2.003   7.795  0.00  0.00    +0.000 F 
ATOM     24  F   UNL     1      44.264   3.227   7.217  0.00  0.00    +0.000 F 
ENDBRANCH  18  21
ENDBRANCH  14  15
ENDBRANCH   1  14
TORSDOF 5
ENDMDL
MODEL 7
REMARK VINA RESULT:    -6.369      5.053      7.973
REMARK INTER + INTRA:          -8.776
REMARK INTER:                  -8.381
REMARK INTRA:                  -0.395
REMARK UNBOUND:                -0.545
REMARK  Name = 
REMARK  5 active torsions:
REMARK  status: ('A' for Active; 'I' for Inactive)
REMARK    1  A    between atoms: C_2  and  C_4
REMARK    2  A    between atoms: C_7  and  N_8
REMARK    3  A    between atoms: N_8  and  C_9
REMARK    4  A    between atoms: C_9  and  C_10
REMARK    5  A    between atoms: C_13  and  C_14
REMARK                            x       y       z     vdW  Elec       q    Type
REMARK                         _______ _______ _______ _____ _____    ______ ____
ROOT
ATOM      1  N   UNL     1      47.447   5.200  15.107  0.00  0.00    +0.000 N 
ATOM      2  H   UNL     1      47.444   6.197  15.311  0.00  0.00    +0.000 HD
ENDROOT
BRANCH   1   6
ATOM      3  C   UNL     1      44.944   4.262  11.982  0.00  0.00    +0.000 A 
ATOM      4  C   UNL     1      45.186   5.585  12.317  0.00  0.00    +0.000 A 
ATOM      5  N   UNL     1      46.015   5.943  13.336  0.00  0.00    +0.000 NA
ATOM      6  C   UNL     1      46.611   4.937  14.012  0.00  0.00    +0.000 A 
ATOM      7  C   UNL     1      46.351   3.605  13.654  0.00  0.00    +0.000 A 
ATOM      8  N   UNL     1      45.526   3.226  12.643  0.00  0.00    +0.000 NA
BRANCH   3  10
ATOM      9  N   UNL     1      44.067   4.739   9.776  0.00  0.00    +0.000 N 
ATOM     10  C   UNL     1      44.001   3.930  10.880  0.00  0.00    +0.000 C 
ATOM     11  O   UNL     1      43.220   2.989  10.947  0.00  0.00    +0.000 OA
ATOM     12  H   UNL     1      43.475   4.548   8.981  0.00  0.00    +0.000 HD
ATOM     13  H   UNL     1      44.743   5.494   9.743  0.00  0.00    +0.000 HD
ENDBRANCH   3  10
ENDBRANCH   1   6
BRANCH   1  14
ATOM     14  C   UNL     1      47.177   4.404  16.300  0.00  0.00    +0.000 C 
BRANCH  14  15
ATOM     15  C   UNL     1      48.410   3.608  16.650  0.00  0.00    +0.000 A 
ATOM     16  C   UNL     1      49.433   4.143  17.437  0.00  0.00    +0.000 A 
ATOM     17  C   UNL     1      50.552   3.372  17.749  0.00  0.00    +0.000 A 
ATOM     18  C   UNL     1      50.636   2.066  17.263  0.00  0.00    +0.000 A 
ATOM     19  N   UNL     1      49.652   1.534  16.480  0.00  0.00    +0.000 NA
ATOM     20  C   UNL     1      48.579   2.308  16.193  0.00  0.00    +0.000 A 
BRANCH  18  21
ATOM     21  C   UNL     1      51.843   1.202  17.613  0.00  0.00    +0.000 C 
ATOM     22  F   UNL     1      51.508   0.043  18.258  0.00  0.00    +0.000 F 
ATOM     23  F   UNL     1      52.555   0.809  16.517  0.00  0.00    +0.000 F 
ATOM     24  F   UNL     1      52.732   1.828  18.437  0.00  0.00    +0.000 F 
ENDBRANCH  18  21
ENDBRANCH  14  15
ENDBRANCH   1  14
TORSDOF 5
ENDMDL
MODEL 8
REMARK VINA RESULT:    -5.870      4.890      7.806
REMARK INTER + INTRA:          -8.131
REMARK INTER:                  -7.844
REMARK INTRA:                  -0.287
REMARK UNBOUND:                -0.545
REMARK  Name = 
REMARK  5 active torsions:
REMARK  status: ('A' for Active; 'I' for Inactive)
REMARK    1  A    between atoms: C_2  and  C_4
REMARK    2  A    between atoms: C_7  and  N_8
REMARK    3  A    between atoms: N_8  and  C_9
REMARK    4  A    between atoms: C_9  and  C_10
REMARK    5  A    between atoms: C_13  and  C_14
REMARK                            x       y       z     vdW  Elec       q    Type
REMARK                         _______ _______ _______ _____ _____    ______ ____
ROOT
ATOM      1  N   UNL     1      45.716   6.134  13.429  0.00  0.00    +0.000 N 
ATOM      2  H   UNL     1      45.297   5.784  14.287  0.00  0.00    +0.000 HD
ENDROOT
BRANCH   1   6
ATOM      3  C   UNL     1      44.852   3.768  10.179  0.00  0.00    +0.000 A 
ATOM      4  C   UNL     1      44.640   3.301  11.466  0.00  0.00    +0.000 A 
ATOM      5  N   UNL     1      44.901   4.052  12.571  0.00  0.00    +0.000 NA
ATOM      6  C   UNL     1      45.374   5.299  12.356  0.00  0.00    +0.000 A 
ATOM      7  C   UNL     1      45.580   5.751  11.043  0.00  0.00    +0.000 A 
ATOM      8  N   UNL     1      45.329   5.017   9.928  0.00  0.00    +0.000 NA
BRANCH   3  10
ATOM      9  N   UNL     1      44.451   3.526   7.804  0.00  0.00    +0.000 N 
ATOM     10  C   UNL     1      44.581   2.889   9.009  0.00  0.00    +0.000 C 
ATOM     11  O   UNL     1      44.488   1.672   9.113  0.00  0.00    +0.000 OA
ATOM     12  H   UNL     1      44.297   2.983   6.966  0.00  0.00    +0.000 HD
ATOM     13  H   UNL     1      44.559   4.532   7.749  0.00  0.00    +0.000 HD
ENDBRANCH   3  10
ENDBRANCH   1   6
BRANCH   1  14
ATOM     14  C   UNL     1      47.144   6.385  13.590  0.00  0.00    +0.000 C 
BRANCH  14  15
ATOM     15  C   UNL     1      47.647   5.622  14.790  0.00  0.00    +0.000 A 
ATOM     16  C   UNL     1      47.128   4.371  15.137  0.00  0.00    +0.000 A 
ATOM     17  C   UNL     1      47.626   3.691  16.247  0.00  0.00    +0.000 A 
ATOM     18  C   UNL     1      48.642   4.276  17.005  0.00  0.00    +0.000 A 
ATOM     19  N   UNL     1      49.149   5.503  16.689  0.00  0.00    +0.000 NA
ATOM     20  C   UNL     1      48.643   6.140  15.606  0.00  0.00    +0.000 A 
BRANCH  18  21
ATOM     21  C   UNL     1      49.213   3.535  18.210  0.00  0.00    +0.000 C 
ATOM     22  F   UNL     1      50.036   2.498  17.865  0.00  0.00    +0.000 F 
ATOM     23  F   UNL     1      49.965   4.333  19.022  0.00  0.00    +0.000 F 
ATOM     24  F   UNL     1      48.253   2.982  19.007  0.00  0.00    +0.000 F 
ENDBRANCH  18  21
ENDBRANCH  14  15
ENDBRANCH   1  14
TORSDOF 5
ENDMDL
MODEL 9
REMARK VINA RESULT:    -5.821      3.606      5.413
REMARK INTER + INTRA:          -8.068
REMARK INTER:                  -7.631
REMARK INTRA:                  -0.437
REMARK UNBOUND:                -0.545
REMARK  Name = 
REMARK  5 active torsions:
REMARK  status: ('A' for Active; 'I' for Inactive)
REMARK    1  A    between atoms: C_2  and  C_4
REMARK    2  A    between atoms: C_7  and  N_8
REMARK    3  A    between atoms: N_8  and  C_9
REMARK    4  A    between atoms: C_9  and  C_10
REMARK    5  A    between atoms: C_13  and  C_14
REMARK                            x       y       z     vdW  Elec       q    Type
REMARK                         _______ _______ _______ _____ _____    ______ ____
ROOT
ATOM      1  N   UNL     1      47.980   6.867  14.883  0.00  0.00    +0.000 N 
ATOM      2  H   UNL     1      47.976   7.881  14.967  0.00  0.00    +0.000 HD
ENDROOT
BRANCH   1   6
ATOM      3  C   UNL     1      50.337   5.089  17.746  0.00  0.00    +0.000 A 
ATOM      4  C   UNL     1      50.893   5.947  16.811  0.00  0.00    +0.000 A 
ATOM      5  N   UNL     1      50.150   6.567  15.852  0.00  0.00    +0.000 NA
ATOM      6  C   UNL     1      48.823   6.314  15.857  0.00  0.00    +0.000 A 
ATOM      7  C   UNL     1      48.283   5.441  16.815  0.00  0.00    +0.000 A 
ATOM      8  N   UNL     1      49.006   4.811  17.778  0.00  0.00    +0.000 NA
BRANCH   3  10
ATOM      9  N   UNL     1      50.742   4.426  20.039  0.00  0.00    +0.000 N 
ATOM     10  C   UNL     1      51.204   4.414  18.750  0.00  0.00    +0.000 C 
ATOM     11  O   UNL     1      52.258   3.872  18.445  0.00  0.00    +0.000 OA
ATOM     12  H   UNL     1      51.268   3.958  20.763  0.00  0.00    +0.000 HD
ATOM     13  H   UNL     1      49.852   4.862  20.253  0.00  0.00    +0.000 HD
ENDBRANCH   3  10
ENDBRANCH   1   6
BRANCH   1  14
ATOM     14  C   UNL     1      48.248   6.439  13.514  0.00  0.00    +0.000 C 
BRANCH  14  15
ATOM     15  C   UNL     1      47.073   5.638  13.010  0.00  0.00    +0.000 A 
ATOM     16  C   UNL     1      46.295   6.073  11.934  0.00  0.00    +0.000 A 
ATOM     17  C   UNL     1      45.223   5.299  11.489  0.00  0.00    +0.000 A 
ATOM     18  C   UNL     1      44.940   4.093  12.132  0.00  0.00    +0.000 A 
ATOM     19  N   UNL     1      45.682   3.663  13.194  0.00  0.00    +0.000 NA
ATOM     20  C   UNL     1      46.714   4.436  13.605  0.00  0.00    +0.000 A 
BRANCH  18  21
ATOM     21  C   UNL     1      43.785   3.225  11.644  0.00  0.00    +0.000 C 
ATOM     22  F   UNL     1      44.073   2.541  10.495  0.00  0.00    +0.000 F 
ATOM     23  F   UNL     1      43.415   2.270  12.545  0.00  0.00    +0.000 F 
ATOM     24  F   UNL     1      42.656   3.938  11.364  0.00  0.00    +0.000 F 
ENDBRANCH  18  21
ENDBRANCH  14  15
ENDBRANCH   1  14
TORSDOF 5
ENDMDL
