MODEL 1
REMARK VINA RESULT:    -8.580      0.000      0.000
REMARK INTER + INTRA:         -11.689
REMARK INTER:                 -11.589
REMARK INTRA:                  -0.100
REMARK UNBOUND:                -0.100
REMARK  Name = 
REMARK  7 active torsions:
REMARK  status: ('A' for Active; 'I' for Inactive)
REMARK    1  A    between atoms: N_1  and  C_2
REMARK    2  A    between atoms: C_2  and  C_3
REMARK    3  A    between atoms: C_3  and  N_4
REMARK    4  A    between atoms: C_3  and  C_5
REMARK    5  A    between atoms: C_8  and  C_9
REMARK    6  A    between atoms: C_9  and  N_10
REMARK    7  A    between atoms: C_15  and  C_16
REMARK                            x       y       z     vdW  Elec       q    Type
REMARK                         _______ _______ _______ _____ _____    ______ ____
ROOT
ATOM      1  C   UNL     1      44.901   6.050  11.011  0.00  0.00    +0.000 C 
ENDROOT
BRANCH   1   2
ATOM      2  N   UNL     1      44.368   4.932  10.246  0.00  0.00    +0.000 N 
ATOM      3  N   UNL     1      43.397   4.170  10.799  0.00  0.00    +0.000 NA
ATOM      4  N   UNL     1      43.581   2.931  10.365  0.00  0.00    +0.000 NA
ATOM      5  C   UNL     1      44.604   2.949   9.457  0.00  0.00    +0.000 A 
ATOM      6  C   UNL     1      45.258   1.899   8.807  0.00  0.00    +0.000 A 
ATOM      7  C   UNL     1      46.289   2.220   7.913  0.00  0.00    +0.000 A 
ATOM      8  C   UNL     1      46.599   3.554   7.610  0.00  0.00    +0.000 A 
ATOM      9  C   UNL     1      45.979   4.612   8.286  0.00  0.00    +0.000 A 
ATOM     10  C   UNL     1      45.017   4.258   9.237  0.00  0.00    +0.000 A 
BRANCH   7  11
ATOM     11  C   UNL     1      47.096   1.142   7.288  0.00  0.00    +0.000 C 
ATOM     12  N   UNL     1      46.778  -0.141   7.632  0.00  0.00    +0.000 N 
ATOM     13  O   UNL     1      48.045   1.391   6.556  0.00  0.00    +0.000 OA
ATOM     14  H   UNL     1      46.200  -0.352   8.432  0.00  0.00    +0.000 HD
ATOM     15  H   UNL     1      47.416  -0.863   7.319  0.00  0.00    +0.000 HD
ENDBRANCH   7  11
ENDBRANCH   1   2
BRANCH   1  19
ATOM     16  C   UNL     1      47.110   4.692  14.504  0.00  0.00    +0.000 A 
ATOM     17  C   UNL     1      45.969   4.004  14.062  0.00  0.00    +0.000 A 
ATOM     18  C   UNL     1      45.279   4.412  12.915  0.00  0.00    +0.000 A 
ATOM     19  C   UNL     1      45.708   5.527  12.184  0.00  0.00    +0.000 A 
ATOM     20  C   UNL     1      46.841   6.223  12.630  0.00  0.00    +0.000 A 
ATOM     21  C   UNL     1      47.530   5.814  13.775  0.00  0.00    +0.000 A 
BRANCH  16  22
ATOM     22  C   UNL     1      47.857   4.211  15.734  0.00  0.00    +0.000 C 
BRANCH  22  23
ATOM     23  N   UNL     1      48.305   2.815  15.600  0.00  0.00    +0.000 NA
ATOM     24  H   UNL     1      47.488   2.230  15.429  0.00  0.00    +0.000 HD
ATOM     25  H   UNL     1      48.611   2.531  16.537  0.00  0.00    +0.000 HD
ENDBRANCH  22  23
BRANCH  22  26
ATOM     26  C   UNL     1      47.024   4.401  17.035  0.00  0.00    +0.000 C 
BRANCH  26  27
ATOM     27  N   UNL     1      46.678   3.116  17.665  0.00  0.00    +0.000 NA
ATOM     28  H   UNL     1      46.857   2.366  16.998  0.00  0.00    +0.000 HD
ATOM     29  H   UNL     1      45.673   3.096  17.841  0.00  0.00    +0.000 HD
ENDBRANCH  26  27
ENDBRANCH  22  26
ENDBRANCH  16  22
ENDBRANCH   1  19
TORSDOF 7
ENDMDL
MODEL 2
REMARK VINA RESULT:    -8.450      1.746      2.282
REMARK INTER + INTRA:         -11.514
REMARK INTER:                 -10.770
REMARK INTRA:                  -0.744
REMARK UNBOUND:                -0.100
REMARK  Name = 
REMARK  7 active torsions:
REMARK  status: ('A' for Active; 'I' for Inactive)
REMARK    1  A    between atoms: N_1  and  C_2
REMARK    2  A    between atoms: C_2  and  C_3
REMARK    3  A    between atoms: C_3  and  N_4
REMARK    4  A    between atoms: C_3  and  C_5
REMARK    5  A    between atoms: C_8  and  C_9
REMARK    6  A    between atoms: C_9  and  N_10
REMARK    7  A    between atoms: C_15  and  C_16
REMARK                            x       y       z     vdW  Elec       q    Type
REMARK                         _______ _______ _______ _____ _____    ______ ____
ROOT
ATOM      1  C   UNL     1      43.721   5.541  10.936  0.00  0.00    +0.000 C 
ENDROOT
BRANCH   1   2
ATOM      2  N   UNL     1      43.638   4.238  10.292  0.00  0.00    +0.000 N 
ATOM      3  N   UNL     1      43.141   3.196  10.995  0.00  0.00    +0.000 NA
ATOM      4  N   UNL     1      43.788   2.111  10.592  0.00  0.00    +0.000 NA
ATOM      5  C   UNL     1      44.610   2.469   9.559  0.00  0.00    +0.000 A 
ATOM      6  C   UNL     1      45.578   1.731   8.873  0.00  0.00    +0.000 A 
ATOM      7  C   UNL     1      46.282   2.368   7.842  0.00  0.00    +0.000 A 
ATOM      8  C   UNL     1      45.966   3.677   7.448  0.00  0.00    +0.000 A 
ATOM      9  C   UNL     1      45.027   4.439   8.154  0.00  0.00    +0.000 A 
ATOM     10  C   UNL     1      44.406   3.805   9.236  0.00  0.00    +0.000 A 
BRANCH   7  11
ATOM     11  C   UNL     1      47.402   1.670   7.162  0.00  0.00    +0.000 C 
ATOM     12  N   UNL     1      48.366   2.458   6.602  0.00  0.00    +0.000 N 
ATOM     13  O   UNL     1      47.425   0.452   7.046  0.00  0.00    +0.000 OA
ATOM     14  H   UNL     1      48.224   3.445   6.442  0.00  0.00    +0.000 HD
ATOM     15  H   UNL     1      49.049   1.990   6.019  0.00  0.00    +0.000 HD
ENDBRANCH   7  11
ENDBRANCH   1   2
BRANCH   1  19
ATOM     16  C   UNL     1      47.307   5.969  13.361  0.00  0.00    +0.000 A 
ATOM     17  C   UNL     1      46.268   5.114  13.758  0.00  0.00    +0.000 A 
ATOM     18  C   UNL     1      45.131   4.940  12.962  0.00  0.00    +0.000 A 
ATOM     19  C   UNL     1      44.999   5.627  11.748  0.00  0.00    +0.000 A 
ATOM     20  C   UNL     1      46.031   6.492  11.354  0.00  0.00    +0.000 A 
ATOM     21  C   UNL     1      47.168   6.662  12.150  0.00  0.00    +0.000 A 
BRANCH  16  22
ATOM     22  C   UNL     1      48.542   6.116  14.229  0.00  0.00    +0.000 C 
BRANCH  22  23
ATOM     23  N   UNL     1      48.283   5.747  15.631  0.00  0.00    +0.000 NA
ATOM     24  H   UNL     1      47.622   6.416  16.022  0.00  0.00    +0.000 HD
ATOM     25  H   UNL     1      49.153   5.945  16.136  0.00  0.00    +0.000 HD
ENDBRANCH  22  23
BRANCH  22  26
ATOM     26  C   UNL     1      49.153   7.546  14.140  0.00  0.00    +0.000 C 
BRANCH  26  27
ATOM     27  N   UNL     1      50.459   7.550  13.460  0.00  0.00    +0.000 NA
ATOM     28  H   UNL     1      51.066   8.226  13.923  0.00  0.00    +0.000 HD
ATOM     29  H   UNL     1      50.333   7.897  12.508  0.00  0.00    +0.000 HD
ENDBRANCH  26  27
ENDBRANCH  22  26
ENDBRANCH  16  22
ENDBRANCH   1  19
TORSDOF 7
ENDMDL
MODEL 3
REMARK VINA RESULT:    -8.225      3.064      6.766
REMARK INTER + INTRA:         -11.210
REMARK INTER:                 -10.690
REMARK INTRA:                  -0.520
REMARK UNBOUND:                -0.100
REMARK  Name = 
REMARK  7 active torsions:
REMARK  status: ('A' for Active; 'I' for Inactive)
REMARK    1  A    between atoms: N_1  and  C_2
REMARK    2  A    between atoms: C_2  and  C_3
REMARK    3  A    between atoms: C_3  and  N_4
REMARK    4  A    between atoms: C_3  and  C_5
REMARK    5  A    between atoms: C_8  and  C_9
REMARK    6  A    between atoms: C_9  and  N_10
REMARK    7  A    between atoms: C_15  and  C_16
REMARK                            x       y       z     vdW  Elec       q    Type
REMARK                         _______ _______ _______ _____ _____    ______ ____
ROOT
ATOM      1  C   UNL     1      43.167   3.193  11.253  0.00  0.00    +0.000 C 
ENDROOT
BRANCH   1   2
ATOM      2  N   UNL     1      43.460   4.318  12.131  0.00  0.00    +0.000 N 
ATOM      3  N   UNL     1      42.678   5.419  12.059  0.00  0.00    +0.000 NA
ATOM      4  N   UNL     1      43.455   6.464  12.306  0.00  0.00    +0.000 NA
ATOM      5  C   UNL     1      44.697   5.997  12.637  0.00  0.00    +0.000 A 
ATOM      6  C   UNL     1      45.893   6.685  12.865  0.00  0.00    +0.000 A 
ATOM      7  C   UNL     1      47.031   5.934  13.191  0.00  0.00    +0.000 A 
ATOM      8  C   UNL     1      46.957   4.545  13.372  0.00  0.00    +0.000 A 
ATOM      9  C   UNL     1      45.775   3.842  13.106  0.00  0.00    +0.000 A 
ATOM     10  C   UNL     1      44.680   4.609  12.694  0.00  0.00    +0.000 A 
BRANCH   7  11
ATOM     11  C   UNL     1      48.350   6.601  13.326  0.00  0.00    +0.000 C 
ATOM     12  N   UNL     1      48.772   7.348  12.263  0.00  0.00    +0.000 N 
ATOM     13  O   UNL     1      49.058   6.433  14.310  0.00  0.00    +0.000 OA
ATOM     14  H   UNL     1      48.343   7.271  11.352  0.00  0.00    +0.000 HD
ATOM     15  H   UNL     1      49.727   7.683  12.298  0.00  0.00    +0.000 HD
ENDBRANCH   7  11
ENDBRANCH   1   2
BRANCH   1  19
ATOM     16  C   UNL     1      46.119   3.218   8.058  0.00  0.00    +0.000 A 
ATOM     17  C   UNL     1      45.695   2.012   8.636  0.00  0.00    +0.000 A 
ATOM     18  C   UNL     1      44.715   1.995   9.635  0.00  0.00    +0.000 A 
ATOM     19  C   UNL     1      44.140   3.188  10.090  0.00  0.00    +0.000 A 
ATOM     20  C   UNL     1      44.571   4.396   9.522  0.00  0.00    +0.000 A 
ATOM     21  C   UNL     1      45.548   4.412   8.523  0.00  0.00    +0.000 A 
BRANCH  16  22
ATOM     22  C   UNL     1      47.162   3.206   6.956  0.00  0.00    +0.000 C 
BRANCH  22  23
ATOM     23  N   UNL     1      46.750   4.011   5.795  0.00  0.00    +0.000 NA
ATOM     24  H   UNL     1      46.127   3.449   5.218  0.00  0.00    +0.000 HD
ATOM     25  H   UNL     1      47.590   4.110   5.214  0.00  0.00    +0.000 HD
ENDBRANCH  22  23
BRANCH  22  26
ATOM     26  C   UNL     1      47.535   1.759   6.520  0.00  0.00    +0.000 C 
BRANCH  26  27
ATOM     27  N   UNL     1      48.580   1.744   5.482  0.00  0.00    +0.000 NA
ATOM     28  H   UNL     1      48.229   2.231   4.658  0.00  0.00    +0.000 HD
ATOM     29  H   UNL     1      48.737   0.779   5.188  0.00  0.00    +0.000 HD
ENDBRANCH  26  27
ENDBRANCH  22  26
ENDBRANCH  16  22
ENDBRANCH   1  19
TORSDOF 7
ENDMDL
MODEL 4
REMARK VINA RESULT:    -7.868      2.280      6.898
REMARK INTER + INTRA:         -10.728
REMARK INTER:                  -9.988
REMARK INTRA:                  -0.740
REMARK UNBOUND:                -0.100
REMARK  Name = 
REMARK  7 active torsions:
REMARK  status: ('A' for Active; 'I' for Inactive)
REMARK    1  A    between atoms: N_1  and  C_2
REMARK    2  A    between atoms: C_2  and  C_3
REMARK    3  A    between atoms: C_3  and  N_4
REMARK    4  A    between atoms: C_3  and  C_5
REMARK    5  A    between atoms: C_8  and  C_9
REMARK    6  A    between atoms: C_9  and  N_10
REMARK    7  A    between atoms: C_15  and  C_16
REMARK                            x       y       z     vdW  Elec       q    Type
REMARK                         _______ _______ _______ _____ _____    ______ ____
ROOT
ATOM      1  C   UNL     1      43.610   5.042  10.148  0.00  0.00    +0.000 C 
ENDROOT
BRANCH   1   2
ATOM      2  N   UNL     1      44.384   5.809  11.114  0.00  0.00    +0.000 N 
ATOM      3  N   UNL     1      45.126   6.850  10.672  0.00  0.00    +0.000 NA
ATOM      4  N   UNL     1      46.208   6.907  11.436  0.00  0.00    +0.000 NA
ATOM      5  C   UNL     1      46.080   5.966  12.420  0.00  0.00    +0.000 A 
ATOM      6  C   UNL     1      46.989   5.546  13.396  0.00  0.00    +0.000 A 
ATOM      7  C   UNL     1      46.580   4.544  14.287  0.00  0.00    +0.000 A 
ATOM      8  C   UNL     1      45.271   4.040  14.261  0.00  0.00    +0.000 A 
ATOM      9  C   UNL     1      44.367   4.423  13.263  0.00  0.00    +0.000 A 
ATOM     10  C   UNL     1      44.834   5.358  12.333  0.00  0.00    +0.000 A 
BRANCH   7  11
ATOM     11  C   UNL     1      47.542   3.976  15.264  0.00  0.00    +0.000 C 
ATOM     12  N   UNL     1      48.050   4.836  16.196  0.00  0.00    +0.000 N 
ATOM     13  O   UNL     1      47.918   2.813  15.195  0.00  0.00    +0.000 OA
ATOM     14  H   UNL     1      47.973   5.838  16.096  0.00  0.00    +0.000 HD
ATOM     15  H   UNL     1      48.808   4.485  16.767  0.00  0.00    +0.000 HD
ENDBRANCH   7  11
ENDBRANCH   1   2
BRANCH   1  19
ATOM     16  C   UNL     1      46.051   2.201   7.937  0.00  0.00    +0.000 A 
ATOM     17  C   UNL     1      46.093   3.571   7.637  0.00  0.00    +0.000 A 
ATOM     18  C   UNL     1      45.341   4.494   8.373  0.00  0.00    +0.000 A 
ATOM     19  C   UNL     1      44.519   4.069   9.424  0.00  0.00    +0.000 A 
ATOM     20  C   UNL     1      44.466   2.698   9.718  0.00  0.00    +0.000 A 
ATOM     21  C   UNL     1      45.219   1.777   8.984  0.00  0.00    +0.000 A 
BRANCH  16  22
ATOM     22  C   UNL     1      46.898   1.224   7.143  0.00  0.00    +0.000 C 
BRANCH  22  23
ATOM     23  N   UNL     1      47.065  -0.061   7.843  0.00  0.00    +0.000 NA
ATOM     24  H   UNL     1      46.843   0.078   8.827  0.00  0.00    +0.000 HD
ATOM     25  H   UNL     1      48.074  -0.245   7.848  0.00  0.00    +0.000 HD
ENDBRANCH  22  23
BRANCH  22  26
ATOM     26  C   UNL     1      48.280   1.827   6.759  0.00  0.00    +0.000 C 
BRANCH  26  27
ATOM     27  N   UNL     1      48.414   2.027   5.306  0.00  0.00    +0.000 NA
ATOM     28  H   UNL     1      49.350   1.737   5.021  0.00  0.00    +0.000 HD
ATOM     29  H   UNL     1      48.362   3.027   5.106  0.00  0.00    +0.000 HD
ENDBRANCH  26  27
ENDBRANCH  22  26
ENDBRANCH  16  22
ENDBRANCH   1  19
TORSDOF 7
ENDMDL
MODEL 5
REMARK VINA RESULT:    -7.692      3.243      7.541
REMARK INTER + INTRA:         -10.489
REMARK INTER:                  -9.844
REMARK INTRA:                  -0.645
REMARK UNBOUND:                -0.100
REMARK  Name = 
REMARK  7 active torsions:
REMARK  status: ('A' for Active; 'I' for Inactive)
REMARK    1  A    between atoms: N_1  and  C_2
REMARK    2  A    between atoms: C_2  and  C_3
REMARK    3  A    between atoms: C_3  and  N_4
REMARK    4  A    between atoms: C_3  and  C_5
REMARK    5  A    between atoms: C_8  and  C_9
REMARK    6  A    between atoms: C_9  and  N_10
REMARK    7  A    between atoms: C_15  and  C_16
REMARK                            x       y       z     vdW  Elec       q    Type
REMARK                         _______ _______ _______ _____ _____    ______ ____
ROOT
ATOM      1  C   UNL     1      44.636   4.630  11.330  0.00  0.00    +0.000 C 
ENDROOT
BRANCH   1   2
ATOM      2  N   UNL     1      45.766   4.607  12.248  0.00  0.00    +0.000 N 
ATOM      3  N   UNL     1      45.756   3.721  13.269  0.00  0.00    +0.000 NA
ATOM      4  N   UNL     1      46.370   4.300  14.291  0.00  0.00    +0.000 NA
ATOM      5  C   UNL     1      46.856   5.505  13.865  0.00  0.00    +0.000 A 
ATOM      6  C   UNL     1      47.468   6.540  14.578  0.00  0.00    +0.000 A 
ATOM      7  C   UNL     1      47.869   7.680  13.868  0.00  0.00    +0.000 A 
ATOM      8  C   UNL     1      47.742   7.748  12.473  0.00  0.00    +0.000 A 
ATOM      9  C   UNL     1      47.093   6.737  11.754  0.00  0.00    +0.000 A 
ATOM     10  C   UNL     1      46.624   5.652  12.503  0.00  0.00    +0.000 A 
BRANCH   7  11
ATOM     11  C   UNL     1      48.414   8.856  14.592  0.00  0.00    +0.000 C 
ATOM     12  N   UNL     1      47.695   9.305  15.663  0.00  0.00    +0.000 N 
ATOM     13  O   UNL     1      49.420   9.438  14.208  0.00  0.00    +0.000 OA
ATOM     14  H   UNL     1      46.738   9.022  15.820  0.00  0.00    +0.000 HD
ATOM     15  H   UNL     1      47.989  10.187  16.065  0.00  0.00    +0.000 HD
ENDBRANCH   7  11
ENDBRANCH   1   2
BRANCH   1  19
ATOM     16  C   UNL     1      45.914   2.586   7.710  0.00  0.00    +0.000 A 
ATOM     17  C   UNL     1      45.358   1.871   8.781  0.00  0.00    +0.000 A 
ATOM     18  C   UNL     1      44.907   2.528   9.932  0.00  0.00    +0.000 A 
ATOM     19  C   UNL     1      45.009   3.920  10.044  0.00  0.00    +0.000 A 
ATOM     20  C   UNL     1      45.575   4.636   8.978  0.00  0.00    +0.000 A 
ATOM     21  C   UNL     1      46.024   3.979   7.829  0.00  0.00    +0.000 A 
BRANCH  16  22
ATOM     22  C   UNL     1      46.368   1.852   6.462  0.00  0.00    +0.000 C 
BRANCH  22  23
ATOM     23  N   UNL     1      47.131   0.634   6.782  0.00  0.00    +0.000 NA
ATOM     24  H   UNL     1      46.761   0.241   7.645  0.00  0.00    +0.000 HD
ATOM     25  H   UNL     1      48.068   0.955   7.047  0.00  0.00    +0.000 HD
ENDBRANCH  22  23
BRANCH  22  26
ATOM     26  C   UNL     1      47.178   2.774   5.504  0.00  0.00    +0.000 C 
BRANCH  26  27
ATOM     27  N   UNL     1      48.545   2.276   5.278  0.00  0.00    +0.000 NA
ATOM     28  H   UNL     1      49.115   2.504   6.092  0.00  0.00    +0.000 HD
ATOM     29  H   UNL     1      48.958   2.790   4.498  0.00  0.00    +0.000 HD
ENDBRANCH  26  27
ENDBRANCH  22  26
ENDBRANCH  16  22
ENDBRANCH   1  19
TORSDOF 7
ENDMDL
MODEL 6
REMARK VINA RESULT:    -6.821      3.628      5.887
REMARK INTER + INTRA:          -9.313
REMARK INTER:                  -8.747
REMARK INTRA:                  -0.567
REMARK UNBOUND:                -0.100
REMARK  Name = 
REMARK  7 active torsions:
REMARK  status: ('A' for Active; 'I' for Inactive)
REMARK    1  A    between atoms: N_1  and  C_2
REMARK    2  A    between atoms: C_2  and  C_3
REMARK    3  A    between atoms: C_3  and  N_4
REMARK    4  A    between atoms: C_3  and  C_5
REMARK    5  A    between atoms: C_8  and  C_9
REMARK    6  A    between atoms: C_9  and  N_10
REMARK    7  A    between atoms: C_15  and  C_16
REMARK                            x       y       z     vdW  Elec       q    Type
REMARK                         _______ _______ _______ _____ _____    ______ ____
ROOT
ATOM      1  C   UNL     1      47.429   4.720  16.303  0.00  0.00    +0.000 C 
ENDROOT
BRANCH   1   2
ATOM      2  N   UNL     1      47.615   5.172  14.931  0.00  0.00    +0.000 N 
ATOM      3  N   UNL     1      48.200   6.372  14.717  0.00  0.00    +0.000 NA
ATOM      4  N   UNL     1      47.641   6.887  13.630  0.00  0.00    +0.000 NA
ATOM      5  C   UNL     1      46.787   5.954  13.111  0.00  0.00    +0.000 A 
ATOM      6  C   UNL     1      45.878   6.046  12.054  0.00  0.00    +0.000 A 
ATOM      7  C   UNL     1      45.118   4.910  11.740  0.00  0.00    +0.000 A 
ATOM      8  C   UNL     1      45.324   3.692  12.405  0.00  0.00    +0.000 A 
ATOM      9  C   UNL     1      46.201   3.600  13.493  0.00  0.00    +0.000 A 
ATOM     10  C   UNL     1      46.878   4.774  13.840  0.00  0.00    +0.000 A 
BRANCH   7  11
ATOM     11  C   UNL     1      44.055   4.986  10.706  0.00  0.00    +0.000 C 
ATOM     12  N   UNL     1      44.426   4.703   9.423  0.00  0.00    +0.000 N 
ATOM     13  O   UNL     1      42.920   5.352  10.978  0.00  0.00    +0.000 OA
ATOM     14  H   UNL     1      45.395   4.676   9.140  0.00  0.00    +0.000 HD
ATOM     15  H   UNL     1      43.739   4.893   8.703  0.00  0.00    +0.000 HD
ENDBRANCH   7  11
ENDBRANCH   1   2
BRANCH   1  19
ATOM     16  C   UNL     1      50.867   2.242  17.284  0.00  0.00    +0.000 A 
ATOM     17  C   UNL     1      50.851   3.608  17.604  0.00  0.00    +0.000 A 
ATOM     18  C   UNL     1      49.731   4.401  17.328  0.00  0.00    +0.000 A 
ATOM     19  C   UNL     1      48.599   3.848  16.715  0.00  0.00    +0.000 A 
ATOM     20  C   UNL     1      48.618   2.485  16.384  0.00  0.00    +0.000 A 
ATOM     21  C   UNL     1      49.736   1.694  16.662  0.00  0.00    +0.000 A 
BRANCH  16  22
ATOM     22  C   UNL     1      52.082   1.398  17.620  0.00  0.00    +0.000 C 
BRANCH  22  23
ATOM     23  N   UNL     1      51.713   0.116  18.242  0.00  0.00    +0.000 NA
ATOM     24  H   UNL     1      52.431  -0.570  18.016  0.00  0.00    +0.000 HD
ATOM     25  H   UNL     1      50.891  -0.216  17.726  0.00  0.00    +0.000 HD
ENDBRANCH  22  23
BRANCH  22  26
ATOM     26  C   UNL     1      53.101   2.170  18.510  0.00  0.00    +0.000 C 
BRANCH  26  27
ATOM     27  N   UNL     1      54.095   1.271  19.122  0.00  0.00    +0.000 NA
ATOM     28  H   UNL     1      54.697   0.901  18.387  0.00  0.00    +0.000 HD
ATOM     29  H   UNL     1      53.610   0.465  19.516  0.00  0.00    +0.000 HD
ENDBRANCH  26  27
ENDBRANCH  22  26
ENDBRANCH  16  22
ENDBRANCH   1  19
TORSDOF 7
ENDMDL
MODEL 7
REMARK VINA RESULT:    -6.805      2.382      3.179
REMARK INTER + INTRA:          -9.292
REMARK INTER:                  -8.506
REMARK INTRA:                  -0.785
REMARK UNBOUND:                -0.100
REMARK  Name = 
REMARK  7 active torsions:
REMARK  status: ('A' for Active; 'I' for Inactive)
REMARK    1  A    between atoms: N_1  and  C_2
REMARK    2  A    between atoms: C_2  and  C_3
REMARK    3  A    between atoms: C_3  and  N_4
REMARK    4  A    between atoms: C_3  and  C_5
REMARK    5  A    between atoms: C_8  and  C_9
REMARK    6  A    between atoms: C_9  and  N_10
REMARK    7  A    between atoms: C_15  and  C_16
REMARK                            x       y       z     vdW  Elec       q    Type
REMARK                         _______ _______ _______ _____ _____    ______ ____
ROOT
ATOM      1  C   UNL     1      43.511   5.677  12.882  0.00  0.00    +0.000 C 
ENDROOT
BRANCH   1   2
ATOM      2  N   UNL     1      43.545   4.378  12.225  0.00  0.00    +0.000 N 
ATOM      3  N   UNL     1      43.730   3.272  12.981  0.00  0.00    +0.000 NA
ATOM      4  N   UNL     1      44.427   2.414  12.250  0.00  0.00    +0.000 NA
ATOM      5  C   UNL     1      44.578   2.950  11.000  0.00  0.00    +0.000 A 
ATOM      6  C   UNL     1      45.327   2.503   9.907  0.00  0.00    +0.000 A 
ATOM      7  C   UNL     1      45.296   3.269   8.734  0.00  0.00    +0.000 A 
ATOM      8  C   UNL     1      44.472   4.399   8.625  0.00  0.00    +0.000 A 
ATOM      9  C   UNL     1      43.751   4.878   9.726  0.00  0.00    +0.000 A 
ATOM     10  C   UNL     1      43.873   4.144  10.910  0.00  0.00    +0.000 A 
BRANCH   7  11
ATOM     11  C   UNL     1      46.164   2.908   7.585  0.00  0.00    +0.000 C 
ATOM     12  N   UNL     1      46.774   1.687   7.637  0.00  0.00    +0.000 N 
ATOM     13  O   UNL     1      46.379   3.692   6.670  0.00  0.00    +0.000 OA
ATOM     14  H   UNL     1      46.834   1.156   8.494  0.00  0.00    +0.000 HD
ATOM     15  H   UNL     1      47.473   1.502   6.927  0.00  0.00    +0.000 HD
ENDBRANCH   7  11
ENDBRANCH   1   2
BRANCH   1  19
ATOM     16  C   UNL     1      47.567   7.245  12.813  0.00  0.00    +0.000 A 
ATOM     17  C   UNL     1      46.513   7.951  12.214  0.00  0.00    +0.000 A 
ATOM     18  C   UNL     1      45.199   7.472  12.269  0.00  0.00    +0.000 A 
ATOM     19  C   UNL     1      44.907   6.266  12.919  0.00  0.00    +0.000 A 
ATOM     20  C   UNL     1      45.962   5.553  13.509  0.00  0.00    +0.000 A 
ATOM     21  C   UNL     1      47.273   6.033  13.455  0.00  0.00    +0.000 A 
BRANCH  16  22
ATOM     22  C   UNL     1      48.978   7.802  12.764  0.00  0.00    +0.000 C 
BRANCH  22  23
ATOM     23  N   UNL     1      49.903   6.905  12.051  0.00  0.00    +0.000 NA
ATOM     24  H   UNL     1      50.805   7.371  11.971  0.00  0.00    +0.000 HD
ATOM     25  H   UNL     1      49.565   6.868  11.084  0.00  0.00    +0.000 HD
ENDBRANCH  22  23
BRANCH  22  26
ATOM     26  C   UNL     1      49.522   8.142  14.182  0.00  0.00    +0.000 C 
BRANCH  26  27
ATOM     27  N   UNL     1      50.803   7.469  14.461  0.00  0.00    +0.000 NA
ATOM     28  H   UNL     1      51.161   7.808  15.354  0.00  0.00    +0.000 HD
ATOM     29  H   UNL     1      51.486   7.759  13.761  0.00  0.00    +0.000 HD
ENDBRANCH  26  27
ENDBRANCH  22  26
ENDBRANCH  16  22
ENDBRANCH   1  19
TORSDOF 7
ENDMDL
MODEL 8
REMARK VINA RESULT:    -6.339      4.144      7.481
REMARK INTER + INTRA:          -8.662
REMARK INTER:                  -8.015
REMARK INTRA:                  -0.648
REMARK UNBOUND:                -0.100
REMARK  Name = 
REMARK  7 active torsions:
REMARK  status: ('A' for Active; 'I' for Inactive)
REMARK    1  A    between atoms: N_1  and  C_2
REMARK    2  A    between atoms: C_2  and  C_3
REMARK    3  A    between atoms: C_3  and  N_4
REMARK    4  A    between atoms: C_3  and  C_5
REMARK    5  A    between atoms: C_8  and  C_9
REMARK    6  A    between atoms: C_9  and  N_10
REMARK    7  A    between atoms: C_15  and  C_16
REMARK                            x       y       z     vdW  Elec       q    Type
REMARK                         _______ _______ _______ _____ _____    ______ ____
ROOT
ATOM      1  C   UNL     1      46.073   6.404  13.214  0.00  0.00    +0.000 C 
ENDROOT
BRANCH   1   2
ATOM      2  N   UNL     1      47.500   6.260  13.461  0.00  0.00    +0.000 N 
ATOM      3  N   UNL     1      47.905   5.677  14.612  0.00  0.00    +0.000 NA
ATOM      4  N   UNL     1      49.037   6.267  14.969  0.00  0.00    +0.000 NA
ATOM      5  C   UNL     1      49.388   7.143  13.979  0.00  0.00    +0.000 A 
ATOM      6  C   UNL     1      50.419   8.085  13.925  0.00  0.00    +0.000 A 
ATOM      7  C   UNL     1      50.540   8.860  12.763  0.00  0.00    +0.000 A 
ATOM      8  C   UNL     1      49.712   8.639  11.653  0.00  0.00    +0.000 A 
ATOM      9  C   UNL     1      48.650   7.728  11.711  0.00  0.00    +0.000 A 
ATOM     10  C   UNL     1      48.499   7.034  12.916  0.00  0.00    +0.000 A 
BRANCH   7  11
ATOM     11  C   UNL     1      51.540   9.956  12.699  0.00  0.00    +0.000 C 
ATOM     12  N   UNL     1      52.283  10.043  11.556  0.00  0.00    +0.000 N 
ATOM     13  O   UNL     1      51.739  10.701  13.649  0.00  0.00    +0.000 OA
ATOM     14  H   UNL     1      52.332   9.284  10.892  0.00  0.00    +0.000 HD
ATOM     15  H   UNL     1      53.057  10.695  11.570  0.00  0.00    +0.000 HD
ENDBRANCH   7  11
ENDBRANCH   1   2
BRANCH   1  19
ATOM     16  C   UNL     1      45.099   3.766   9.896  0.00  0.00    +0.000 A 
ATOM     17  C   UNL     1      45.045   3.306  11.220  0.00  0.00    +0.000 A 
ATOM     18  C   UNL     1      45.316   4.161  12.294  0.00  0.00    +0.000 A 
ATOM     19  C   UNL     1      45.659   5.500  12.069  0.00  0.00    +0.000 A 
ATOM     20  C   UNL     1      45.726   5.960  10.745  0.00  0.00    +0.000 A 
ATOM     21  C   UNL     1      45.452   5.105   9.674  0.00  0.00    +0.000 A 
BRANCH  16  22
ATOM     22  C   UNL     1      44.771   2.825   8.751  0.00  0.00    +0.000 C 
BRANCH  22  23
ATOM     23  N   UNL     1      45.081   1.424   9.080  0.00  0.00    +0.000 NA
ATOM     24  H   UNL     1      45.020   0.872   8.225  0.00  0.00    +0.000 HD
ATOM     25  H   UNL     1      44.289   1.088   9.639  0.00  0.00    +0.000 HD
ENDBRANCH  22  23
BRANCH  22  26
ATOM     26  C   UNL     1      45.472   3.249   7.427  0.00  0.00    +0.000 C 
BRANCH  26  27
ATOM     27  N   UNL     1      46.817   2.662   7.298  0.00  0.00    +0.000 NA
ATOM     28  H   UNL     1      46.732   1.746   6.857  0.00  0.00    +0.000 HD
ATOM     29  H   UNL     1      47.190   2.486   8.232  0.00  0.00    +0.000 HD
ENDBRANCH  26  27
ENDBRANCH  22  26
ENDBRANCH  16  22
ENDBRANCH   1  19
TORSDOF 7
ENDMDL
MODEL 9
REMARK VINA RESULT:    -6.198      4.277      7.740
REMARK INTER + INTRA:          -8.471
REMARK INTER:                  -7.883
REMARK INTRA:                  -0.588
REMARK UNBOUND:                -0.100
REMARK  Name = 
REMARK  7 active torsions:
REMARK  status: ('A' for Active; 'I' for Inactive)
REMARK    1  A    between atoms: N_1  and  C_2
REMARK    2  A    between atoms: C_2  and  C_3
REMARK    3  A    between atoms: C_3  and  N_4
REMARK    4  A    between atoms: C_3  and  C_5
REMARK    5  A    between atoms: C_8  and  C_9
REMARK    6  A    between atoms: C_9  and  N_10
REMARK    7  A    between atoms: C_15  and  C_16
REMARK                            x       y       z     vdW  Elec       q    Type
REMARK                         _______ _______ _______ _____ _____    ______ ____
ROOT
ATOM      1  C   UNL     1      48.677   7.667  13.227  0.00  0.00    +0.000 C 
ENDROOT
BRANCH   1   2
ATOM      2  N   UNL     1      48.580   7.603  14.678  0.00  0.00    +0.000 N 
ATOM      3  N   UNL     1      49.228   8.534  15.415  0.00  0.00    +0.000 NA
ATOM      4  N   UNL     1      49.626   7.938  16.530  0.00  0.00    +0.000 NA
ATOM      5  C   UNL     1      49.127   6.665  16.530  0.00  0.00    +0.000 A 
ATOM      6  C   UNL     1      49.355   5.602  17.410  0.00  0.00    +0.000 A 
ATOM      7  C   UNL     1      48.699   4.389  17.157  0.00  0.00    +0.000 A 
ATOM      8  C   UNL     1      47.776   4.267  16.109  0.00  0.00    +0.000 A 
ATOM      9  C   UNL     1      47.573   5.311  15.198  0.00  0.00    +0.000 A 
ATOM     10  C   UNL     1      48.309   6.478  15.423  0.00  0.00    +0.000 A 
BRANCH   7  11
ATOM     11  C   UNL     1      48.996   3.195  17.988  0.00  0.00    +0.000 C 
ATOM     12  N   UNL     1      48.370   3.119  19.200  0.00  0.00    +0.000 N 
ATOM     13  O   UNL     1      49.813   2.355  17.637  0.00  0.00    +0.000 OA
ATOM     14  H   UNL     1      47.922   3.921  19.620  0.00  0.00    +0.000 HD
ATOM     15  H   UNL     1      48.679   2.383  19.822  0.00  0.00    +0.000 HD
ENDBRANCH   7  11
ENDBRANCH   1   2
BRANCH   1  19
ATOM     16  C   UNL     1      44.742   6.722  11.631  0.00  0.00    +0.000 A 
ATOM     17  C   UNL     1      44.945   7.871  12.410  0.00  0.00    +0.000 A 
ATOM     18  C   UNL     1      46.217   8.202  12.891  0.00  0.00    +0.000 A 
ATOM     19  C   UNL     1      47.319   7.385  12.612  0.00  0.00    +0.000 A 
ATOM     20  C   UNL     1      47.117   6.229  11.844  0.00  0.00    +0.000 A 
ATOM     21  C   UNL     1      45.847   5.900  11.362  0.00  0.00    +0.000 A 
BRANCH  16  22
ATOM     22  C   UNL     1      43.359   6.401  11.097  0.00  0.00    +0.000 C 
BRANCH  22  23
ATOM     23  N   UNL     1      42.467   7.572  11.129  0.00  0.00    +0.000 NA
ATOM     24  H   UNL     1      42.996   8.387  10.820  0.00  0.00    +0.000 HD
ATOM     25  H   UNL     1      42.292   7.761  12.121  0.00  0.00    +0.000 HD
ENDBRANCH  22  23
BRANCH  22  26
ATOM     26  C   UNL     1      42.711   5.195  11.839  0.00  0.00    +0.000 C 
BRANCH  26  27
ATOM     27  N   UNL     1      42.636   5.413  13.294  0.00  0.00    +0.000 NA
ATOM     28  H   UNL     1      43.103   4.638  13.764  0.00  0.00    +0.000 HD
ATOM     29  H   UNL     1      41.659   5.365  13.583  0.00  0.00    +0.000 HD
ENDBRANCH  26  27
ENDBRANCH  22  26
ENDBRANCH  16  22
ENDBRANCH   1  19
TORSDOF 7
ENDMDL
