MODEL 1
REMARK VINA RESULT:    -7.143      0.000      0.000
REMARK INTER + INTRA:         -12.142
REMARK INTER:                 -10.484
REMARK INTRA:                  -1.659
REMARK UNBOUND:                -1.659
REMARK  Name = 
REMARK  9 active torsions:
REMARK  status: ('A' for Active; 'I' for Inactive)
REMARK    1  A    between atoms: C_1  and  C_2
REMARK    2  A    between atoms: C_2  and  C_3
REMARK    3  A    between atoms: C_3  and  N_4
REMARK    4  A    between atoms: N_4  and  C_5
REMARK    5  A    between atoms: C_5  and  C_6
REMARK    6  A    between atoms: C_9  and  C_10
REMARK    7  A    between atoms: C_10  and  N_11
REMARK    8  A    between atoms: C_12  and  C_14
REMARK    9  A    between atoms: C_21  and  C_23
REMARK                            x       y       z     vdW  Elec       q    Type
REMARK                         _______ _______ _______ _____ _____    ______ ____
ROOT
ATOM      1  N   UNL     1      48.765   7.372  13.570  0.00  0.00    +0.000 N 
ATOM      2  C   UNL     1      49.651   7.589  14.656  0.00  0.00    +0.000 C 
ATOM      3  O   UNL     1      50.860   7.418  14.503  0.00  0.00    +0.000 OA
ENDROOT
BRANCH   2   4
ATOM      4  C   UNL     1      49.166   7.965  16.005  0.00  0.00    +0.000 A 
ATOM      5  C   UNL     1      49.034   9.244  16.507  0.00  0.00    +0.000 A 
ATOM      6  S   UNL     1      48.226   9.378  17.995  0.00  0.00    +0.000 S 
ATOM      7  C   UNL     1      48.055   7.700  18.080  0.00  0.00    +0.000 A 
ATOM      8  N   UNL     1      47.419   7.142  19.138  0.00  0.00    +0.000 NA
ATOM      9  C   UNL     1      47.347   5.856  19.084  0.00  0.00    +0.000 A 
ATOM     10  N   UNL     1      47.869   5.084  18.075  0.00  0.00    +0.000 N 
ATOM     11  C   UNL     1      48.615   5.600  17.039  0.00  0.00    +0.000 A 
ATOM     12  O   UNL     1      49.260   4.867  16.301  0.00  0.00    +0.000 OA
ATOM     13  C   UNL     1      48.633   7.054  17.001  0.00  0.00    +0.000 A 
ATOM     14  H   UNL     1      47.849   4.076  18.137  0.00  0.00    +0.000 HD
ENDBRANCH   2   4
BRANCH   1  15
ATOM     15  C   UNL     1      49.375   7.047  12.263  0.00  0.00    +0.000 C 
BRANCH  15  17
ATOM     16  C   UNL     1      50.062   9.474  11.647  0.00  0.00    +0.000 C 
ATOM     17  C   UNL     1      49.379   8.184  11.219  0.00  0.00    +0.000 C 
ENDBRANCH  15  17
ENDBRANCH   1  15
BRANCH   1  18
ATOM     18  C   UNL     1      47.345   7.724  13.551  0.00  0.00    +0.000 C 
BRANCH  18  19
ATOM     19  C   UNL     1      46.303   6.630  13.306  0.00  0.00    +0.000 A 
ATOM     20  C   UNL     1      45.161   6.799  12.513  0.00  0.00    +0.000 A 
ATOM     21  C   UNL     1      44.549   5.702  11.882  0.00  0.00    +0.000 A 
ATOM     22  C   UNL     1      44.955   4.393  12.163  0.00  0.00    +0.000 A 
ATOM     23  C   UNL     1      45.969   4.211  13.109  0.00  0.00    +0.000 A 
ATOM     24  C   UNL     1      46.644   5.312  13.655  0.00  0.00    +0.000 A 
BRANCH  22  25
ATOM     25  C   UNL     1      44.344   3.213  11.444  0.00  0.00    +0.000 C 
BRANCH  25  26
ATOM     26  N   UNL     1      45.198   2.725  10.383  0.00  0.00    +0.000 N 
ATOM     27  C   UNL     1      45.078   3.171   9.081  0.00  0.00    +0.000 C 
ATOM     28  O   UNL     1      44.230   4.005   8.769  0.00  0.00    +0.000 OA
ATOM     29  H   UNL     1      45.928   2.060  10.601  0.00  0.00    +0.000 HD
BRANCH  27  30
ATOM     30  C   UNL     1      46.002   2.591   8.122  0.00  0.00    +0.000 A 
ATOM     31  C   UNL     1      46.380   1.265   8.005  0.00  0.00    +0.000 A 
ATOM     32  N   UNL     1      47.295   0.980   7.005  0.00  0.00    +0.000 NA
ATOM     33  C   UNL     1      47.599   2.090   6.372  0.00  0.00    +0.000 A 
ATOM     34  S   UNL     1      46.819   3.513   6.925  0.00  0.00    +0.000 S 
ENDBRANCH  27  30
ENDBRANCH  25  26
ENDBRANCH  22  25
ENDBRANCH  18  19
ENDBRANCH   1  18
TORSDOF 8
ENDMDL
MODEL 2
REMARK VINA RESULT:    -7.016      2.241      2.998
REMARK INTER + INTRA:         -11.956
REMARK INTER:                 -10.376
REMARK INTRA:                  -1.580
REMARK UNBOUND:                -1.659
REMARK  Name = 
REMARK  9 active torsions:
REMARK  status: ('A' for Active; 'I' for Inactive)
REMARK    1  A    between atoms: C_1  and  C_2
REMARK    2  A    between atoms: C_2  and  C_3
REMARK    3  A    between atoms: C_3  and  N_4
REMARK    4  A    between atoms: N_4  and  C_5
REMARK    5  A    between atoms: C_5  and  C_6
REMARK    6  A    between atoms: C_9  and  C_10
REMARK    7  A    between atoms: C_10  and  N_11
REMARK    8  A    between atoms: C_12  and  C_14
REMARK    9  A    between atoms: C_21  and  C_23
REMARK                            x       y       z     vdW  Elec       q    Type
REMARK                         _______ _______ _______ _____ _____    ______ ____
ROOT
ATOM      1  N   UNL     1      48.858   7.359  15.639  0.00  0.00    +0.000 N 
ATOM      2  C   UNL     1      48.573   6.877  16.942  0.00  0.00    +0.000 C 
ATOM      3  O   UNL     1      48.432   7.672  17.871  0.00  0.00    +0.000 OA
ENDROOT
BRANCH   2   4
ATOM      4  C   UNL     1      48.489   5.429  17.246  0.00  0.00    +0.000 A 
ATOM      5  C   UNL     1      47.339   4.674  17.352  0.00  0.00    +0.000 A 
ATOM      6  S   UNL     1      47.562   2.994  17.469  0.00  0.00    +0.000 S 
ATOM      7  C   UNL     1      49.239   3.191  17.440  0.00  0.00    +0.000 A 
ATOM      8  N   UNL     1      50.045   2.104  17.499  0.00  0.00    +0.000 NA
ATOM      9  C   UNL     1      51.302   2.384  17.463  0.00  0.00    +0.000 A 
ATOM     10  N   UNL     1      51.820   3.654  17.389  0.00  0.00    +0.000 N 
ATOM     11  C   UNL     1      51.043   4.790  17.438  0.00  0.00    +0.000 A 
ATOM     12  O   UNL     1      51.546   5.891  17.613  0.00  0.00    +0.000 OA
ATOM     13  C   UNL     1      49.615   4.521  17.372  0.00  0.00    +0.000 A 
ATOM     14  H   UNL     1      52.817   3.806  17.449  0.00  0.00    +0.000 HD
ENDBRANCH   2   4
BRANCH   1  15
ATOM     15  C   UNL     1      48.868   8.826  15.455  0.00  0.00    +0.000 C 
BRANCH  15  17
ATOM     16  C   UNL     1      48.976  10.278  13.304  0.00  0.00    +0.000 C 
ATOM     17  C   UNL     1      49.703   9.351  14.267  0.00  0.00    +0.000 C 
ENDBRANCH  15  17
ENDBRANCH   1  15
BRANCH   1  18
ATOM     18  C   UNL     1      48.852   6.554  14.418  0.00  0.00    +0.000 C 
BRANCH  18  19
ATOM     19  C   UNL     1      47.557   6.416  13.615  0.00  0.00    +0.000 A 
ATOM     20  C   UNL     1      47.299   7.099  12.419  0.00  0.00    +0.000 A 
ATOM     21  C   UNL     1      46.408   6.577  11.465  0.00  0.00    +0.000 A 
ATOM     22  C   UNL     1      45.624   5.454  11.752  0.00  0.00    +0.000 A 
ATOM     23  C   UNL     1      45.737   4.886  13.025  0.00  0.00    +0.000 A 
ATOM     24  C   UNL     1      46.701   5.347  13.932  0.00  0.00    +0.000 A 
BRANCH  22  25
ATOM     25  C   UNL     1      44.710   4.852  10.711  0.00  0.00    +0.000 C 
BRANCH  25  26
ATOM     26  N   UNL     1      45.451   4.223   9.640  0.00  0.00    +0.000 N 
ATOM     27  C   UNL     1      45.191   2.930   9.229  0.00  0.00    +0.000 C 
ATOM     28  O   UNL     1      44.313   2.256   9.766  0.00  0.00    +0.000 OA
ATOM     29  H   UNL     1      46.163   4.751   9.153  0.00  0.00    +0.000 HD
BRANCH  27  30
ATOM     30  C   UNL     1      46.016   2.428   8.145  0.00  0.00    +0.000 A 
ATOM     31  C   UNL     1      46.441   1.129   7.934  0.00  0.00    +0.000 A 
ATOM     32  N   UNL     1      47.239   0.923   6.821  0.00  0.00    +0.000 NA
ATOM     33  C   UNL     1      47.409   2.066   6.197  0.00  0.00    +0.000 A 
ATOM     34  S   UNL     1      46.634   3.428   6.892  0.00  0.00    +0.000 S 
ENDBRANCH  27  30
ENDBRANCH  25  26
ENDBRANCH  22  25
ENDBRANCH  18  19
ENDBRANCH   1  18
TORSDOF 8
ENDMDL
MODEL 3
REMARK VINA RESULT:    -6.989      3.479      8.230
REMARK INTER + INTRA:         -11.916
REMARK INTER:                 -10.814
REMARK INTRA:                  -1.101
REMARK UNBOUND:                -1.659
REMARK  Name = 
REMARK  9 active torsions:
REMARK  status: ('A' for Active; 'I' for Inactive)
REMARK    1  A    between atoms: C_1  and  C_2
REMARK    2  A    between atoms: C_2  and  C_3
REMARK    3  A    between atoms: C_3  and  N_4
REMARK    4  A    between atoms: N_4  and  C_5
REMARK    5  A    between atoms: C_5  and  C_6
REMARK    6  A    between atoms: C_9  and  C_10
REMARK    7  A    between atoms: C_10  and  N_11
REMARK    8  A    between atoms: C_12  and  C_14
REMARK    9  A    between atoms: C_21  and  C_23
REMARK                            x       y       z     vdW  Elec       q    Type
REMARK                         _______ _______ _______ _____ _____    ______ ____
ROOT
ATOM      1  N   UNL     1      46.623   7.062  12.589  0.00  0.00    +0.000 N 
ATOM      2  C   UNL     1      45.456   6.722  11.859  0.00  0.00    +0.000 C 
ATOM      3  O   UNL     1      44.778   7.609  11.341  0.00  0.00    +0.000 OA
ENDROOT
BRANCH   2   4
ATOM      4  C   UNL     1      44.982   5.323  11.738  0.00  0.00    +0.000 A 
ATOM      5  C   UNL     1      44.374   4.570  12.723  0.00  0.00    +0.000 A 
ATOM      6  S   UNL     1      43.721   3.084  12.224  0.00  0.00    +0.000 S 
ATOM      7  C   UNL     1      44.273   3.343  10.649  0.00  0.00    +0.000 A 
ATOM      8  N   UNL     1      44.027   2.419   9.690  0.00  0.00    +0.000 NA
ATOM      9  C   UNL     1      44.494   2.733   8.530  0.00  0.00    +0.000 A 
ATOM     10  N   UNL     1      45.196   3.881   8.254  0.00  0.00    +0.000 N 
ATOM     11  C   UNL     1      45.564   4.792   9.219  0.00  0.00    +0.000 A 
ATOM     12  O   UNL     1      46.387   5.665   8.981  0.00  0.00    +0.000 OA
ATOM     13  C   UNL     1      44.969   4.532  10.521  0.00  0.00    +0.000 A 
ATOM     14  H   UNL     1      45.605   4.025   7.342  0.00  0.00    +0.000 HD
ENDBRANCH   2   4
BRANCH   1  15
ATOM     15  C   UNL     1      47.017   8.487  12.596  0.00  0.00    +0.000 C 
BRANCH  15  17
ATOM     16  C   UNL     1      48.700  10.119  11.477  0.00  0.00    +0.000 C 
ATOM     17  C   UNL     1      48.473   8.786  12.175  0.00  0.00    +0.000 C 
ENDBRANCH  15  17
ENDBRANCH   1  15
BRANCH   1  18
ATOM     18  C   UNL     1      47.621   6.113  13.083  0.00  0.00    +0.000 C 
BRANCH  18  19
ATOM     19  C   UNL     1      47.513   5.586  14.515  0.00  0.00    +0.000 A 
ATOM     20  C   UNL     1      46.838   4.410  14.869  0.00  0.00    +0.000 A 
ATOM     21  C   UNL     1      47.197   3.689  16.022  0.00  0.00    +0.000 A 
ATOM     22  C   UNL     1      48.116   4.210  16.939  0.00  0.00    +0.000 A 
ATOM     23  C   UNL     1      48.645   5.480  16.685  0.00  0.00    +0.000 A 
ATOM     24  C   UNL     1      48.363   6.146  15.484  0.00  0.00    +0.000 A 
BRANCH  22  25
ATOM     25  C   UNL     1      48.551   3.416  18.148  0.00  0.00    +0.000 C 
BRANCH  25  26
ATOM     26  N   UNL     1      49.990   3.279  18.215  0.00  0.00    +0.000 N 
ATOM     27  C   UNL     1      50.681   2.395  17.411  0.00  0.00    +0.000 C 
ATOM     28  O   UNL     1      50.095   1.679  16.600  0.00  0.00    +0.000 OA
ATOM     29  H   UNL     1      50.514   3.869  18.848  0.00  0.00    +0.000 HD
BRANCH  27  30
ATOM     30  C   UNL     1      52.122   2.364  17.590  0.00  0.00    +0.000 A 
ATOM     31  C   UNL     1      52.963   3.424  17.877  0.00  0.00    +0.000 A 
ATOM     32  N   UNL     1      54.310   3.119  17.984  0.00  0.00    +0.000 NA
ATOM     33  C   UNL     1      54.477   1.832  17.780  0.00  0.00    +0.000 A 
ATOM     34  S   UNL     1      53.056   0.928  17.460  0.00  0.00    +0.000 S 
ENDBRANCH  27  30
ENDBRANCH  25  26
ENDBRANCH  22  25
ENDBRANCH  18  19
ENDBRANCH   1  18
TORSDOF 8
ENDMDL
MODEL 4
REMARK VINA RESULT:    -6.693      3.456      7.967
REMARK INTER + INTRA:         -11.482
REMARK INTER:                  -9.965
REMARK INTRA:                  -1.517
REMARK UNBOUND:                -1.659
REMARK  Name = 
REMARK  9 active torsions:
REMARK  status: ('A' for Active; 'I' for Inactive)
REMARK    1  A    between atoms: C_1  and  C_2
REMARK    2  A    between atoms: C_2  and  C_3
REMARK    3  A    between atoms: C_3  and  N_4
REMARK    4  A    between atoms: N_4  and  C_5
REMARK    5  A    between atoms: C_5  and  C_6
REMARK    6  A    between atoms: C_9  and  C_10
REMARK    7  A    between atoms: C_10  and  N_11
REMARK    8  A    between atoms: C_12  and  C_14
REMARK    9  A    between atoms: C_21  and  C_23
REMARK                            x       y       z     vdW  Elec       q    Type
REMARK                         _______ _______ _______ _____ _____    ______ ____
ROOT
ATOM      1  N   UNL     1      46.732   7.102  12.698  0.00  0.00    +0.000 N 
ATOM      2  C   UNL     1      45.806   7.172  11.626  0.00  0.00    +0.000 C 
ATOM      3  O   UNL     1      45.303   8.254  11.323  0.00  0.00    +0.000 OA
ENDROOT
BRANCH   2   4
ATOM      4  C   UNL     1      45.371   5.968  10.880  0.00  0.00    +0.000 A 
ATOM      5  C   UNL     1      45.722   5.626   9.589  0.00  0.00    +0.000 A 
ATOM      6  S   UNL     1      45.267   4.069   9.084  0.00  0.00    +0.000 S 
ATOM      7  C   UNL     1      44.514   3.782  10.569  0.00  0.00    +0.000 A 
ATOM      8  N   UNL     1      43.915   2.589  10.799  0.00  0.00    +0.000 NA
ATOM      9  C   UNL     1      43.382   2.490  11.968  0.00  0.00    +0.000 A 
ATOM     10  N   UNL     1      43.384   3.484  12.916  0.00  0.00    +0.000 N 
ATOM     11  C   UNL     1      43.883   4.747  12.685  0.00  0.00    +0.000 A 
ATOM     12  O   UNL     1      43.650   5.667  13.457  0.00  0.00    +0.000 OA
ATOM     13  C   UNL     1      44.587   4.872  11.419  0.00  0.00    +0.000 A 
ATOM     14  H   UNL     1      42.875   3.369  13.781  0.00  0.00    +0.000 HD
ENDBRANCH   2   4
BRANCH   1  15
ATOM     15  C   UNL     1      47.122   8.379  13.332  0.00  0.00    +0.000 C 
BRANCH  15  17
ATOM     16  C   UNL     1      48.632   9.689  11.674  0.00  0.00    +0.000 C 
ATOM     17  C   UNL     1      48.528   8.908  12.975  0.00  0.00    +0.000 C 
ENDBRANCH  15  17
ENDBRANCH   1  15
BRANCH   1  18
ATOM     18  C   UNL     1      47.549   5.936  13.037  0.00  0.00    +0.000 C 
BRANCH  18  19
ATOM     19  C   UNL     1      47.492   5.364  14.455  0.00  0.00    +0.000 A 
ATOM     20  C   UNL     1      46.939   4.118  14.776  0.00  0.00    +0.000 A 
ATOM     21  C   UNL     1      47.366   3.408  15.912  0.00  0.00    +0.000 A 
ATOM     22  C   UNL     1      48.225   3.997  16.847  0.00  0.00    +0.000 A 
ATOM     23  C   UNL     1      48.623   5.320  16.628  0.00  0.00    +0.000 A 
ATOM     24  C   UNL     1      48.278   5.984  15.442  0.00  0.00    +0.000 A 
BRANCH  22  25
ATOM     25  C   UNL     1      48.735   3.220  18.038  0.00  0.00    +0.000 C 
BRANCH  25  26
ATOM     26  N   UNL     1      50.181   3.221  18.104  0.00  0.00    +0.000 N 
ATOM     27  C   UNL     1      50.945   2.262  17.469  0.00  0.00    +0.000 C 
ATOM     28  O   UNL     1      50.422   1.359  16.819  0.00  0.00    +0.000 OA
ATOM     29  H   UNL     1      50.653   3.962  18.605  0.00  0.00    +0.000 HD
BRANCH  27  30
ATOM     30  C   UNL     1      52.383   2.388  17.626  0.00  0.00    +0.000 A 
ATOM     31  C   UNL     1      53.341   1.399  17.489  0.00  0.00    +0.000 A 
ATOM     32  N   UNL     1      54.652   1.787  17.709  0.00  0.00    +0.000 NA
ATOM     33  C   UNL     1      54.677   3.066  18.007  0.00  0.00    +0.000 A 
ATOM     34  S   UNL     1      53.160   3.864  18.037  0.00  0.00    +0.000 S 
ENDBRANCH  27  30
ENDBRANCH  25  26
ENDBRANCH  22  25
ENDBRANCH  18  19
ENDBRANCH   1  18
TORSDOF 8
ENDMDL
MODEL 5
REMARK VINA RESULT:    -6.140      3.538      5.716
REMARK INTER + INTRA:         -10.671
REMARK INTER:                  -8.810
REMARK INTRA:                  -1.861
REMARK UNBOUND:                -1.659
REMARK  Name = 
REMARK  9 active torsions:
REMARK  status: ('A' for Active; 'I' for Inactive)
REMARK    1  A    between atoms: C_1  and  C_2
REMARK    2  A    between atoms: C_2  and  C_3
REMARK    3  A    between atoms: C_3  and  N_4
REMARK    4  A    between atoms: N_4  and  C_5
REMARK    5  A    between atoms: C_5  and  C_6
REMARK    6  A    between atoms: C_9  and  C_10
REMARK    7  A    between atoms: C_10  and  N_11
REMARK    8  A    between atoms: C_12  and  C_14
REMARK    9  A    between atoms: C_21  and  C_23
REMARK                            x       y       z     vdW  Elec       q    Type
REMARK                         _______ _______ _______ _____ _____    ______ ____
ROOT
ATOM      1  N   UNL     1      49.836   7.502  19.018  0.00  0.00    +0.000 N 
ATOM      2  C   UNL     1      49.536   6.141  19.278  0.00  0.00    +0.000 C 
ATOM      3  O   UNL     1      48.704   5.851  20.138  0.00  0.00    +0.000 OA
ENDROOT
BRANCH   2   4
ATOM      4  C   UNL     1      50.235   5.033  18.585  0.00  0.00    +0.000 A 
ATOM      5  C   UNL     1      51.568   4.694  18.706  0.00  0.00    +0.000 A 
ATOM      6  S   UNL     1      52.031   3.232  17.977  0.00  0.00    +0.000 S 
ATOM      7  C   UNL     1      50.462   2.994  17.401  0.00  0.00    +0.000 A 
ATOM      8  N   UNL     1      50.171   1.884  16.682  0.00  0.00    +0.000 NA
ATOM      9  C   UNL     1      48.940   1.815  16.304  0.00  0.00    +0.000 A 
ATOM     10  N   UNL     1      47.985   2.765  16.571  0.00  0.00    +0.000 N 
ATOM     11  C   UNL     1      48.261   3.957  17.202  0.00  0.00    +0.000 A 
ATOM     12  O   UNL     1      47.449   4.872  17.205  0.00  0.00    +0.000 OA
ATOM     13  C   UNL     1      49.611   4.033  17.739  0.00  0.00    +0.000 A 
ATOM     14  H   UNL     1      47.059   2.688  16.174  0.00  0.00    +0.000 HD
ENDBRANCH   2   4
BRANCH   1  15
ATOM     15  C   UNL     1      49.036   8.514  19.741  0.00  0.00    +0.000 C 
BRANCH  15  17
ATOM     16  C   UNL     1      47.283  10.275  18.985  0.00  0.00    +0.000 C 
ATOM     17  C   UNL     1      47.634   8.805  19.163  0.00  0.00    +0.000 C 
ENDBRANCH  15  17
ENDBRANCH   1  15
BRANCH   1  18
ATOM     18  C   UNL     1      50.644   7.994  17.901  0.00  0.00    +0.000 C 
BRANCH  18  19
ATOM     19  C   UNL     1      50.007   8.135  16.517  0.00  0.00    +0.000 A 
ATOM     20  C   UNL     1      49.701   7.053  15.681  0.00  0.00    +0.000 A 
ATOM     21  C   UNL     1      48.676   7.147  14.723  0.00  0.00    +0.000 A 
ATOM     22  C   UNL     1      48.051   8.371  14.456  0.00  0.00    +0.000 A 
ATOM     23  C   UNL     1      48.496   9.498  15.154  0.00  0.00    +0.000 A 
ATOM     24  C   UNL     1      49.443   9.377  16.180  0.00  0.00    +0.000 A 
BRANCH  22  25
ATOM     25  C   UNL     1      46.909   8.467  13.472  0.00  0.00    +0.000 C 
BRANCH  25  26
ATOM     26  N   UNL     1      46.214   7.206  13.327  0.00  0.00    +0.000 N 
ATOM     27  C   UNL     1      45.160   7.047  12.448  0.00  0.00    +0.000 C 
ATOM     28  O   UNL     1      44.765   7.981  11.751  0.00  0.00    +0.000 OA
ATOM     29  H   UNL     1      46.524   6.405  13.861  0.00  0.00    +0.000 HD
BRANCH  27  30
ATOM     30  C   UNL     1      44.555   5.727  12.412  0.00  0.00    +0.000 A 
ATOM     31  C   UNL     1      44.928   4.605  13.130  0.00  0.00    +0.000 A 
ATOM     32  N   UNL     1      44.186   3.459  12.894  0.00  0.00    +0.000 NA
ATOM     33  C   UNL     1      43.257   3.724  12.004  0.00  0.00    +0.000 A 
ATOM     34  S   UNL     1      43.217   5.332  11.411  0.00  0.00    +0.000 S 
ENDBRANCH  27  30
ENDBRANCH  25  26
ENDBRANCH  22  25
ENDBRANCH  18  19
ENDBRANCH   1  18
TORSDOF 8
ENDMDL
MODEL 6
REMARK VINA RESULT:    -6.132      2.777      4.157
REMARK INTER + INTRA:         -10.658
REMARK INTER:                  -9.008
REMARK INTRA:                  -1.651
REMARK UNBOUND:                -1.659
REMARK  Name = 
REMARK  9 active torsions:
REMARK  status: ('A' for Active; 'I' for Inactive)
REMARK    1  A    between atoms: C_1  and  C_2
REMARK    2  A    between atoms: C_2  and  C_3
REMARK    3  A    between atoms: C_3  and  N_4
REMARK    4  A    between atoms: N_4  and  C_5
REMARK    5  A    between atoms: C_5  and  C_6
REMARK    6  A    between atoms: C_9  and  C_10
REMARK    7  A    between atoms: C_10  and  N_11
REMARK    8  A    between atoms: C_12  and  C_14
REMARK    9  A    between atoms: C_21  and  C_23
REMARK                            x       y       z     vdW  Elec       q    Type
REMARK                         _______ _______ _______ _____ _____    ______ ____
ROOT
ATOM      1  N   UNL     1      50.034   7.538  17.153  0.00  0.00    +0.000 N 
ATOM      2  C   UNL     1      49.483   6.732  18.181  0.00  0.00    +0.000 C 
ATOM      3  O   UNL     1      49.455   7.150  19.338  0.00  0.00    +0.000 OA
ENDROOT
BRANCH   2   4
ATOM      4  C   UNL     1      48.981   5.361  17.923  0.00  0.00    +0.000 A 
ATOM      5  C   UNL     1      47.668   4.990  17.715  0.00  0.00    +0.000 A 
ATOM      6  S   UNL     1      47.422   3.388  17.205  0.00  0.00    +0.000 S 
ATOM      7  C   UNL     1      49.081   3.082  17.290  0.00  0.00    +0.000 A 
ATOM      8  N   UNL     1      49.555   1.857  16.959  0.00  0.00    +0.000 NA
ATOM      9  C   UNL     1      50.836   1.749  17.059  0.00  0.00    +0.000 A 
ATOM     10  N   UNL     1      51.676   2.754  17.474  0.00  0.00    +0.000 N 
ATOM     11  C   UNL     1      51.227   3.976  17.923  0.00  0.00    +0.000 A 
ATOM     12  O   UNL     1      51.977   4.747  18.506  0.00  0.00    +0.000 OA
ATOM     13  C   UNL     1      49.800   4.179  17.729  0.00  0.00    +0.000 A 
ATOM     14  H   UNL     1      52.661   2.576  17.608  0.00  0.00    +0.000 HD
ENDBRANCH   2   4
BRANCH   1  15
ATOM     15  C   UNL     1      50.458   8.904  17.528  0.00  0.00    +0.000 C 
BRANCH  15  17
ATOM     16  C   UNL     1      50.753  10.743  15.717  0.00  0.00    +0.000 C 
ATOM     17  C   UNL     1      51.388   9.621  16.526  0.00  0.00    +0.000 C 
ENDBRANCH  15  17
ENDBRANCH   1  15
BRANCH   1  18
ATOM     18  C   UNL     1      49.954   7.257  15.719  0.00  0.00    +0.000 C 
BRANCH  18  19
ATOM     19  C   UNL     1      48.599   7.337  15.013  0.00  0.00    +0.000 A 
ATOM     20  C   UNL     1      47.919   8.534  14.754  0.00  0.00    +0.000 A 
ATOM     21  C   UNL     1      47.013   8.634  13.683  0.00  0.00    +0.000 A 
ATOM     22  C   UNL     1      46.632   7.501  12.955  0.00  0.00    +0.000 A 
ATOM     23  C   UNL     1      47.162   6.266  13.342  0.00  0.00    +0.000 A 
ATOM     24  C   UNL     1      48.143   6.189  14.341  0.00  0.00    +0.000 A 
BRANCH  22  25
ATOM     25  C   UNL     1      45.706   7.611  11.767  0.00  0.00    +0.000 C 
BRANCH  25  26
ATOM     26  N   UNL     1      45.689   6.395  10.982  0.00  0.00    +0.000 N 
ATOM     27  C   UNL     1      44.569   5.590  10.902  0.00  0.00    +0.000 C 
ATOM     28  O   UNL     1      43.535   5.875  11.504  0.00  0.00    +0.000 OA
ATOM     29  H   UNL     1      46.509   6.138  10.449  0.00  0.00    +0.000 HD
BRANCH  27  30
ATOM     30  C   UNL     1      44.698   4.400  10.080  0.00  0.00    +0.000 A 
ATOM     31  C   UNL     1      45.220   4.306   8.802  0.00  0.00    +0.000 A 
ATOM     32  N   UNL     1      45.213   3.043   8.234  0.00  0.00    +0.000 NA
ATOM     33  C   UNL     1      44.688   2.192   9.086  0.00  0.00    +0.000 A 
ATOM     34  S   UNL     1      44.188   2.842  10.591  0.00  0.00    +0.000 S 
ENDBRANCH  27  30
ENDBRANCH  25  26
ENDBRANCH  22  25
ENDBRANCH  18  19
ENDBRANCH   1  18
TORSDOF 8
ENDMDL
MODEL 7
REMARK VINA RESULT:    -5.738      2.198      2.924
REMARK INTER + INTRA:         -10.081
REMARK INTER:                 -10.004
REMARK INTRA:                  -0.076
REMARK UNBOUND:                -1.659
REMARK  Name = 
REMARK  9 active torsions:
REMARK  status: ('A' for Active; 'I' for Inactive)
REMARK    1  A    between atoms: C_1  and  C_2
REMARK    2  A    between atoms: C_2  and  C_3
REMARK    3  A    between atoms: C_3  and  N_4
REMARK    4  A    between atoms: N_4  and  C_5
REMARK    5  A    between atoms: C_5  and  C_6
REMARK    6  A    between atoms: C_9  and  C_10
REMARK    7  A    between atoms: C_10  and  N_11
REMARK    8  A    between atoms: C_12  and  C_14
REMARK    9  A    between atoms: C_21  and  C_23
REMARK                            x       y       z     vdW  Elec       q    Type
REMARK                         _______ _______ _______ _____ _____    ______ ____
ROOT
ATOM      1  N   UNL     1      47.942   7.896  14.314  0.00  0.00    +0.000 N 
ATOM      2  C   UNL     1      48.663   8.378  15.435  0.00  0.00    +0.000 C 
ATOM      3  O   UNL     1      48.671   9.583  15.685  0.00  0.00    +0.000 OA
ENDROOT
BRANCH   2   4
ATOM      4  C   UNL     1      49.466   7.482  16.300  0.00  0.00    +0.000 A 
ATOM      5  C   UNL     1      48.998   6.697  17.334  0.00  0.00    +0.000 A 
ATOM      6  S   UNL     1      50.109   5.592  17.990  0.00  0.00    +0.000 S 
ATOM      7  C   UNL     1      51.315   6.151  16.948  0.00  0.00    +0.000 A 
ATOM      8  N   UNL     1      52.550   5.596  16.990  0.00  0.00    +0.000 NA
ATOM      9  C   UNL     1      53.379   6.103  16.144  0.00  0.00    +0.000 A 
ATOM     10  N   UNL     1      53.083   7.124  15.274  0.00  0.00    +0.000 N 
ATOM     11  C   UNL     1      51.878   7.790  15.273  0.00  0.00    +0.000 A 
ATOM     12  O   UNL     1      51.738   8.839  14.660  0.00  0.00    +0.000 OA
ATOM     13  C   UNL     1      50.877   7.183  16.137  0.00  0.00    +0.000 A 
ATOM     14  H   UNL     1      53.805   7.530  14.695  0.00  0.00    +0.000 HD
ENDBRANCH   2   4
BRANCH   1  15
ATOM     15  C   UNL     1      47.142   8.882  13.557  0.00  0.00    +0.000 C 
BRANCH  15  17
ATOM     16  C   UNL     1      47.111  10.679  11.682  0.00  0.00    +0.000 C 
ATOM     17  C   UNL     1      47.938   9.839  12.643  0.00  0.00    +0.000 C 
ENDBRANCH  15  17
ENDBRANCH   1  15
BRANCH   1  18
ATOM     18  C   UNL     1      47.682   6.487  14.015  0.00  0.00    +0.000 C 
BRANCH  18  19
ATOM     19  C   UNL     1      46.468   6.111  13.163  0.00  0.00    +0.000 A 
ATOM     20  C   UNL     1      45.970   6.898  12.117  0.00  0.00    +0.000 A 
ATOM     21  C   UNL     1      45.253   6.319  11.054  0.00  0.00    +0.000 A 
ATOM     22  C   UNL     1      44.867   4.975  11.095  0.00  0.00    +0.000 A 
ATOM     23  C   UNL     1      45.194   4.235  12.235  0.00  0.00    +0.000 A 
ATOM     24  C   UNL     1      45.998   4.788  13.242  0.00  0.00    +0.000 A 
BRANCH  22  25
ATOM     25  C   UNL     1      44.150   4.332   9.931  0.00  0.00    +0.000 C 
BRANCH  25  26
ATOM     26  N   UNL     1      45.068   3.931   8.887  0.00  0.00    +0.000 N 
ATOM     27  C   UNL     1      45.393   2.606   8.665  0.00  0.00    +0.000 C 
ATOM     28  O   UNL     1      44.914   1.709   9.356  0.00  0.00    +0.000 OA
ATOM     29  H   UNL     1      45.463   4.634   8.277  0.00  0.00    +0.000 HD
BRANCH  27  30
ATOM     30  C   UNL     1      46.329   2.353   7.585  0.00  0.00    +0.000 A 
ATOM     31  C   UNL     1      47.117   1.232   7.390  0.00  0.00    +0.000 A 
ATOM     32  N   UNL     1      47.940   1.253   6.277  0.00  0.00    +0.000 NA
ATOM     33  C   UNL     1      47.767   2.387   5.636  0.00  0.00    +0.000 A 
ATOM     34  S   UNL     1      46.627   3.472   6.315  0.00  0.00    +0.000 S 
ENDBRANCH  27  30
ENDBRANCH  25  26
ENDBRANCH  22  25
ENDBRANCH  18  19
ENDBRANCH   1  18
TORSDOF 8
ENDMDL
MODEL 8
REMARK VINA RESULT:    -5.729      4.551      9.004
REMARK INTER + INTRA:         -10.068
REMARK INTER:                  -8.436
REMARK INTRA:                  -1.632
REMARK UNBOUND:                -1.659
REMARK  Name = 
REMARK  9 active torsions:
REMARK  status: ('A' for Active; 'I' for Inactive)
REMARK    1  A    between atoms: C_1  and  C_2
REMARK    2  A    between atoms: C_2  and  C_3
REMARK    3  A    between atoms: C_3  and  N_4
REMARK    4  A    between atoms: N_4  and  C_5
REMARK    5  A    between atoms: C_5  and  C_6
REMARK    6  A    between atoms: C_9  and  C_10
REMARK    7  A    between atoms: C_10  and  N_11
REMARK    8  A    between atoms: C_12  and  C_14
REMARK    9  A    between atoms: C_21  and  C_23
REMARK                            x       y       z     vdW  Elec       q    Type
REMARK                         _______ _______ _______ _____ _____    ______ ____
ROOT
ATOM      1  N   UNL     1      47.574   4.071  15.880  0.00  0.00    +0.000 N 
ATOM      2  C   UNL     1      47.153   4.080  14.526  0.00  0.00    +0.000 C 
ATOM      3  O   UNL     1      47.121   3.027  13.888  0.00  0.00    +0.000 OA
ENDROOT
BRANCH   2   4
ATOM      4  C   UNL     1      46.796   5.333  13.819  0.00  0.00    +0.000 A 
ATOM      5  C   UNL     1      47.598   6.444  13.653  0.00  0.00    +0.000 A 
ATOM      6  S   UNL     1      47.009   7.633  12.593  0.00  0.00    +0.000 S 
ATOM      7  C   UNL     1      45.599   6.740  12.336  0.00  0.00    +0.000 A 
ATOM      8  N   UNL     1      44.649   7.211  11.495  0.00  0.00    +0.000 NA
ATOM      9  C   UNL     1      43.625   6.437  11.378  0.00  0.00    +0.000 A 
ATOM     10  N   UNL     1      43.465   5.245  12.041  0.00  0.00    +0.000 N 
ATOM     11  C   UNL     1      44.353   4.782  12.986  0.00  0.00    +0.000 A 
ATOM     12  O   UNL     1      44.059   3.850  13.723  0.00  0.00    +0.000 OA
ATOM     13  C   UNL     1      45.573   5.569  13.074  0.00  0.00    +0.000 A 
ATOM     14  H   UNL     1      42.600   4.729  11.966  0.00  0.00    +0.000 HD
ENDBRANCH   2   4
BRANCH   1  15
ATOM     15  C   UNL     1      47.857   2.753  16.485  0.00  0.00    +0.000 C 
BRANCH  15  17
ATOM     16  C   UNL     1      50.200   2.167  17.441  0.00  0.00    +0.000 C 
ATOM     17  C   UNL     1      49.272   2.186  16.235  0.00  0.00    +0.000 C 
ENDBRANCH  15  17
ENDBRANCH   1  15
BRANCH   1  18
ATOM     18  C   UNL     1      47.472   5.199  16.806  0.00  0.00    +0.000 C 
BRANCH  18  19
ATOM     19  C   UNL     1      48.637   5.504  17.750  0.00  0.00    +0.000 A 
ATOM     20  C   UNL     1      48.640   5.195  19.117  0.00  0.00    +0.000 A 
ATOM     21  C   UNL     1      49.846   4.982  19.808  0.00  0.00    +0.000 A 
ATOM     22  C   UNL     1      51.079   5.239  19.199  0.00  0.00    +0.000 A 
ATOM     23  C   UNL     1      51.071   5.739  17.893  0.00  0.00    +0.000 A 
ATOM     24  C   UNL     1      49.872   5.850  17.175  0.00  0.00    +0.000 A 
BRANCH  22  25
ATOM     25  C   UNL     1      52.378   4.955  19.914  0.00  0.00    +0.000 C 
BRANCH  25  26
ATOM     26  N   UNL     1      52.815   3.590  19.719  0.00  0.00    +0.000 N 
ATOM     27  C   UNL     1      53.706   3.240  18.723  0.00  0.00    +0.000 C 
ATOM     28  O   UNL     1      54.165   4.083  17.954  0.00  0.00    +0.000 OA
ATOM     29  H   UNL     1      52.484   2.869  20.347  0.00  0.00    +0.000 HD
BRANCH  27  30
ATOM     30  C   UNL     1      54.052   1.832  18.644  0.00  0.00    +0.000 A 
ATOM     31  C   UNL     1      53.553   0.885  17.768  0.00  0.00    +0.000 A 
ATOM     32  N   UNL     1      54.046  -0.401  17.917  0.00  0.00    +0.000 NA
ATOM     33  C   UNL     1      54.914  -0.416  18.902  0.00  0.00    +0.000 A 
ATOM     34  S   UNL     1      55.190   1.081  19.689  0.00  0.00    +0.000 S 
ENDBRANCH  27  30
ENDBRANCH  25  26
ENDBRANCH  22  25
ENDBRANCH  18  19
ENDBRANCH   1  18
TORSDOF 8
ENDMDL
MODEL 9
REMARK VINA RESULT:    -5.641      4.387      7.709
REMARK INTER + INTRA:          -9.938
REMARK INTER:                  -8.493
REMARK INTRA:                  -1.446
REMARK UNBOUND:                -1.659
REMARK  Name = 
REMARK  9 active torsions:
REMARK  status: ('A' for Active; 'I' for Inactive)
REMARK    1  A    between atoms: C_1  and  C_2
REMARK    2  A    between atoms: C_2  and  C_3
REMARK    3  A    between atoms: C_3  and  N_4
REMARK    4  A    between atoms: N_4  and  C_5
REMARK    5  A    between atoms: C_5  and  C_6
REMARK    6  A    between atoms: C_9  and  C_10
REMARK    7  A    between atoms: C_10  and  N_11
REMARK    8  A    between atoms: C_12  and  C_14
REMARK    9  A    between atoms: C_21  and  C_23
REMARK                            x       y       z     vdW  Elec       q    Type
REMARK                         _______ _______ _______ _____ _____    ______ ____
ROOT
ATOM      1  N   UNL     1      52.649   8.634  11.074  0.00  0.00    +0.000 N 
ATOM      2  C   UNL     1      53.637   8.703  10.059  0.00  0.00    +0.000 C 
ATOM      3  O   UNL     1      54.728   9.219  10.301  0.00  0.00    +0.000 OA
ENDROOT
BRANCH   2   4
ATOM      4  C   UNL     1      53.386   8.218   8.681  0.00  0.00    +0.000 A 
ATOM      5  C   UNL     1      53.058   8.988   7.583  0.00  0.00    +0.000 A 
ATOM      6  S   UNL     1      53.068   8.187   6.085  0.00  0.00    +0.000 S 
ATOM      7  C   UNL     1      53.463   6.729   6.841  0.00  0.00    +0.000 A 
ATOM      8  N   UNL     1      53.634   5.611   6.096  0.00  0.00    +0.000 NA
ATOM      9  C   UNL     1      53.938   4.566   6.786  0.00  0.00    +0.000 A 
ATOM     10  N   UNL     1      54.070   4.542   8.153  0.00  0.00    +0.000 N 
ATOM     11  C   UNL     1      53.799   5.626   8.957  0.00  0.00    +0.000 A 
ATOM     12  O   UNL     1      53.692   5.501  10.170  0.00  0.00    +0.000 OA
ATOM     13  C   UNL     1      53.555   6.854   8.216  0.00  0.00    +0.000 A 
ATOM     14  H   UNL     1      54.228   3.670   8.638  0.00  0.00    +0.000 HD
ENDBRANCH   2   4
BRANCH   1  15
ATOM     15  C   UNL     1      53.037   9.107  12.420  0.00  0.00    +0.000 C 
BRANCH  15  17
ATOM     16  C   UNL     1      54.839   7.497  13.372  0.00  0.00    +0.000 C 
ATOM     17  C   UNL     1      53.408   8.009  13.440  0.00  0.00    +0.000 C 
ENDBRANCH  15  17
ENDBRANCH   1  15
BRANCH   1  18
ATOM     18  C   UNL     1      51.398   7.880  10.990  0.00  0.00    +0.000 C 
BRANCH  18  19
ATOM     19  C   UNL     1      50.193   8.328  11.820  0.00  0.00    +0.000 A 
ATOM     20  C   UNL     1      49.356   9.397  11.473  0.00  0.00    +0.000 A 
ATOM     21  C   UNL     1      48.021   9.441  11.911  0.00  0.00    +0.000 A 
ATOM     22  C   UNL     1      47.538   8.515  12.843  0.00  0.00    +0.000 A 
ATOM     23  C   UNL     1      48.433   7.563  13.342  0.00  0.00    +0.000 A 
ATOM     24  C   UNL     1      49.731   7.460  12.824  0.00  0.00    +0.000 A 
BRANCH  22  25
ATOM     25  C   UNL     1      46.090   8.520  13.272  0.00  0.00    +0.000 C 
BRANCH  25  26
ATOM     26  N   UNL     1      45.491   7.207  13.168  0.00  0.00    +0.000 N 
ATOM     27  C   UNL     1      44.836   6.788  12.027  0.00  0.00    +0.000 C 
ATOM     28  O   UNL     1      44.731   7.523  11.046  0.00  0.00    +0.000 OA
ATOM     29  H   UNL     1      45.579   6.561  13.941  0.00  0.00    +0.000 HD
BRANCH  27  30
ATOM     30  C   UNL     1      44.283   5.446  12.068  0.00  0.00    +0.000 A 
ATOM     31  C   UNL     1      44.160   4.613  13.165  0.00  0.00    +0.000 A 
ATOM     32  N   UNL     1      43.605   3.367  12.924  0.00  0.00    +0.000 NA
ATOM     33  C   UNL     1      43.309   3.268  11.648  0.00  0.00    +0.000 A 
ATOM     34  S   UNL     1      43.668   4.638  10.681  0.00  0.00    +0.000 S 
ENDBRANCH  27  30
ENDBRANCH  25  26
ENDBRANCH  22  25
ENDBRANCH  18  19
ENDBRANCH   1  18
TORSDOF 8
ENDMDL
