MODEL 1
REMARK VINA RESULT:    -7.528      0.000      0.000
REMARK INTER + INTRA:         -11.366
REMARK INTER:                 -10.609
REMARK INTRA:                  -0.757
REMARK UNBOUND:                -0.757
REMARK  Name = 
REMARK  8 active torsions:
REMARK  status: ('A' for Active; 'I' for Inactive)
REMARK    1  A    between atoms: C_1  and  O_2
REMARK    2  A    between atoms: O_2  and  C_3
REMARK    3  A    between atoms: C_8  and  C_9
REMARK    4  A    between atoms: N_11  and  C_12
REMARK    5  A    between atoms: C_12  and  C_13
REMARK    6  A    between atoms: C_16  and  C_17
REMARK    7  A    between atoms: C_17  and  N_18
REMARK    8  A    between atoms: C_19  and  C_21
REMARK                            x       y       z     vdW  Elec       q    Type
REMARK                         _______ _______ _______ _____ _____    ______ ____
ROOT
ATOM      1  C   UNL     1      51.418   3.118  17.742  0.00  0.00    +0.000 A 
ATOM      2  C   UNL     1      50.720   2.051  17.160  0.00  0.00    +0.000 A 
ATOM      3  C   UNL     1      49.342   2.141  16.928  0.00  0.00    +0.000 A 
ATOM      4  C   UNL     1      48.639   3.308  17.253  0.00  0.00    +0.000 A 
ATOM      5  C   UNL     1      49.337   4.370  17.845  0.00  0.00    +0.000 A 
ATOM      6  C   UNL     1      50.713   4.280  18.076  0.00  0.00    +0.000 A 
ENDROOT
BRANCH   1   7
ATOM      7  C   UNL     1      52.908   3.037  17.963  0.00  0.00    +0.000 C 
BRANCH   7  10
ATOM      8  C   UNL     1      54.084   0.909  18.380  0.00  0.00    +0.000 C 
ATOM      9  O   UNL     1      54.319   1.207  19.549  0.00  0.00    +0.000 OA
ATOM     10  N   UNL     1      53.429   1.764  17.530  0.00  0.00    +0.000 N 
ATOM     11  H   UNL     1      53.260   1.464  16.575  0.00  0.00    +0.000 HD
BRANCH   8  17
ATOM     12  C   UNL     1      54.420  -1.649  18.563  0.00  0.00    +0.000 A 
ATOM     13  C   UNL     1      54.893  -2.829  17.969  0.00  0.00    +0.000 A 
ATOM     14  C   UNL     1      55.404  -2.825  16.668  0.00  0.00    +0.000 A 
ATOM     15  C   UNL     1      55.442  -1.642  15.942  0.00  0.00    +0.000 A 
ATOM     16  C   UNL     1      54.990  -0.457  16.522  0.00  0.00    +0.000 A 
ATOM     17  C   UNL     1      54.488  -0.438  17.839  0.00  0.00    +0.000 A 
BRANCH  12  19
ATOM     18  C   UNL     1      54.573  -2.329  20.856  0.00  0.00    +0.000 C 
ATOM     19  O   UNL     1      53.895  -1.611  19.831  0.00  0.00    +0.000 OA
ENDBRANCH  12  19
ENDBRANCH   8  17
ENDBRANCH   7  10
ENDBRANCH   1   7
BRANCH   4  20
ATOM     20  C   UNL     1      47.152   3.408  17.022  0.00  0.00    +0.000 C 
BRANCH  20  21
ATOM     21  N   UNL     1      46.854   4.394  16.014  0.00  0.00    +0.000 N 
ATOM     22  C   UNL     1      46.986   4.122  14.676  0.00  0.00    +0.000 C 
ATOM     23  O   UNL     1      47.308   3.012  14.263  0.00  0.00    +0.000 OA
ATOM     24  H   UNL     1      46.827   5.359  16.322  0.00  0.00    +0.000 HD
BRANCH  22  25
ATOM     25  C   UNL     1      46.652   5.218  13.757  0.00  0.00    +0.000 A 
ATOM     26  C   UNL     1      47.577   6.223  13.510  0.00  0.00    +0.000 A 
ATOM     27  S   UNL     1      47.052   7.367  12.357  0.00  0.00    +0.000 S 
ATOM     28  C   UNL     1      45.548   6.591  12.189  0.00  0.00    +0.000 A 
ATOM     29  N   UNL     1      44.599   7.076  11.344  0.00  0.00    +0.000 NA
ATOM     30  C   UNL     1      43.496   6.406  11.339  0.00  0.00    +0.000 A 
ATOM     31  N   UNL     1      43.254   5.294  12.105  0.00  0.00    +0.000 N 
ATOM     32  C   UNL     1      44.187   4.759  12.958  0.00  0.00    +0.000 A 
ATOM     33  O   UNL     1      43.946   3.751  13.613  0.00  0.00    +0.000 OA
ATOM     34  C   UNL     1      45.450   5.473  12.997  0.00  0.00    +0.000 A 
ATOM     35  H   UNL     1      42.369   4.813  12.056  0.00  0.00    +0.000 HD
ENDBRANCH  22  25
ENDBRANCH  20  21
ENDBRANCH   4  20
TORSDOF 7
ENDMDL
MODEL 2
REMARK VINA RESULT:    -7.517      3.292      5.307
REMARK INTER + INTRA:         -11.350
REMARK INTER:                 -10.074
REMARK INTRA:                  -1.276
REMARK UNBOUND:                -0.757
REMARK  Name = 
REMARK  8 active torsions:
REMARK  status: ('A' for Active; 'I' for Inactive)
REMARK    1  A    between atoms: C_1  and  O_2
REMARK    2  A    between atoms: O_2  and  C_3
REMARK    3  A    between atoms: C_8  and  C_9
REMARK    4  A    between atoms: N_11  and  C_12
REMARK    5  A    between atoms: C_12  and  C_13
REMARK    6  A    between atoms: C_16  and  C_17
REMARK    7  A    between atoms: C_17  and  N_18
REMARK    8  A    between atoms: C_19  and  C_21
REMARK                            x       y       z     vdW  Elec       q    Type
REMARK                         _______ _______ _______ _____ _____    ______ ____
ROOT
ATOM      1  C   UNL     1      50.024   7.383  15.419  0.00  0.00    +0.000 A 
ATOM      2  C   UNL     1      48.887   6.568  15.345  0.00  0.00    +0.000 A 
ATOM      3  C   UNL     1      47.984   6.695  14.282  0.00  0.00    +0.000 A 
ATOM      4  C   UNL     1      48.214   7.625  13.260  0.00  0.00    +0.000 A 
ATOM      5  C   UNL     1      49.346   8.447  13.340  0.00  0.00    +0.000 A 
ATOM      6  C   UNL     1      50.247   8.319  14.402  0.00  0.00    +0.000 A 
ENDROOT
BRANCH   1   7
ATOM      7  C   UNL     1      51.015   7.227  16.545  0.00  0.00    +0.000 C 
BRANCH   7  10
ATOM      8  C   UNL     1      51.355   5.148  17.830  0.00  0.00    +0.000 C 
ATOM      9  O   UNL     1      50.932   5.658  18.866  0.00  0.00    +0.000 OA
ATOM     10  N   UNL     1      51.458   5.860  16.661  0.00  0.00    +0.000 N 
ATOM     11  H   UNL     1      51.812   5.387  15.835  0.00  0.00    +0.000 HD
BRANCH   8  17
ATOM     12  C   UNL     1      50.941   2.650  17.302  0.00  0.00    +0.000 A 
ATOM     13  C   UNL     1      51.399   1.327  17.395  0.00  0.00    +0.000 A 
ATOM     14  C   UNL     1      52.650   1.034  17.944  0.00  0.00    +0.000 A 
ATOM     15  C   UNL     1      53.463   2.063  18.403  0.00  0.00    +0.000 A 
ATOM     16  C   UNL     1      53.018   3.383  18.333  0.00  0.00    +0.000 A 
ATOM     17  C   UNL     1      51.752   3.696  17.799  0.00  0.00    +0.000 A 
BRANCH  12  19
ATOM     18  C   UNL     1      48.604   3.068  17.624  0.00  0.00    +0.000 C 
ATOM     19  O   UNL     1      49.727   2.983  16.754  0.00  0.00    +0.000 OA
ENDBRANCH  12  19
ENDBRANCH   8  17
ENDBRANCH   7  10
ENDBRANCH   1   7
BRANCH   4  20
ATOM     20  C   UNL     1      47.239   7.780  12.119  0.00  0.00    +0.000 C 
BRANCH  20  21
ATOM     21  N   UNL     1      46.605   6.524  11.811  0.00  0.00    +0.000 N 
ATOM     22  C   UNL     1      45.244   6.409  11.697  0.00  0.00    +0.000 C 
ATOM     23  O   UNL     1      44.495   7.377  11.795  0.00  0.00    +0.000 OA
ATOM     24  H   UNL     1      47.160   5.689  11.965  0.00  0.00    +0.000 HD
BRANCH  22  25
ATOM     25  C   UNL     1      44.730   5.068  11.382  0.00  0.00    +0.000 A 
ATOM     26  C   UNL     1      43.982   4.373  12.322  0.00  0.00    +0.000 A 
ATOM     27  S   UNL     1      43.400   2.871  11.758  0.00  0.00    +0.000 S 
ATOM     28  C   UNL     1      44.176   3.072  10.257  0.00  0.00    +0.000 A 
ATOM     29  N   UNL     1      44.090   2.120   9.290  0.00  0.00    +0.000 NA
ATOM     30  C   UNL     1      44.751   2.389   8.215  0.00  0.00    +0.000 A 
ATOM     31  N   UNL     1      45.493   3.526   8.018  0.00  0.00    +0.000 N 
ATOM     32  C   UNL     1      45.594   4.521   8.958  0.00  0.00    +0.000 A 
ATOM     33  O   UNL     1      46.250   5.535   8.743  0.00  0.00    +0.000 OA
ATOM     34  C   UNL     1      44.864   4.270  10.186  0.00  0.00    +0.000 A 
ATOM     35  H   UNL     1      45.989   3.678   7.154  0.00  0.00    +0.000 HD
ENDBRANCH  22  25
ENDBRANCH  20  21
ENDBRANCH   4  20
TORSDOF 7
ENDMDL
MODEL 3
REMARK VINA RESULT:    -7.405      3.057     10.842
REMARK INTER + INTRA:         -11.193
REMARK INTER:                 -10.003
REMARK INTRA:                  -1.190
REMARK UNBOUND:                -0.757
REMARK  Name = 
REMARK  8 active torsions:
REMARK  status: ('A' for Active; 'I' for Inactive)
REMARK    1  A    between atoms: C_1  and  O_2
REMARK    2  A    between atoms: O_2  and  C_3
REMARK    3  A    between atoms: C_8  and  C_9
REMARK    4  A    between atoms: N_11  and  C_12
REMARK    5  A    between atoms: C_12  and  C_13
REMARK    6  A    between atoms: C_16  and  C_17
REMARK    7  A    between atoms: C_17  and  N_18
REMARK    8  A    between atoms: C_19  and  C_21
REMARK                            x       y       z     vdW  Elec       q    Type
REMARK                         _______ _______ _______ _____ _____    ______ ____
ROOT
ATOM      1  C   UNL     1      48.750   3.400  17.220  0.00  0.00    +0.000 A 
ATOM      2  C   UNL     1      49.568   4.427  17.708  0.00  0.00    +0.000 A 
ATOM      3  C   UNL     1      50.926   4.199  17.960  0.00  0.00    +0.000 A 
ATOM      4  C   UNL     1      51.498   2.944  17.708  0.00  0.00    +0.000 A 
ATOM      5  C   UNL     1      50.675   1.916  17.229  0.00  0.00    +0.000 A 
ATOM      6  C   UNL     1      49.319   2.144  16.977  0.00  0.00    +0.000 A 
ENDROOT
BRANCH   1   7
ATOM      7  C   UNL     1      47.294   3.651  16.916  0.00  0.00    +0.000 C 
BRANCH   7  10
ATOM      8  C   UNL     1      47.107   4.312  14.546  0.00  0.00    +0.000 C 
ATOM      9  O   UNL     1      47.262   3.155  14.158  0.00  0.00    +0.000 OA
ATOM     10  N   UNL     1      47.143   4.640  15.878  0.00  0.00    +0.000 N 
ATOM     11  H   UNL     1      47.007   5.611  16.141  0.00  0.00    +0.000 HD
BRANCH   8  17
ATOM     12  C   UNL     1      45.574   5.703  12.996  0.00  0.00    +0.000 A 
ATOM     13  C   UNL     1      45.469   6.720  12.035  0.00  0.00    +0.000 A 
ATOM     14  C   UNL     1      46.586   7.468  11.651  0.00  0.00    +0.000 A 
ATOM     15  C   UNL     1      47.822   7.213  12.229  0.00  0.00    +0.000 A 
ATOM     16  C   UNL     1      47.949   6.195  13.176  0.00  0.00    +0.000 A 
ATOM     17  C   UNL     1      46.838   5.419  13.562  0.00  0.00    +0.000 A 
BRANCH  12  19
ATOM     18  C   UNL     1      43.226   5.251  12.852  0.00  0.00    +0.000 C 
ATOM     19  O   UNL     1      44.500   4.958  13.414  0.00  0.00    +0.000 OA
ENDBRANCH  12  19
ENDBRANCH   8  17
ENDBRANCH   7  10
ENDBRANCH   1   7
BRANCH   4  20
ATOM     20  C   UNL     1      52.956   2.685  17.991  0.00  0.00    +0.000 C 
BRANCH  20  21
ATOM     21  N   UNL     1      53.282   1.297  17.778  0.00  0.00    +0.000 N 
ATOM     22  C   UNL     1      54.105   0.608  18.631  0.00  0.00    +0.000 C 
ATOM     23  O   UNL     1      54.563   1.116  19.651  0.00  0.00    +0.000 OA
ATOM     24  H   UNL     1      53.124   0.936  16.844  0.00  0.00    +0.000 HD
BRANCH  22  25
ATOM     25  C   UNL     1      54.355  -0.800  18.293  0.00  0.00    +0.000 A 
ATOM     26  C   UNL     1      54.083  -1.795  19.222  0.00  0.00    +0.000 A 
ATOM     27  S   UNL     1      54.355  -3.374  18.631  0.00  0.00    +0.000 S 
ATOM     28  C   UNL     1      54.900  -2.779  17.134  0.00  0.00    +0.000 A 
ATOM     29  N   UNL     1      55.309  -3.625  16.150  0.00  0.00    +0.000 NA
ATOM     30  C   UNL     1      55.725  -3.037  15.080  0.00  0.00    +0.000 A 
ATOM     31  N   UNL     1      55.771  -1.678  14.902  0.00  0.00    +0.000 N 
ATOM     32  C   UNL     1      55.353  -0.787  15.859  0.00  0.00    +0.000 A 
ATOM     33  O   UNL     1      55.388   0.423  15.661  0.00  0.00    +0.000 OA
ATOM     34  C   UNL     1      54.870  -1.397  17.084  0.00  0.00    +0.000 A 
ATOM     35  H   UNL     1      56.109  -1.278  14.040  0.00  0.00    +0.000 HD
ENDBRANCH  22  25
ENDBRANCH  20  21
ENDBRANCH   4  20
TORSDOF 7
ENDMDL
MODEL 4
REMARK VINA RESULT:    -7.367      5.415      9.979
REMARK INTER + INTRA:         -11.139
REMARK INTER:                 -10.591
REMARK INTRA:                  -0.549
REMARK UNBOUND:                -0.757
REMARK  Name = 
REMARK  8 active torsions:
REMARK  status: ('A' for Active; 'I' for Inactive)
REMARK    1  A    between atoms: C_1  and  O_2
REMARK    2  A    between atoms: O_2  and  C_3
REMARK    3  A    between atoms: C_8  and  C_9
REMARK    4  A    between atoms: N_11  and  C_12
REMARK    5  A    between atoms: C_12  and  C_13
REMARK    6  A    between atoms: C_16  and  C_17
REMARK    7  A    between atoms: C_17  and  N_18
REMARK    8  A    between atoms: C_19  and  C_21
REMARK                            x       y       z     vdW  Elec       q    Type
REMARK                         _______ _______ _______ _____ _____    ______ ____
ROOT
ATOM      1  C   UNL     1      44.979   5.781  11.184  0.00  0.00    +0.000 A 
ATOM      2  C   UNL     1      44.641   7.121  11.415  0.00  0.00    +0.000 A 
ATOM      3  C   UNL     1      45.420   7.919  12.262  0.00  0.00    +0.000 A 
ATOM      4  C   UNL     1      46.567   7.398  12.876  0.00  0.00    +0.000 A 
ATOM      5  C   UNL     1      46.899   6.056  12.651  0.00  0.00    +0.000 A 
ATOM      6  C   UNL     1      46.120   5.259  11.805  0.00  0.00    +0.000 A 
ENDROOT
BRANCH   1   7
ATOM      7  C   UNL     1      44.161   4.928  10.248  0.00  0.00    +0.000 C 
BRANCH   7  10
ATOM      8  C   UNL     1      45.430   3.256   8.951  0.00  0.00    +0.000 C 
ATOM      9  O   UNL     1      45.292   2.399   9.823  0.00  0.00    +0.000 OA
ATOM     10  N   UNL     1      44.935   4.527   9.099  0.00  0.00    +0.000 N 
ATOM     11  H   UNL     1      45.077   5.194   8.347  0.00  0.00    +0.000 HD
BRANCH   8  17
ATOM     12  C   UNL     1      46.621   1.648   7.315  0.00  0.00    +0.000 A 
ATOM     13  C   UNL     1      47.321   1.486   6.109  0.00  0.00    +0.000 A 
ATOM     14  C   UNL     1      47.516   2.563   5.239  0.00  0.00    +0.000 A 
ATOM     15  C   UNL     1      47.008   3.814   5.561  0.00  0.00    +0.000 A 
ATOM     16  C   UNL     1      46.322   3.997   6.762  0.00  0.00    +0.000 A 
ATOM     17  C   UNL     1      46.132   2.927   7.660  0.00  0.00    +0.000 A 
BRANCH  12  19
ATOM     18  C   UNL     1      46.537  -0.716   7.700  0.00  0.00    +0.000 C 
ATOM     19  O   UNL     1      46.393   0.614   8.188  0.00  0.00    +0.000 OA
ENDBRANCH  12  19
ENDBRANCH   8  17
ENDBRANCH   7  10
ENDBRANCH   1   7
BRANCH   4  20
ATOM     20  C   UNL     1      47.404   8.246  13.801  0.00  0.00    +0.000 C 
BRANCH  20  21
ATOM     21  N   UNL     1      47.795   7.498  14.969  0.00  0.00    +0.000 N 
ATOM     22  C   UNL     1      49.049   6.956  15.095  0.00  0.00    +0.000 C 
ATOM     23  O   UNL     1      49.922   7.125  14.249  0.00  0.00    +0.000 OA
ATOM     24  H   UNL     1      47.043   7.144  15.550  0.00  0.00    +0.000 HD
BRANCH  22  25
ATOM     25  C   UNL     1      49.312   6.215  16.336  0.00  0.00    +0.000 A 
ATOM     26  C   UNL     1      50.340   6.616  17.179  0.00  0.00    +0.000 A 
ATOM     27  S   UNL     1      50.449   5.694  18.611  0.00  0.00    +0.000 S 
ATOM     28  C   UNL     1      49.164   4.690  18.128  0.00  0.00    +0.000 A 
ATOM     29  N   UNL     1      48.743   3.661  18.912  0.00  0.00    +0.000 NA
ATOM     30  C   UNL     1      47.781   2.965  18.410  0.00  0.00    +0.000 A 
ATOM     31  N   UNL     1      47.199   3.202  17.191  0.00  0.00    +0.000 N 
ATOM     32  C   UNL     1      47.577   4.238  16.373  0.00  0.00    +0.000 A 
ATOM     33  O   UNL     1      47.022   4.435  15.298  0.00  0.00    +0.000 OA
ATOM     34  C   UNL     1      48.655   5.057  16.895  0.00  0.00    +0.000 A 
ATOM     35  H   UNL     1      46.448   2.619  16.852  0.00  0.00    +0.000 HD
ENDBRANCH  22  25
ENDBRANCH  20  21
ENDBRANCH   4  20
TORSDOF 7
ENDMDL
MODEL 5
REMARK VINA RESULT:    -7.238      3.716     10.169
REMARK INTER + INTRA:         -10.956
REMARK INTER:                  -9.725
REMARK INTRA:                  -1.231
REMARK UNBOUND:                -0.757
REMARK  Name = 
REMARK  8 active torsions:
REMARK  status: ('A' for Active; 'I' for Inactive)
REMARK    1  A    between atoms: C_1  and  O_2
REMARK    2  A    between atoms: O_2  and  C_3
REMARK    3  A    between atoms: C_8  and  C_9
REMARK    4  A    between atoms: N_11  and  C_12
REMARK    5  A    between atoms: C_12  and  C_13
REMARK    6  A    between atoms: C_16  and  C_17
REMARK    7  A    between atoms: C_17  and  N_18
REMARK    8  A    between atoms: C_19  and  C_21
REMARK                            x       y       z     vdW  Elec       q    Type
REMARK                         _______ _______ _______ _____ _____    ______ ____
ROOT
ATOM      1  C   UNL     1      47.829   7.785  13.509  0.00  0.00    +0.000 A 
ATOM      2  C   UNL     1      47.921   8.945  14.290  0.00  0.00    +0.000 A 
ATOM      3  C   UNL     1      48.394   8.882  15.607  0.00  0.00    +0.000 A 
ATOM      4  C   UNL     1      48.805   7.662  16.160  0.00  0.00    +0.000 A 
ATOM      5  C   UNL     1      48.703   6.503  15.380  0.00  0.00    +0.000 A 
ATOM      6  C   UNL     1      48.231   6.565  14.065  0.00  0.00    +0.000 A 
ENDROOT
BRANCH   1   7
ATOM      7  C   UNL     1      47.351   7.853  12.080  0.00  0.00    +0.000 C 
BRANCH   7  10
ATOM      8  C   UNL     1      45.557   6.459  11.118  0.00  0.00    +0.000 C 
ATOM      9  O   UNL     1      44.788   7.416  11.032  0.00  0.00    +0.000 OA
ATOM     10  N   UNL     1      46.815   6.585  11.651  0.00  0.00    +0.000 N 
ATOM     11  H   UNL     1      47.406   5.762  11.696  0.00  0.00    +0.000 HD
BRANCH   8  17
ATOM     12  C   UNL     1      44.587   4.079  11.405  0.00  0.00    +0.000 A 
ATOM     13  C   UNL     1      44.313   2.832  10.823  0.00  0.00    +0.000 A 
ATOM     14  C   UNL     1      44.563   2.599   9.467  0.00  0.00    +0.000 A 
ATOM     15  C   UNL     1      45.083   3.614   8.674  0.00  0.00    +0.000 A 
ATOM     16  C   UNL     1      45.375   4.855   9.240  0.00  0.00    +0.000 A 
ATOM     17  C   UNL     1      45.148   5.103  10.608  0.00  0.00    +0.000 A 
BRANCH  12  19
ATOM     18  C   UNL     1      43.033   4.784  13.087  0.00  0.00    +0.000 C 
ATOM     19  O   UNL     1      44.341   4.355  12.727  0.00  0.00    +0.000 OA
ENDBRANCH  12  19
ENDBRANCH   8  17
ENDBRANCH   7  10
ENDBRANCH   1   7
BRANCH   4  20
ATOM     20  C   UNL     1      49.301   7.583  17.583  0.00  0.00    +0.000 C 
BRANCH  20  21
ATOM     21  N   UNL     1      50.263   6.521  17.733  0.00  0.00    +0.000 N 
ATOM     22  C   UNL     1      50.471   5.898  18.937  0.00  0.00    +0.000 C 
ATOM     23  O   UNL     1      49.812   6.171  19.936  0.00  0.00    +0.000 OA
ATOM     24  H   UNL     1      50.970   6.448  17.010  0.00  0.00    +0.000 HD
BRANCH  22  25
ATOM     25  C   UNL     1      51.483   4.833  18.948  0.00  0.00    +0.000 A 
ATOM     26  C   UNL     1      52.661   5.003  19.664  0.00  0.00    +0.000 A 
ATOM     27  S   UNL     1      53.682   3.636  19.633  0.00  0.00    +0.000 S 
ATOM     28  C   UNL     1      52.613   2.790  18.616  0.00  0.00    +0.000 A 
ATOM     29  N   UNL     1      52.898   1.531  18.190  0.00  0.00    +0.000 NA
ATOM     30  C   UNL     1      52.014   1.021  17.400  0.00  0.00    +0.000 A 
ATOM     31  N   UNL     1      50.868   1.658  16.996  0.00  0.00    +0.000 N 
ATOM     32  C   UNL     1      50.530   2.921  17.414  0.00  0.00    +0.000 A 
ATOM     33  O   UNL     1      49.488   3.454  17.049  0.00  0.00    +0.000 OA
ATOM     34  C   UNL     1      51.490   3.538  18.309  0.00  0.00    +0.000 A 
ATOM     35  H   UNL     1      50.215   1.205  16.375  0.00  0.00    +0.000 HD
ENDBRANCH  22  25
ENDBRANCH  20  21
ENDBRANCH   4  20
TORSDOF 7
ENDMDL
MODEL 6
REMARK VINA RESULT:    -7.016      3.733     10.479
REMARK INTER + INTRA:         -10.645
REMARK INTER:                  -9.880
REMARK INTRA:                  -0.764
REMARK UNBOUND:                -0.757
REMARK  Name = 
REMARK  8 active torsions:
REMARK  status: ('A' for Active; 'I' for Inactive)
REMARK    1  A    between atoms: C_1  and  O_2
REMARK    2  A    between atoms: O_2  and  C_3
REMARK    3  A    between atoms: C_8  and  C_9
REMARK    4  A    between atoms: N_11  and  C_12
REMARK    5  A    between atoms: C_12  and  C_13
REMARK    6  A    between atoms: C_16  and  C_17
REMARK    7  A    between atoms: C_17  and  N_18
REMARK    8  A    between atoms: C_19  and  C_21
REMARK                            x       y       z     vdW  Elec       q    Type
REMARK                         _______ _______ _______ _____ _____    ______ ____
ROOT
ATOM      1  C   UNL     1      46.622   7.576  13.026  0.00  0.00    +0.000 A 
ATOM      2  C   UNL     1      47.317   6.423  13.415  0.00  0.00    +0.000 A 
ATOM      3  C   UNL     1      48.308   6.486  14.402  0.00  0.00    +0.000 A 
ATOM      4  C   UNL     1      48.608   7.699  15.036  0.00  0.00    +0.000 A 
ATOM      5  C   UNL     1      47.919   8.853  14.639  0.00  0.00    +0.000 A 
ATOM      6  C   UNL     1      46.929   8.790  13.653  0.00  0.00    +0.000 A 
ENDROOT
BRANCH   1   7
ATOM      7  C   UNL     1      45.532   7.507  11.986  0.00  0.00    +0.000 C 
BRANCH   7  10
ATOM      8  C   UNL     1      44.527   5.635  10.733  0.00  0.00    +0.000 C 
ATOM      9  O   UNL     1      43.384   6.008  10.991  0.00  0.00    +0.000 OA
ATOM     10  N   UNL     1      45.631   6.295  11.212  0.00  0.00    +0.000 N 
ATOM     11  H   UNL     1      46.550   5.943  10.966  0.00  0.00    +0.000 HD
BRANCH   8  17
ATOM     12  C   UNL     1      44.158   3.174  10.030  0.00  0.00    +0.000 A 
ATOM     13  C   UNL     1      44.512   2.119   9.174  0.00  0.00    +0.000 A 
ATOM     14  C   UNL     1      45.425   2.310   8.134  0.00  0.00    +0.000 A 
ATOM     15  C   UNL     1      45.992   3.562   7.931  0.00  0.00    +0.000 A 
ATOM     16  C   UNL     1      45.664   4.618   8.782  0.00  0.00    +0.000 A 
ATOM     17  C   UNL     1      44.759   4.440   9.847  0.00  0.00    +0.000 A 
BRANCH  12  19
ATOM     18  C   UNL     1      43.757   2.782  12.359  0.00  0.00    +0.000 C 
ATOM     19  O   UNL     1      43.253   3.033  11.052  0.00  0.00    +0.000 OA
ENDBRANCH  12  19
ENDBRANCH   8  17
ENDBRANCH   7  10
ENDBRANCH   1   7
BRANCH   4  20
ATOM     20  C   UNL     1      49.685   7.779  16.090  0.00  0.00    +0.000 C 
BRANCH  20  21
ATOM     21  N   UNL     1      50.275   6.485  16.320  0.00  0.00    +0.000 N 
ATOM     22  C   UNL     1      49.908   5.702  17.385  0.00  0.00    +0.000 C 
ATOM     23  O   UNL     1      49.020   6.033  18.165  0.00  0.00    +0.000 OA
ATOM     24  H   UNL     1      51.155   6.302  15.852  0.00  0.00    +0.000 HD
BRANCH  22  25
ATOM     25  C   UNL     1      50.592   4.407  17.502  0.00  0.00    +0.000 A 
ATOM     26  C   UNL     1      49.877   3.228  17.342  0.00  0.00    +0.000 A 
ATOM     27  S   UNL     1      50.845   1.824  17.429  0.00  0.00    +0.000 S 
ATOM     28  C   UNL     1      52.244   2.741  17.739  0.00  0.00    +0.000 A 
ATOM     29  N   UNL     1      53.449   2.140  17.930  0.00  0.00    +0.000 NA
ATOM     30  C   UNL     1      54.417   2.954  18.185  0.00  0.00    +0.000 A 
ATOM     31  N   UNL     1      54.291   4.317  18.269  0.00  0.00    +0.000 N 
ATOM     32  C   UNL     1      53.099   4.968  18.067  0.00  0.00    +0.000 A 
ATOM     33  O   UNL     1      53.024   6.191  18.128  0.00  0.00    +0.000 OA
ATOM     34  C   UNL     1      51.977   4.098  17.770  0.00  0.00    +0.000 A 
ATOM     35  H   UNL     1      55.088   4.900  18.473  0.00  0.00    +0.000 HD
ENDBRANCH  22  25
ENDBRANCH  20  21
ENDBRANCH   4  20
TORSDOF 7
ENDMDL
MODEL 7
REMARK VINA RESULT:    -6.929      3.276      5.213
REMARK INTER + INTRA:         -10.522
REMARK INTER:                  -9.475
REMARK INTRA:                  -1.046
REMARK UNBOUND:                -0.757
REMARK  Name = 
REMARK  8 active torsions:
REMARK  status: ('A' for Active; 'I' for Inactive)
REMARK    1  A    between atoms: C_1  and  O_2
REMARK    2  A    between atoms: O_2  and  C_3
REMARK    3  A    between atoms: C_8  and  C_9
REMARK    4  A    between atoms: N_11  and  C_12
REMARK    5  A    between atoms: C_12  and  C_13
REMARK    6  A    between atoms: C_16  and  C_17
REMARK    7  A    between atoms: C_17  and  N_18
REMARK    8  A    between atoms: C_19  and  C_21
REMARK                            x       y       z     vdW  Elec       q    Type
REMARK                         _______ _______ _______ _____ _____    ______ ____
ROOT
ATOM      1  C   UNL     1      49.888   7.692  15.725  0.00  0.00    +0.000 A 
ATOM      2  C   UNL     1      48.585   8.208  15.726  0.00  0.00    +0.000 A 
ATOM      3  C   UNL     1      47.936   8.509  14.523  0.00  0.00    +0.000 A 
ATOM      4  C   UNL     1      48.567   8.277  13.294  0.00  0.00    +0.000 A 
ATOM      5  C   UNL     1      49.873   7.770  13.295  0.00  0.00    +0.000 A 
ATOM      6  C   UNL     1      50.522   7.469  14.497  0.00  0.00    +0.000 A 
ENDROOT
BRANCH   1   7
ATOM      7  C   UNL     1      50.578   7.336  17.018  0.00  0.00    +0.000 C 
BRANCH   7  10
ATOM      8  C   UNL     1      51.035   5.159  18.083  0.00  0.00    +0.000 C 
ATOM      9  O   UNL     1      50.630   5.550  19.177  0.00  0.00    +0.000 OA
ATOM     10  N   UNL     1      51.074   5.982  16.987  0.00  0.00    +0.000 N 
ATOM     11  H   UNL     1      51.416   5.605  16.109  0.00  0.00    +0.000 HD
BRANCH   8  17
ATOM     12  C   UNL     1      50.707   2.718  17.296  0.00  0.00    +0.000 A 
ATOM     13  C   UNL     1      51.211   1.408  17.248  0.00  0.00    +0.000 A 
ATOM     14  C   UNL     1      52.473   1.103  17.764  0.00  0.00    +0.000 A 
ATOM     15  C   UNL     1      53.252   2.105  18.329  0.00  0.00    +0.000 A 
ATOM     16  C   UNL     1      52.760   3.409  18.399  0.00  0.00    +0.000 A 
ATOM     17  C   UNL     1      51.483   3.732  17.900  0.00  0.00    +0.000 A 
BRANCH  12  19
ATOM     18  C   UNL     1      48.364   3.056  17.668  0.00  0.00    +0.000 C 
ATOM     19  O   UNL     1      49.481   3.063  16.785  0.00  0.00    +0.000 OA
ENDBRANCH  12  19
ENDBRANCH   8  17
ENDBRANCH   7  10
ENDBRANCH   1   7
BRANCH   4  20
ATOM     20  C   UNL     1      47.881   8.613  11.993  0.00  0.00    +0.000 C 
BRANCH  20  21
ATOM     21  N   UNL     1      47.290   7.437  11.406  0.00  0.00    +0.000 N 
ATOM     22  C   UNL     1      45.948   7.173  11.512  0.00  0.00    +0.000 C 
ATOM     23  O   UNL     1      45.170   7.948  12.061  0.00  0.00    +0.000 OA
ATOM     24  H   UNL     1      47.925   6.683  11.171  0.00  0.00    +0.000 HD
BRANCH  22  25
ATOM     25  C   UNL     1      45.479   5.938  10.870  0.00  0.00    +0.000 A 
ATOM     26  C   UNL     1      45.766   5.699   9.533  0.00  0.00    +0.000 A 
ATOM     27  S   UNL     1      45.215   4.182   8.976  0.00  0.00    +0.000 S 
ATOM     28  C   UNL     1      44.526   3.815  10.487  0.00  0.00    +0.000 A 
ATOM     29  N   UNL     1      43.871   2.641  10.694  0.00  0.00    +0.000 NA
ATOM     30  C   UNL     1      43.372   2.508  11.876  0.00  0.00    +0.000 A 
ATOM     31  N   UNL     1      43.467   3.445  12.873  0.00  0.00    +0.000 N 
ATOM     32  C   UNL     1      44.131   4.636  12.717  0.00  0.00    +0.000 A 
ATOM     33  O   UNL     1      44.215   5.444  13.636  0.00  0.00    +0.000 OA
ATOM     34  C   UNL     1      44.717   4.834  11.404  0.00  0.00    +0.000 A 
ATOM     35  H   UNL     1      43.053   3.282  13.779  0.00  0.00    +0.000 HD
ENDBRANCH  22  25
ENDBRANCH  20  21
ENDBRANCH   4  20
TORSDOF 7
ENDMDL
MODEL 8
REMARK VINA RESULT:    -6.740      3.512      5.694
REMARK INTER + INTRA:         -10.256
REMARK INTER:                  -8.812
REMARK INTRA:                  -1.443
REMARK UNBOUND:                -0.757
REMARK  Name = 
REMARK  8 active torsions:
REMARK  status: ('A' for Active; 'I' for Inactive)
REMARK    1  A    between atoms: C_1  and  O_2
REMARK    2  A    between atoms: O_2  and  C_3
REMARK    3  A    between atoms: C_8  and  C_9
REMARK    4  A    between atoms: N_11  and  C_12
REMARK    5  A    between atoms: C_12  and  C_13
REMARK    6  A    between atoms: C_16  and  C_17
REMARK    7  A    between atoms: C_17  and  N_18
REMARK    8  A    between atoms: C_19  and  C_21
REMARK                            x       y       z     vdW  Elec       q    Type
REMARK                         _______ _______ _______ _____ _____    ______ ____
ROOT
ATOM      1  C   UNL     1      51.368   3.931  17.860  0.00  0.00    +0.000 A 
ATOM      2  C   UNL     1      50.907   2.680  17.428  0.00  0.00    +0.000 A 
ATOM      3  C   UNL     1      49.559   2.492  17.097  0.00  0.00    +0.000 A 
ATOM      4  C   UNL     1      48.652   3.557  17.169  0.00  0.00    +0.000 A 
ATOM      5  C   UNL     1      49.113   4.804  17.610  0.00  0.00    +0.000 A 
ATOM      6  C   UNL     1      50.459   4.992  17.941  0.00  0.00    +0.000 A 
ENDROOT
BRANCH   1   7
ATOM      7  C   UNL     1      52.825   4.146  18.187  0.00  0.00    +0.000 C 
BRANCH   7  10
ATOM      8  C   UNL     1      53.952   6.089  17.167  0.00  0.00    +0.000 C 
ATOM      9  O   UNL     1      54.467   5.396  16.291  0.00  0.00    +0.000 OA
ATOM     10  N   UNL     1      53.164   5.547  18.150  0.00  0.00    +0.000 N 
ATOM     11  H   UNL     1      52.763   6.167  18.847  0.00  0.00    +0.000 HD
BRANCH   8  17
ATOM     12  C   UNL     1      53.114   8.530  17.012  0.00  0.00    +0.000 A 
ATOM     13  C   UNL     1      53.437   9.895  16.968  0.00  0.00    +0.000 A 
ATOM     14  C   UNL     1      54.759  10.327  17.107  0.00  0.00    +0.000 A 
ATOM     15  C   UNL     1      55.775   9.399  17.300  0.00  0.00    +0.000 A 
ATOM     16  C   UNL     1      55.473   8.037  17.332  0.00  0.00    +0.000 A 
ATOM     17  C   UNL     1      54.149   7.582  17.175  0.00  0.00    +0.000 A 
BRANCH  12  19
ATOM     18  C   UNL     1      51.253   8.008  15.596  0.00  0.00    +0.000 C 
ATOM     19  O   UNL     1      51.827   8.065  16.897  0.00  0.00    +0.000 OA
ENDBRANCH  12  19
ENDBRANCH   8  17
ENDBRANCH   7  10
ENDBRANCH   1   7
BRANCH   4  20
ATOM     20  C   UNL     1      47.195   3.360  16.828  0.00  0.00    +0.000 C 
BRANCH  20  21
ATOM     21  N   UNL     1      46.754   4.343  15.872  0.00  0.00    +0.000 N 
ATOM     22  C   UNL     1      46.838   4.125  14.521  0.00  0.00    +0.000 C 
ATOM     23  O   UNL     1      47.239   3.064  14.052  0.00  0.00    +0.000 OA
ATOM     24  H   UNL     1      46.653   5.291  16.215  0.00  0.00    +0.000 HD
BRANCH  22  25
ATOM     25  C   UNL     1      46.354   5.213  13.659  0.00  0.00    +0.000 A 
ATOM     26  C   UNL     1      47.153   6.325  13.431  0.00  0.00    +0.000 A 
ATOM     27  S   UNL     1      46.468   7.448  12.343  0.00  0.00    +0.000 S 
ATOM     28  C   UNL     1      45.055   6.514  12.183  0.00  0.00    +0.000 A 
ATOM     29  N   UNL     1      44.031   6.921  11.385  0.00  0.00    +0.000 NA
ATOM     30  C   UNL     1      43.011   6.132  11.382  0.00  0.00    +0.000 A 
ATOM     31  N   UNL     1      42.919   4.970  12.105  0.00  0.00    +0.000 N 
ATOM     32  C   UNL     1      43.932   4.511  12.908  0.00  0.00    +0.000 A 
ATOM     33  O   UNL     1      43.826   3.457  13.526  0.00  0.00    +0.000 OA
ATOM     34  C   UNL     1      45.108   5.360  12.944  0.00  0.00    +0.000 A 
ATOM     35  H   UNL     1      42.091   4.396  12.060  0.00  0.00    +0.000 HD
ENDBRANCH  22  25
ENDBRANCH  20  21
ENDBRANCH   4  20
TORSDOF 7
ENDMDL
MODEL 9
REMARK VINA RESULT:    -6.636      5.509     10.226
REMARK INTER + INTRA:         -10.109
REMARK INTER:                  -9.330
REMARK INTRA:                  -0.778
REMARK UNBOUND:                -0.757
REMARK  Name = 
REMARK  8 active torsions:
REMARK  status: ('A' for Active; 'I' for Inactive)
REMARK    1  A    between atoms: C_1  and  O_2
REMARK    2  A    between atoms: O_2  and  C_3
REMARK    3  A    between atoms: C_8  and  C_9
REMARK    4  A    between atoms: N_11  and  C_12
REMARK    5  A    between atoms: C_12  and  C_13
REMARK    6  A    between atoms: C_16  and  C_17
REMARK    7  A    between atoms: C_17  and  N_18
REMARK    8  A    between atoms: C_19  and  C_21
REMARK                            x       y       z     vdW  Elec       q    Type
REMARK                         _______ _______ _______ _____ _____    ______ ____
ROOT
ATOM      1  C   UNL     1      46.381   7.879  12.341  0.00  0.00    +0.000 A 
ATOM      2  C   UNL     1      47.180   6.936  13.001  0.00  0.00    +0.000 A 
ATOM      3  C   UNL     1      48.317   7.337  13.714  0.00  0.00    +0.000 A 
ATOM      4  C   UNL     1      48.664   8.692  13.799  0.00  0.00    +0.000 A 
ATOM      5  C   UNL     1      47.869   9.632  13.130  0.00  0.00    +0.000 A 
ATOM      6  C   UNL     1      46.734   9.232  12.418  0.00  0.00    +0.000 A 
ENDROOT
BRANCH   1   7
ATOM      7  C   UNL     1      45.138   7.454  11.599  0.00  0.00    +0.000 C 
BRANCH   7  10
ATOM      8  C   UNL     1      44.309   5.442  10.437  0.00  0.00    +0.000 C 
ATOM      9  O   UNL     1      43.134   5.750  10.631  0.00  0.00    +0.000 OA
ATOM     10  N   UNL     1      45.347   6.206  10.909  0.00  0.00    +0.000 N 
ATOM     11  H   UNL     1      46.297   5.904  10.717  0.00  0.00    +0.000 HD
BRANCH   8  17
ATOM     12  C   UNL     1      44.190   2.910   9.927  0.00  0.00    +0.000 A 
ATOM     13  C   UNL     1      44.642   1.834   9.146  0.00  0.00    +0.000 A 
ATOM     14  C   UNL     1      45.520   2.038   8.078  0.00  0.00    +0.000 A 
ATOM     15  C   UNL     1      45.952   3.322   7.772  0.00  0.00    +0.000 A 
ATOM     16  C   UNL     1      45.525   4.401   8.547  0.00  0.00    +0.000 A 
ATOM     17  C   UNL     1      44.655   4.213   9.639  0.00  0.00    +0.000 A 
BRANCH  12  19
ATOM     18  C   UNL     1      43.849   2.731  12.292  0.00  0.00    +0.000 C 
ATOM     19  O   UNL     1      43.314   2.756  10.973  0.00  0.00    +0.000 OA
ENDBRANCH  12  19
ENDBRANCH   8  17
ENDBRANCH   7  10
ENDBRANCH   1   7
BRANCH   4  20
ATOM     20  C   UNL     1      49.895   9.131  14.551  0.00  0.00    +0.000 C 
BRANCH  20  21
ATOM     21  N   UNL     1      49.962   8.495  15.842  0.00  0.00    +0.000 N 
ATOM     22  C   UNL     1      51.036   7.728  16.215  0.00  0.00    +0.000 C 
ATOM     23  O   UNL     1      52.021   7.587  15.496  0.00  0.00    +0.000 OA
ATOM     24  H   UNL     1      49.085   8.394  16.341  0.00  0.00    +0.000 HD
BRANCH  22  25
ATOM     25  C   UNL     1      50.973   7.136  17.559  0.00  0.00    +0.000 A 
ATOM     26  C   UNL     1      51.809   7.603  18.563  0.00  0.00    +0.000 A 
ATOM     27  S   UNL     1      51.543   6.859  20.076  0.00  0.00    +0.000 S 
ATOM     28  C   UNL     1      50.339   5.847  19.429  0.00  0.00    +0.000 A 
ATOM     29  N   UNL     1      49.695   4.936  20.207  0.00  0.00    +0.000 NA
ATOM     30  C   UNL     1      48.829   4.215  19.579  0.00  0.00    +0.000 A 
ATOM     31  N   UNL     1      48.547   4.320  18.241  0.00  0.00    +0.000 N 
ATOM     32  C   UNL     1      49.159   5.235  17.421  0.00  0.00    +0.000 A 
ATOM     33  O   UNL     1      48.869   5.318  16.232  0.00  0.00    +0.000 OA
ATOM     34  C   UNL     1      50.140   6.077  18.079  0.00  0.00    +0.000 A 
ATOM     35  H   UNL     1      47.858   3.725  17.808  0.00  0.00    +0.000 HD
ENDBRANCH  22  25
ENDBRANCH  20  21
ENDBRANCH   4  20
TORSDOF 7
ENDMDL
