MODEL 1
REMARK VINA RESULT:    -8.172      0.000      0.000
REMARK INTER + INTRA:         -13.232
REMARK INTER:                 -11.994
REMARK INTRA:                  -1.238
REMARK UNBOUND:                -1.238
REMARK  Name = 
REMARK  9 active torsions:
REMARK  status: ('A' for Active; 'I' for Inactive)
REMARK    1  A    between atoms: C_1  and  O_2
REMARK    2  A    between atoms: O_2  and  C_3
REMARK    3  A    between atoms: C_10  and  C_11
REMARK    4  A    between atoms: N_13  and  C_14
REMARK    5  A    between atoms: C_14  and  C_15
REMARK    6  A    between atoms: C_18  and  C_19
REMARK    7  A    between atoms: C_19  and  C_20
REMARK    8  A    between atoms: C_20  and  N_21
REMARK    9  A    between atoms: N_21  and  C_22
REMARK                            x       y       z     vdW  Elec       q    Type
REMARK                         _______ _______ _______ _____ _____    ______ ____
ROOT
ATOM      1  C   UNL     1      47.911   7.341  13.362  0.00  0.00    +0.000 C 
ENDROOT
BRANCH   1   2
ATOM      2  C   UNL     1      47.012   6.242  12.854  0.00  0.00    +0.000 A 
ATOM      3  C   UNL     1      46.432   6.339  11.587  0.00  0.00    +0.000 A 
ATOM      4  C   UNL     1      45.550   5.357  11.129  0.00  0.00    +0.000 A 
ATOM      5  C   UNL     1      45.214   4.252  11.924  0.00  0.00    +0.000 A 
ATOM      6  C   UNL     1      45.814   4.147  13.187  0.00  0.00    +0.000 A 
ATOM      7  C   UNL     1      46.695   5.135  13.651  0.00  0.00    +0.000 A 
BRANCH   5   8
ATOM      8  C   UNL     1      44.223   3.185  11.482  0.00  0.00    +0.000 C 
BRANCH   8   9
ATOM      9  C   UNL     1      44.049   3.058   9.963  0.00  0.00    +0.000 C 
BRANCH   9  10
ATOM     10  N   UNL     1      44.796   1.939   9.402  0.00  0.00    +0.000 N 
ATOM     11  H   UNL     1      45.108   1.239  10.070  0.00  0.00    +0.000 HD
BRANCH  10  12
ATOM     12  C   UNL     1      45.750   2.191   8.406  0.00  0.00    +0.000 A 
ATOM     13  C   UNL     1      45.865   3.410   7.722  0.00  0.00    +0.000 A 
ATOM     14  C   UNL     1      46.770   3.575   6.667  0.00  0.00    +0.000 A 
ATOM     15  C   UNL     1      47.560   2.509   6.254  0.00  0.00    +0.000 A 
ATOM     16  C   UNL     1      47.447   1.282   6.902  0.00  0.00    +0.000 A 
ATOM     17  C   UNL     1      46.549   1.128   7.965  0.00  0.00    +0.000 A 
ENDBRANCH  10  12
ENDBRANCH   9  10
ENDBRANCH   8   9
ENDBRANCH   5   8
ENDBRANCH   1   2
BRANCH   1  20
ATOM     18  C   UNL     1      49.003   7.070  15.548  0.00  0.00    +0.000 C 
ATOM     19  O   UNL     1      50.045   6.703  15.010  0.00  0.00    +0.000 OA
ATOM     20  N   UNL     1      47.902   7.398  14.804  0.00  0.00    +0.000 N 
ATOM     21  H   UNL     1      47.035   7.650  15.259  0.00  0.00    +0.000 HD
BRANCH  18  29
ATOM     22  C   UNL     1      48.961   4.749  18.095  0.00  0.00    +0.000 A 
ATOM     23  N   UNL     1      48.928   4.073  19.261  0.00  0.00    +0.000 NA
ATOM     24  C   UNL     1      48.801   4.773  20.392  0.00  0.00    +0.000 A 
ATOM     25  N   UNL     1      48.698   6.094  20.506  0.00  0.00    +0.000 NA
ATOM     26  C   UNL     1      48.741   6.729  19.319  0.00  0.00    +0.000 A 
ATOM     27  S   UNL     1      48.621   8.419  19.275  0.00  0.00    +0.000 S 
ATOM     28  C   UNL     1      48.748   8.432  17.580  0.00  0.00    +0.000 A 
ATOM     29  C   UNL     1      48.892   7.169  17.015  0.00  0.00    +0.000 A 
ATOM     30  C   UNL     1      48.881   6.152  18.060  0.00  0.00    +0.000 A 
BRANCH  22  32
ATOM     31  C   UNL     1      47.926   3.300  16.593  0.00  0.00    +0.000 C 
ATOM     32  O   UNL     1      49.112   4.018  16.934  0.00  0.00    +0.000 OA
ENDBRANCH  22  32
ENDBRANCH  18  29
ENDBRANCH   1  20
TORSDOF 8
ENDMDL
MODEL 2
REMARK VINA RESULT:    -7.644      1.680      2.653
REMARK INTER + INTRA:         -12.457
REMARK INTER:                 -11.189
REMARK INTRA:                  -1.268
REMARK UNBOUND:                -1.238
REMARK  Name = 
REMARK  9 active torsions:
REMARK  status: ('A' for Active; 'I' for Inactive)
REMARK    1  A    between atoms: C_1  and  O_2
REMARK    2  A    between atoms: O_2  and  C_3
REMARK    3  A    between atoms: C_10  and  C_11
REMARK    4  A    between atoms: N_13  and  C_14
REMARK    5  A    between atoms: C_14  and  C_15
REMARK    6  A    between atoms: C_18  and  C_19
REMARK    7  A    between atoms: C_19  and  C_20
REMARK    8  A    between atoms: C_20  and  N_21
REMARK    9  A    between atoms: N_21  and  C_22
REMARK                            x       y       z     vdW  Elec       q    Type
REMARK                         _______ _______ _______ _____ _____    ______ ____
ROOT
ATOM      1  C   UNL     1      48.302   6.610  14.015  0.00  0.00    +0.000 C 
ENDROOT
BRANCH   1   2
ATOM      2  C   UNL     1      47.142   5.999  13.273  0.00  0.00    +0.000 A 
ATOM      3  C   UNL     1      46.514   6.707  12.245  0.00  0.00    +0.000 A 
ATOM      4  C   UNL     1      45.400   6.177  11.590  0.00  0.00    +0.000 A 
ATOM      5  C   UNL     1      44.873   4.927  11.944  0.00  0.00    +0.000 A 
ATOM      6  C   UNL     1      45.518   4.209  12.962  0.00  0.00    +0.000 A 
ATOM      7  C   UNL     1      46.633   4.742  13.625  0.00  0.00    +0.000 A 
BRANCH   5   8
ATOM      8  C   UNL     1      43.635   4.334  11.288  0.00  0.00    +0.000 C 
BRANCH   8   9
ATOM      9  C   UNL     1      43.917   3.215  10.276  0.00  0.00    +0.000 C 
BRANCH   9  10
ATOM     10  N   UNL     1      44.415   3.719   9.003  0.00  0.00    +0.000 N 
ATOM     11  H   UNL     1      43.707   4.051   8.353  0.00  0.00    +0.000 HD
BRANCH  10  12
ATOM     12  C   UNL     1      45.453   3.030   8.359  0.00  0.00    +0.000 A 
ATOM     13  C   UNL     1      46.272   3.594   7.370  0.00  0.00    +0.000 A 
ATOM     14  C   UNL     1      47.228   2.831   6.689  0.00  0.00    +0.000 A 
ATOM     15  C   UNL     1      47.364   1.476   6.967  0.00  0.00    +0.000 A 
ATOM     16  C   UNL     1      46.547   0.888   7.929  0.00  0.00    +0.000 A 
ATOM     17  C   UNL     1      45.602   1.660   8.614  0.00  0.00    +0.000 A 
ENDBRANCH  10  12
ENDBRANCH   9  10
ENDBRANCH   8   9
ENDBRANCH   5   8
ENDBRANCH   1   2
BRANCH   1  20
ATOM     18  C   UNL     1      48.918   6.363  16.383  0.00  0.00    +0.000 C 
ATOM     19  O   UNL     1      50.014   5.900  16.075  0.00  0.00    +0.000 OA
ATOM     20  N   UNL     1      48.014   6.733  15.425  0.00  0.00    +0.000 N 
ATOM     21  H   UNL     1      47.097   7.066  15.689  0.00  0.00    +0.000 HD
BRANCH  18  29
ATOM     22  C   UNL     1      47.780   9.041  18.229  0.00  0.00    +0.000 A 
ATOM     23  N   UNL     1      47.321   9.897  19.165  0.00  0.00    +0.000 NA
ATOM     24  C   UNL     1      47.140   9.435  20.406  0.00  0.00    +0.000 A 
ATOM     25  N   UNL     1      47.368   8.199  20.839  0.00  0.00    +0.000 NA
ATOM     26  C   UNL     1      47.819   7.377  19.872  0.00  0.00    +0.000 A 
ATOM     27  S   UNL     1      48.165   5.761  20.246  0.00  0.00    +0.000 S 
ATOM     28  C   UNL     1      48.632   5.439  18.644  0.00  0.00    +0.000 A 
ATOM     29  C   UNL     1      48.529   6.536  17.794  0.00  0.00    +0.000 A 
ATOM     30  C   UNL     1      48.048   7.696  18.536  0.00  0.00    +0.000 A 
BRANCH  22  32
ATOM     31  C   UNL     1      49.236  10.099  16.750  0.00  0.00    +0.000 C 
ATOM     32  O   UNL     1      47.945   9.523  16.946  0.00  0.00    +0.000 OA
ENDBRANCH  22  32
ENDBRANCH  18  29
ENDBRANCH   1  20
TORSDOF 8
ENDMDL
MODEL 3
REMARK VINA RESULT:    -7.482      1.585      3.028
REMARK INTER + INTRA:         -12.219
REMARK INTER:                 -10.900
REMARK INTRA:                  -1.319
REMARK UNBOUND:                -1.238
REMARK  Name = 
REMARK  9 active torsions:
REMARK  status: ('A' for Active; 'I' for Inactive)
REMARK    1  A    between atoms: C_1  and  O_2
REMARK    2  A    between atoms: O_2  and  C_3
REMARK    3  A    between atoms: C_10  and  C_11
REMARK    4  A    between atoms: N_13  and  C_14
REMARK    5  A    between atoms: C_14  and  C_15
REMARK    6  A    between atoms: C_18  and  C_19
REMARK    7  A    between atoms: C_19  and  C_20
REMARK    8  A    between atoms: C_20  and  N_21
REMARK    9  A    between atoms: N_21  and  C_22
REMARK                            x       y       z     vdW  Elec       q    Type
REMARK                         _______ _______ _______ _____ _____    ______ ____
ROOT
ATOM      1  C   UNL     1      47.525   3.869  15.367  0.00  0.00    +0.000 C 
ENDROOT
BRANCH   1   2
ATOM      2  C   UNL     1      46.862   4.274  14.075  0.00  0.00    +0.000 A 
ATOM      3  C   UNL     1      46.909   5.604  13.649  0.00  0.00    +0.000 A 
ATOM      4  C   UNL     1      46.248   6.003  12.485  0.00  0.00    +0.000 A 
ATOM      5  C   UNL     1      45.515   5.090  11.713  0.00  0.00    +0.000 A 
ATOM      6  C   UNL     1      45.489   3.752  12.132  0.00  0.00    +0.000 A 
ATOM      7  C   UNL     1      46.146   3.350  13.304  0.00  0.00    +0.000 A 
BRANCH   5   8
ATOM      8  C   UNL     1      44.744   5.492  10.464  0.00  0.00    +0.000 C 
BRANCH   8   9
ATOM      9  C   UNL     1      43.941   4.358   9.812  0.00  0.00    +0.000 C 
BRANCH   9  10
ATOM     10  N   UNL     1      44.258   4.183   8.401  0.00  0.00    +0.000 N 
ATOM     11  H   UNL     1      43.460   4.077   7.780  0.00  0.00    +0.000 HD
BRANCH  10  12
ATOM     12  C   UNL     1      45.328   3.350   8.044  0.00  0.00    +0.000 A 
ATOM     13  C   UNL     1      46.325   3.707   7.124  0.00  0.00    +0.000 A 
ATOM     14  C   UNL     1      47.315   2.800   6.729  0.00  0.00    +0.000 A 
ATOM     15  C   UNL     1      47.311   1.503   7.228  0.00  0.00    +0.000 A 
ATOM     16  C   UNL     1      46.318   1.118   8.125  0.00  0.00    +0.000 A 
ATOM     17  C   UNL     1      45.338   2.034   8.525  0.00  0.00    +0.000 A 
ENDBRANCH  10  12
ENDBRANCH   9  10
ENDBRANCH   8   9
ENDBRANCH   5   8
ENDBRANCH   1   2
BRANCH   1  20
ATOM     18  C   UNL     1      48.623   5.231  17.095  0.00  0.00    +0.000 C 
ATOM     19  O   UNL     1      49.640   4.545  17.024  0.00  0.00    +0.000 OA
ATOM     20  N   UNL     1      47.532   4.959  16.314  0.00  0.00    +0.000 N 
ATOM     21  H   UNL     1      46.684   5.499  16.416  0.00  0.00    +0.000 HD
BRANCH  18  29
ATOM     22  C   UNL     1      48.407   8.644  16.666  0.00  0.00    +0.000 A 
ATOM     23  N   UNL     1      48.307   9.983  16.785  0.00  0.00    +0.000 NA
ATOM     24  C   UNL     1      48.254  10.504  18.015  0.00  0.00    +0.000 A 
ATOM     25  N   UNL     1      48.292   9.839  19.165  0.00  0.00    +0.000 NA
ATOM     26  C   UNL     1      48.386   8.506  19.000  0.00  0.00    +0.000 A 
ATOM     27  S   UNL     1      48.449   7.500  20.362  0.00  0.00    +0.000 S 
ATOM     28  C   UNL     1      48.551   6.109  19.391  0.00  0.00    +0.000 A 
ATOM     29  C   UNL     1      48.531   6.371  18.025  0.00  0.00    +0.000 A 
ATOM     30  C   UNL     1      48.439   7.809  17.796  0.00  0.00    +0.000 A 
BRANCH  22  32
ATOM     31  C   UNL     1      48.713   9.108  14.404  0.00  0.00    +0.000 C 
ATOM     32  O   UNL     1      48.441   8.115  15.391  0.00  0.00    +0.000 OA
ENDBRANCH  22  32
ENDBRANCH  18  29
ENDBRANCH   1  20
TORSDOF 8
ENDMDL
MODEL 4
REMARK VINA RESULT:    -7.199      1.987      3.649
REMARK INTER + INTRA:         -11.804
REMARK INTER:                 -10.523
REMARK INTRA:                  -1.281
REMARK UNBOUND:                -1.238
REMARK  Name = 
REMARK  9 active torsions:
REMARK  status: ('A' for Active; 'I' for Inactive)
REMARK    1  A    between atoms: C_1  and  O_2
REMARK    2  A    between atoms: O_2  and  C_3
REMARK    3  A    between atoms: C_10  and  C_11
REMARK    4  A    between atoms: N_13  and  C_14
REMARK    5  A    between atoms: C_14  and  C_15
REMARK    6  A    between atoms: C_18  and  C_19
REMARK    7  A    between atoms: C_19  and  C_20
REMARK    8  A    between atoms: C_20  and  N_21
REMARK    9  A    between atoms: N_21  and  C_22
REMARK                            x       y       z     vdW  Elec       q    Type
REMARK                         _______ _______ _______ _____ _____    ______ ____
ROOT
ATOM      1  C   UNL     1      47.299   4.534  15.114  0.00  0.00    +0.000 C 
ENDROOT
BRANCH   1   2
ATOM      2  C   UNL     1      46.407   4.496  13.900  0.00  0.00    +0.000 A 
ATOM      3  C   UNL     1      45.773   5.660  13.457  0.00  0.00    +0.000 A 
ATOM      4  C   UNL     1      44.897   5.626  12.370  0.00  0.00    +0.000 A 
ATOM      5  C   UNL     1      44.621   4.428  11.694  0.00  0.00    +0.000 A 
ATOM      6  C   UNL     1      45.275   3.266  12.127  0.00  0.00    +0.000 A 
ATOM      7  C   UNL     1      46.150   3.297  13.223  0.00  0.00    +0.000 A 
BRANCH   5   8
ATOM      8  C   UNL     1      43.639   4.339  10.534  0.00  0.00    +0.000 C 
BRANCH   8   9
ATOM      9  C   UNL     1      44.289   4.195   9.151  0.00  0.00    +0.000 C 
BRANCH   9  10
ATOM     10  N   UNL     1      44.548   2.807   8.792  0.00  0.00    +0.000 N 
ATOM     11  H   UNL     1      44.461   2.133   9.548  0.00  0.00    +0.000 HD
BRANCH  10  12
ATOM     12  C   UNL     1      45.619   2.516   7.936  0.00  0.00    +0.000 A 
ATOM     13  C   UNL     1      46.391   1.348   8.016  0.00  0.00    +0.000 A 
ATOM     14  C   UNL     1      47.512   1.153   7.201  0.00  0.00    +0.000 A 
ATOM     15  C   UNL     1      47.900   2.142   6.304  0.00  0.00    +0.000 A 
ATOM     16  C   UNL     1      47.164   3.320   6.222  0.00  0.00    +0.000 A 
ATOM     17  C   UNL     1      46.037   3.502   7.032  0.00  0.00    +0.000 A 
ENDBRANCH  10  12
ENDBRANCH   9  10
ENDBRANCH   8   9
ENDBRANCH   5   8
ENDBRANCH   1   2
BRANCH   1  20
ATOM     18  C   UNL     1      48.837   6.174  16.109  0.00  0.00    +0.000 C 
ATOM     19  O   UNL     1      49.601   5.279  16.465  0.00  0.00    +0.000 OA
ATOM     20  N   UNL     1      47.677   5.889  15.441  0.00  0.00    +0.000 N 
ATOM     21  H   UNL     1      47.033   6.628  15.198  0.00  0.00    +0.000 HD
BRANCH  18  29
ATOM     22  C   UNL     1      48.738   9.049  14.211  0.00  0.00    +0.000 A 
ATOM     23  N   UNL     1      48.779  10.302  13.714  0.00  0.00    +0.000 NA
ATOM     24  C   UNL     1      49.166  11.290  14.526  0.00  0.00    +0.000 A 
ATOM     25  N   UNL     1      49.528  11.180  15.800  0.00  0.00    +0.000 NA
ATOM     26  C   UNL     1      49.468   9.915  16.257  0.00  0.00    +0.000 A 
ATOM     27  S   UNL     1      49.897   9.588  17.864  0.00  0.00    +0.000 S 
ATOM     28  C   UNL     1      49.579   7.931  17.663  0.00  0.00    +0.000 A 
ATOM     29  C   UNL     1      49.135   7.591  16.389  0.00  0.00    +0.000 A 
ATOM     30  C   UNL     1      49.076   8.782  15.549  0.00  0.00    +0.000 A 
BRANCH  22  32
ATOM     31  C   UNL     1      49.403   7.451  12.652  0.00  0.00    +0.000 C 
ATOM     32  O   UNL     1      48.318   8.039  13.370  0.00  0.00    +0.000 OA
ENDBRANCH  22  32
ENDBRANCH  18  29
ENDBRANCH   1  20
TORSDOF 8
ENDMDL
MODEL 5
REMARK VINA RESULT:    -7.079      1.447      2.212
REMARK INTER + INTRA:         -11.628
REMARK INTER:                 -10.577
REMARK INTRA:                  -1.052
REMARK UNBOUND:                -1.238
REMARK  Name = 
REMARK  9 active torsions:
REMARK  status: ('A' for Active; 'I' for Inactive)
REMARK    1  A    between atoms: C_1  and  O_2
REMARK    2  A    between atoms: O_2  and  C_3
REMARK    3  A    between atoms: C_10  and  C_11
REMARK    4  A    between atoms: N_13  and  C_14
REMARK    5  A    between atoms: C_14  and  C_15
REMARK    6  A    between atoms: C_18  and  C_19
REMARK    7  A    between atoms: C_19  and  C_20
REMARK    8  A    between atoms: C_20  and  N_21
REMARK    9  A    between atoms: N_21  and  C_22
REMARK                            x       y       z     vdW  Elec       q    Type
REMARK                         _______ _______ _______ _____ _____    ______ ____
ROOT
ATOM      1  C   UNL     1      47.839   4.599  14.954  0.00  0.00    +0.000 C 
ENDROOT
BRANCH   1   2
ATOM      2  C   UNL     1      46.858   4.751  13.820  0.00  0.00    +0.000 A 
ATOM      3  C   UNL     1      46.534   6.023  13.339  0.00  0.00    +0.000 A 
ATOM      4  C   UNL     1      45.582   6.182  12.329  0.00  0.00    +0.000 A 
ATOM      5  C   UNL     1      44.918   5.078  11.772  0.00  0.00    +0.000 A 
ATOM      6  C   UNL     1      45.261   3.803  12.243  0.00  0.00    +0.000 A 
ATOM      7  C   UNL     1      46.213   3.641  13.261  0.00  0.00    +0.000 A 
BRANCH   5   8
ATOM      8  C   UNL     1      43.842   5.210  10.704  0.00  0.00    +0.000 C 
BRANCH   8   9
ATOM      9  C   UNL     1      43.861   4.111   9.633  0.00  0.00    +0.000 C 
BRANCH   9  10
ATOM     10  N   UNL     1      44.785   4.402   8.545  0.00  0.00    +0.000 N 
ATOM     11  H   UNL     1      44.423   5.002   7.808  0.00  0.00    +0.000 HD
BRANCH  10  12
ATOM     12  C   UNL     1      45.593   3.370   8.047  0.00  0.00    +0.000 A 
ATOM     13  C   UNL     1      45.521   2.039   8.482  0.00  0.00    +0.000 A 
ATOM     14  C   UNL     1      46.419   1.069   8.023  0.00  0.00    +0.000 A 
ATOM     15  C   UNL     1      47.431   1.420   7.136  0.00  0.00    +0.000 A 
ATOM     16  C   UNL     1      47.537   2.740   6.707  0.00  0.00    +0.000 A 
ATOM     17  C   UNL     1      46.628   3.702   7.162  0.00  0.00    +0.000 A 
ENDBRANCH  10  12
ENDBRANCH   9  10
ENDBRANCH   8   9
ENDBRANCH   5   8
ENDBRANCH   1   2
BRANCH   1  20
ATOM     18  C   UNL     1      48.815   6.530  16.120  0.00  0.00    +0.000 C 
ATOM     19  O   UNL     1      49.898   6.348  15.569  0.00  0.00    +0.000 OA
ATOM     20  N   UNL     1      47.750   5.707  15.874  0.00  0.00    +0.000 N 
ATOM     21  H   UNL     1      46.879   5.837  16.371  0.00  0.00    +0.000 HD
BRANCH  18  29
ATOM     22  C   UNL     1      48.577   6.707  19.554  0.00  0.00    +0.000 A 
ATOM     23  N   UNL     1      48.462   7.059  20.851  0.00  0.00    +0.000 NA
ATOM     24  C   UNL     1      48.280   8.351  21.139  0.00  0.00    +0.000 A 
ATOM     25  N   UNL     1      48.195   9.357  20.274  0.00  0.00    +0.000 NA
ATOM     26  C   UNL     1      48.321   8.962  18.993  0.00  0.00    +0.000 A 
ATOM     27  S   UNL     1      48.235  10.115  17.754  0.00  0.00    +0.000 S 
ATOM     28  C   UNL     1      48.464   8.924  16.563  0.00  0.00    +0.000 A 
ATOM     29  C   UNL     1      48.618   7.639  17.072  0.00  0.00    +0.000 A 
ATOM     30  C   UNL     1      48.525   7.666  18.528  0.00  0.00    +0.000 A 
BRANCH  22  32
ATOM     31  C   UNL     1      48.753   4.560  20.441  0.00  0.00    +0.000 C 
ATOM     32  O   UNL     1      48.784   5.372  19.268  0.00  0.00    +0.000 OA
ENDBRANCH  22  32
ENDBRANCH  18  29
ENDBRANCH   1  20
TORSDOF 8
ENDMDL
MODEL 6
REMARK VINA RESULT:    -6.928      3.308      5.278
REMARK INTER + INTRA:         -11.406
REMARK INTER:                  -9.578
REMARK INTRA:                  -1.828
REMARK UNBOUND:                -1.238
REMARK  Name = 
REMARK  9 active torsions:
REMARK  status: ('A' for Active; 'I' for Inactive)
REMARK    1  A    between atoms: C_1  and  O_2
REMARK    2  A    between atoms: O_2  and  C_3
REMARK    3  A    between atoms: C_10  and  C_11
REMARK    4  A    between atoms: N_13  and  C_14
REMARK    5  A    between atoms: C_14  and  C_15
REMARK    6  A    between atoms: C_18  and  C_19
REMARK    7  A    between atoms: C_19  and  C_20
REMARK    8  A    between atoms: C_20  and  N_21
REMARK    9  A    between atoms: N_21  and  C_22
REMARK                            x       y       z     vdW  Elec       q    Type
REMARK                         _______ _______ _______ _____ _____    ______ ____
ROOT
ATOM      1  C   UNL     1      47.738   3.561  17.224  0.00  0.00    +0.000 C 
ENDROOT
BRANCH   1   2
ATOM      2  C   UNL     1      47.603   4.366  15.958  0.00  0.00    +0.000 A 
ATOM      3  C   UNL     1      46.953   3.823  14.846  0.00  0.00    +0.000 A 
ATOM      4  C   UNL     1      46.874   4.536  13.647  0.00  0.00    +0.000 A 
ATOM      5  C   UNL     1      47.446   5.810  13.518  0.00  0.00    +0.000 A 
ATOM      6  C   UNL     1      48.079   6.360  14.641  0.00  0.00    +0.000 A 
ATOM      7  C   UNL     1      48.165   5.643  15.844  0.00  0.00    +0.000 A 
BRANCH   5   8
ATOM      8  C   UNL     1      47.423   6.600  12.218  0.00  0.00    +0.000 C 
BRANCH   8   9
ATOM      9  C   UNL     1      46.131   7.390  11.968  0.00  0.00    +0.000 C 
BRANCH   9  10
ATOM     10  N   UNL     1      45.289   6.784  10.945  0.00  0.00    +0.000 N 
ATOM     11  H   UNL     1      44.735   7.431  10.390  0.00  0.00    +0.000 HD
BRANCH  10  12
ATOM     12  C   UNL     1      44.590   5.607  11.250  0.00  0.00    +0.000 A 
ATOM     13  C   UNL     1      43.757   5.458  12.368  0.00  0.00    +0.000 A 
ATOM     14  C   UNL     1      43.162   4.230  12.679  0.00  0.00    +0.000 A 
ATOM     15  C   UNL     1      43.413   3.114  11.889  0.00  0.00    +0.000 A 
ATOM     16  C   UNL     1      44.255   3.231  10.786  0.00  0.00    +0.000 A 
ATOM     17  C   UNL     1      44.837   4.466  10.475  0.00  0.00    +0.000 A 
ENDBRANCH  10  12
ENDBRANCH   9  10
ENDBRANCH   8   9
ENDBRANCH   5   8
ENDBRANCH   1   2
BRANCH   1  20
ATOM     18  C   UNL     1      49.888   2.390  16.990  0.00  0.00    +0.000 C 
ATOM     19  O   UNL     1      49.412   1.633  16.147  0.00  0.00    +0.000 OA
ATOM     20  N   UNL     1      49.125   3.366  17.574  0.00  0.00    +0.000 N 
ATOM     21  H   UNL     1      49.513   3.950  18.301  0.00  0.00    +0.000 HD
BRANCH  18  29
ATOM     22  C   UNL     1      52.358   4.694  17.677  0.00  0.00    +0.000 A 
ATOM     23  N   UNL     1      53.482   5.362  18.008  0.00  0.00    +0.000 NA
ATOM     24  C   UNL     1      54.563   4.650  18.342  0.00  0.00    +0.000 A 
ATOM     25  N   UNL     1      54.664   3.325  18.384  0.00  0.00    +0.000 NA
ATOM     26  C   UNL     1      53.519   2.699  18.052  0.00  0.00    +0.000 A 
ATOM     27  S   UNL     1      53.467   1.005  18.051  0.00  0.00    +0.000 S 
ATOM     28  C   UNL     1      51.836   1.007  17.572  0.00  0.00    +0.000 A 
ATOM     29  C   UNL     1      51.296   2.279  17.412  0.00  0.00    +0.000 A 
ATOM     30  C   UNL     1      52.310   3.289  17.695  0.00  0.00    +0.000 A 
BRANCH  22  32
ATOM     31  C   UNL     1      50.930   6.404  18.357  0.00  0.00    +0.000 C 
ATOM     32  O   UNL     1      51.242   5.438  17.353  0.00  0.00    +0.000 OA
ENDBRANCH  22  32
ENDBRANCH  18  29
ENDBRANCH   1  20
TORSDOF 8
ENDMDL
MODEL 7
REMARK VINA RESULT:    -6.886      2.269      2.769
REMARK INTER + INTRA:         -11.345
REMARK INTER:                 -10.042
REMARK INTRA:                  -1.303
REMARK UNBOUND:                -1.238
REMARK  Name = 
REMARK  9 active torsions:
REMARK  status: ('A' for Active; 'I' for Inactive)
REMARK    1  A    between atoms: C_1  and  O_2
REMARK    2  A    between atoms: O_2  and  C_3
REMARK    3  A    between atoms: C_10  and  C_11
REMARK    4  A    between atoms: N_13  and  C_14
REMARK    5  A    between atoms: C_14  and  C_15
REMARK    6  A    between atoms: C_18  and  C_19
REMARK    7  A    between atoms: C_19  and  C_20
REMARK    8  A    between atoms: C_20  and  N_21
REMARK    9  A    between atoms: N_21  and  C_22
REMARK                            x       y       z     vdW  Elec       q    Type
REMARK                         _______ _______ _______ _____ _____    ______ ____
ROOT
ATOM      1  C   UNL     1      49.213   8.440  13.786  0.00  0.00    +0.000 C 
ENDROOT
BRANCH   1   2
ATOM      2  C   UNL     1      47.930   8.026  13.112  0.00  0.00    +0.000 A 
ATOM      3  C   UNL     1      46.752   8.739  13.347  0.00  0.00    +0.000 A 
ATOM      4  C   UNL     1      45.544   8.330  12.776  0.00  0.00    +0.000 A 
ATOM      5  C   UNL     1      45.473   7.193  11.958  0.00  0.00    +0.000 A 
ATOM      6  C   UNL     1      46.661   6.492  11.708  0.00  0.00    +0.000 A 
ATOM      7  C   UNL     1      47.874   6.897  12.285  0.00  0.00    +0.000 A 
BRANCH   5   8
ATOM      8  C   UNL     1      44.171   6.686  11.355  0.00  0.00    +0.000 C 
BRANCH   8   9
ATOM      9  C   UNL     1      44.092   5.163  11.182  0.00  0.00    +0.000 C 
BRANCH   9  10
ATOM     10  N   UNL     1      43.845   4.765   9.802  0.00  0.00    +0.000 N 
ATOM     11  H   UNL     1      42.889   4.494   9.587  0.00  0.00    +0.000 HD
BRANCH  10  12
ATOM     12  C   UNL     1      44.790   3.963   9.147  0.00  0.00    +0.000 A 
ATOM     13  C   UNL     1      45.714   4.448   8.210  0.00  0.00    +0.000 A 
ATOM     14  C   UNL     1      46.568   3.587   7.512  0.00  0.00    +0.000 A 
ATOM     15  C   UNL     1      46.495   2.214   7.718  0.00  0.00    +0.000 A 
ATOM     16  C   UNL     1      45.570   1.707   8.627  0.00  0.00    +0.000 A 
ATOM     17  C   UNL     1      44.727   2.575   9.330  0.00  0.00    +0.000 A 
ENDBRANCH  10  12
ENDBRANCH   9  10
ENDBRANCH   8   9
ENDBRANCH   5   8
ENDBRANCH   1   2
BRANCH   1  20
ATOM     18  C   UNL     1      50.599   7.636  15.651  0.00  0.00    +0.000 C 
ATOM     19  O   UNL     1      50.992   8.777  15.883  0.00  0.00    +0.000 OA
ATOM     20  N   UNL     1      49.724   7.385  14.629  0.00  0.00    +0.000 N 
ATOM     21  H   UNL     1      49.447   6.437  14.416  0.00  0.00    +0.000 HD
BRANCH  18  29
ATOM     22  C   UNL     1      49.152   4.648  16.577  0.00  0.00    +0.000 A 
ATOM     23  N   UNL     1      48.840   3.431  17.067  0.00  0.00    +0.000 NA
ATOM     24  C   UNL     1      49.752   2.798  17.811  0.00  0.00    +0.000 A 
ATOM     25  N   UNL     1      50.963   3.241  18.137  0.00  0.00    +0.000 NA
ATOM     26  C   UNL     1      51.235   4.456  17.623  0.00  0.00    +0.000 A 
ATOM     27  S   UNL     1      52.736   5.176  17.940  0.00  0.00    +0.000 S 
ATOM     28  C   UNL     1      52.325   6.549  17.026  0.00  0.00    +0.000 A 
ATOM     29  C   UNL     1      51.056   6.490  16.458  0.00  0.00    +0.000 A 
ATOM     30  C   UNL     1      50.405   5.237  16.824  0.00  0.00    +0.000 A 
BRANCH  22  32
ATOM     31  C   UNL     1      47.268   4.370  15.237  0.00  0.00    +0.000 C 
ATOM     32  O   UNL     1      48.211   5.285  15.794  0.00  0.00    +0.000 OA
ENDBRANCH  22  32
ENDBRANCH  18  29
ENDBRANCH   1  20
TORSDOF 8
ENDMDL
MODEL 8
REMARK VINA RESULT:    -6.657      3.660      8.818
REMARK INTER + INTRA:         -11.008
REMARK INTER:                  -8.945
REMARK INTRA:                  -2.063
REMARK UNBOUND:                -1.238
REMARK  Name = 
REMARK  9 active torsions:
REMARK  status: ('A' for Active; 'I' for Inactive)
REMARK    1  A    between atoms: C_1  and  O_2
REMARK    2  A    between atoms: O_2  and  C_3
REMARK    3  A    between atoms: C_10  and  C_11
REMARK    4  A    between atoms: N_13  and  C_14
REMARK    5  A    between atoms: C_14  and  C_15
REMARK    6  A    between atoms: C_18  and  C_19
REMARK    7  A    between atoms: C_19  and  C_20
REMARK    8  A    between atoms: C_20  and  N_21
REMARK    9  A    between atoms: N_21  and  C_22
REMARK                            x       y       z     vdW  Elec       q    Type
REMARK                         _______ _______ _______ _____ _____    ______ ____
ROOT
ATOM      1  C   UNL     1      47.193   3.364  16.763  0.00  0.00    +0.000 C 
ENDROOT
BRANCH   1   2
ATOM      2  C   UNL     1      48.347   3.811  17.622  0.00  0.00    +0.000 A 
ATOM      3  C   UNL     1      48.132   4.696  18.682  0.00  0.00    +0.000 A 
ATOM      4  C   UNL     1      49.202   5.165  19.449  0.00  0.00    +0.000 A 
ATOM      5  C   UNL     1      50.520   4.771  19.178  0.00  0.00    +0.000 A 
ATOM      6  C   UNL     1      50.730   3.867  18.127  0.00  0.00    +0.000 A 
ATOM      7  C   UNL     1      49.658   3.400  17.352  0.00  0.00    +0.000 A 
BRANCH   5   8
ATOM      8  C   UNL     1      51.718   5.294  19.958  0.00  0.00    +0.000 C 
BRANCH   8   9
ATOM      9  C   UNL     1      51.891   6.818  19.925  0.00  0.00    +0.000 C 
BRANCH   9  10
ATOM     10  N   UNL     1      52.187   7.323  18.591  0.00  0.00    +0.000 N 
ATOM     11  H   UNL     1      52.946   7.998  18.534  0.00  0.00    +0.000 HD
BRANCH  10  12
ATOM     12  C   UNL     1      51.124   7.639  17.733  0.00  0.00    +0.000 A 
ATOM     13  C   UNL     1      50.014   8.407  18.111  0.00  0.00    +0.000 A 
ATOM     14  C   UNL     1      48.933   8.608  17.244  0.00  0.00    +0.000 A 
ATOM     15  C   UNL     1      48.931   8.018  15.986  0.00  0.00    +0.000 A 
ATOM     16  C   UNL     1      50.012   7.233  15.596  0.00  0.00    +0.000 A 
ATOM     17  C   UNL     1      51.094   7.045  16.464  0.00  0.00    +0.000 A 
ENDBRANCH  10  12
ENDBRANCH   9  10
ENDBRANCH   8   9
ENDBRANCH   5   8
ENDBRANCH   1   2
BRANCH   1  20
ATOM     18  C   UNL     1      46.851   4.190  14.473  0.00  0.00    +0.000 C 
ATOM     19  O   UNL     1      47.226   3.118  14.004  0.00  0.00    +0.000 OA
ATOM     20  N   UNL     1      46.811   4.393  15.826  0.00  0.00    +0.000 N 
ATOM     21  H   UNL     1      46.548   5.295  16.198  0.00  0.00    +0.000 HD
BRANCH  18  29
ATOM     22  C   UNL     1      44.004   4.844  12.645  0.00  0.00    +0.000 A 
ATOM     23  N   UNL     1      43.025   5.346  11.864  0.00  0.00    +0.000 NA
ATOM     24  C   UNL     1      43.236   6.523  11.268  0.00  0.00    +0.000 A 
ATOM     25  N   UNL     1      44.328   7.277  11.352  0.00  0.00    +0.000 NA
ATOM     26  C   UNL     1      45.276   6.742  12.145  0.00  0.00    +0.000 A 
ATOM     27  S   UNL     1      46.739   7.568  12.367  0.00  0.00    +0.000 S 
ATOM     28  C   UNL     1      47.327   6.350  13.396  0.00  0.00    +0.000 A 
ATOM     29  C   UNL     1      46.434   5.303  13.601  0.00  0.00    +0.000 A 
ATOM     30  C   UNL     1      45.209   5.540  12.844  0.00  0.00    +0.000 A 
BRANCH  22  32
ATOM     31  C   UNL     1      43.572   2.576  12.339  0.00  0.00    +0.000 C 
ATOM     32  O   UNL     1      43.768   3.638  13.272  0.00  0.00    +0.000 OA
ENDBRANCH  22  32
ENDBRANCH  18  29
ENDBRANCH   1  20
TORSDOF 8
ENDMDL
MODEL 9
REMARK VINA RESULT:    -6.578      3.333      8.254
REMARK INTER + INTRA:         -10.892
REMARK INTER:                  -9.282
REMARK INTRA:                  -1.610
REMARK UNBOUND:                -1.238
REMARK  Name = 
REMARK  9 active torsions:
REMARK  status: ('A' for Active; 'I' for Inactive)
REMARK    1  A    between atoms: C_1  and  O_2
REMARK    2  A    between atoms: O_2  and  C_3
REMARK    3  A    between atoms: C_10  and  C_11
REMARK    4  A    between atoms: N_13  and  C_14
REMARK    5  A    between atoms: C_14  and  C_15
REMARK    6  A    between atoms: C_18  and  C_19
REMARK    7  A    between atoms: C_19  and  C_20
REMARK    8  A    between atoms: C_20  and  N_21
REMARK    9  A    between atoms: N_21  and  C_22
REMARK                            x       y       z     vdW  Elec       q    Type
REMARK                         _______ _______ _______ _____ _____    ______ ____
ROOT
ATOM      1  C   UNL     1      48.567   8.089  12.037  0.00  0.00    +0.000 C 
ENDROOT
BRANCH   1   2
ATOM      2  C   UNL     1      48.662   7.957  13.535  0.00  0.00    +0.000 A 
ATOM      3  C   UNL     1      49.098   6.760  14.108  0.00  0.00    +0.000 A 
ATOM      4  C   UNL     1      49.134   6.605  15.496  0.00  0.00    +0.000 A 
ATOM      5  C   UNL     1      48.730   7.637  16.355  0.00  0.00    +0.000 A 
ATOM      6  C   UNL     1      48.313   8.845  15.777  0.00  0.00    +0.000 A 
ATOM      7  C   UNL     1      48.270   9.000  14.383  0.00  0.00    +0.000 A 
BRANCH   5   8
ATOM      8  C   UNL     1      48.709   7.494  17.870  0.00  0.00    +0.000 C 
BRANCH   8   9
ATOM      9  C   UNL     1      47.865   6.325  18.394  0.00  0.00    +0.000 C 
BRANCH   9  10
ATOM     10  N   UNL     1      48.669   5.287  19.025  0.00  0.00    +0.000 N 
ATOM     11  H   UNL     1      49.339   5.609  19.719  0.00  0.00    +0.000 HD
BRANCH  10  12
ATOM     12  C   UNL     1      49.177   4.247  18.234  0.00  0.00    +0.000 A 
ATOM     13  C   UNL     1      48.377   3.328  17.539  0.00  0.00    +0.000 A 
ATOM     14  C   UNL     1      48.936   2.249  16.845  0.00  0.00    +0.000 A 
ATOM     15  C   UNL     1      50.311   2.051  16.855  0.00  0.00    +0.000 A 
ATOM     16  C   UNL     1      51.125   2.936  17.557  0.00  0.00    +0.000 A 
ATOM     17  C   UNL     1      50.560   4.020  18.239  0.00  0.00    +0.000 A 
ENDBRANCH  10  12
ENDBRANCH   9  10
ENDBRANCH   8   9
ENDBRANCH   5   8
ENDBRANCH   1   2
BRANCH   1  20
ATOM     18  C   UNL     1      46.444   6.980  11.479  0.00  0.00    +0.000 C 
ATOM     19  O   UNL     1      45.803   7.894  11.993  0.00  0.00    +0.000 OA
ATOM     20  N   UNL     1      47.813   6.999  11.464  0.00  0.00    +0.000 N 
ATOM     21  H   UNL     1      48.330   6.219  11.083  0.00  0.00    +0.000 HD
BRANCH  18  29
ATOM     22  C   UNL     1      44.548   4.385  12.723  0.00  0.00    +0.000 A 
ATOM     23  N   UNL     1      43.784   3.293  12.932  0.00  0.00    +0.000 NA
ATOM     24  C   UNL     1      43.448   2.547  11.876  0.00  0.00    +0.000 A 
ATOM     25  N   UNL     1      43.789   2.758  10.609  0.00  0.00    +0.000 NA
ATOM     26  C   UNL     1      44.546   3.860  10.444  0.00  0.00    +0.000 A 
ATOM     27  S   UNL     1      45.075   4.282   8.890  0.00  0.00    +0.000 S 
ATOM     28  C   UNL     1      45.886   5.652   9.486  0.00  0.00    +0.000 A 
ATOM     29  C   UNL     1      45.769   5.824  10.861  0.00  0.00    +0.000 A 
ATOM     30  C   UNL     1      44.970   4.745  11.431  0.00  0.00    +0.000 A 
BRANCH  22  32
ATOM     31  C   UNL     1      46.135   4.796  14.378  0.00  0.00    +0.000 C 
ATOM     32  O   UNL     1      44.873   5.160  13.818  0.00  0.00    +0.000 OA
ENDBRANCH  22  32
ENDBRANCH  18  29
ENDBRANCH   1  20
TORSDOF 8
ENDMDL
