MODEL 1
REMARK VINA RESULT:    -8.668      0.000      0.000
REMARK INTER + INTRA:         -12.098
REMARK INTER:                 -11.708
REMARK INTRA:                  -0.391
REMARK UNBOUND:                -0.391
REMARK  Name = 
REMARK  7 active torsions:
REMARK  status: ('A' for Active; 'I' for Inactive)
REMARK    1  A    between atoms: C_1  and  C_2
REMARK    2  A    between atoms: C_4  and  C_5
REMARK    3  A    between atoms: C_10  and  N_11
REMARK    4  A    between atoms: N_11  and  C_12
REMARK    5  A    between atoms: C_12  and  C_13
REMARK    6  A    between atoms: C_16  and  C_17
REMARK    7  A    between atoms: C_21  and  C_22
REMARK                            x       y       z     vdW  Elec       q    Type
REMARK                         _______ _______ _______ _____ _____    ______ ____
ROOT
ATOM      1  C   UNL     1      45.180   5.188  12.139  0.00  0.00    +0.000 A 
ATOM      2  C   UNL     1      45.750   4.414  13.143  0.00  0.00    +0.000 A 
ATOM      3  C   UNL     1      46.778   4.936  13.927  0.00  0.00    +0.000 A 
ATOM      4  C   UNL     1      47.304   6.236  13.711  0.00  0.00    +0.000 A 
ATOM      5  C   UNL     1      46.769   7.040  12.672  0.00  0.00    +0.000 A 
ATOM      6  C   UNL     1      45.666   6.496  11.957  0.00  0.00    +0.000 A 
ENDROOT
BRANCH   5   7
ATOM      7  C   UNL     1      47.301   8.365  12.212  0.00  0.00    +0.000 A 
ATOM      8  C   UNL     1      48.613   8.468  11.704  0.00  0.00    +0.000 A 
ATOM      9  C   UNL     1      49.151   9.685  11.286  0.00  0.00    +0.000 A 
ATOM     10  C   UNL     1      48.371  10.815  11.406  0.00  0.00    +0.000 A 
ATOM     11  N   UNL     1      47.108  10.788  11.867  0.00  0.00    +0.000 NA
ATOM     12  C   UNL     1      46.608   9.576  12.237  0.00  0.00    +0.000 A 
ENDBRANCH   5   7
BRANCH   4  13
ATOM     13  C   UNL     1      48.409   6.669  14.654  0.00  0.00    +0.000 C 
ATOM     14  F   UNL     1      48.538   5.860  15.748  0.00  0.00    +0.000 F 
ATOM     15  F   UNL     1      49.640   6.693  14.081  0.00  0.00    +0.000 F 
ATOM     16  F   UNL     1      48.191   7.912  15.171  0.00  0.00    +0.000 F 
ENDBRANCH   4  13
BRANCH   1  17
ATOM     17  C   UNL     1      43.992   4.658  11.358  0.00  0.00    +0.000 C 
BRANCH  17  18
ATOM     18  N   UNL     1      44.054   5.036   9.945  0.00  0.00    +0.000 N 
ATOM     19  H   UNL     1      44.378   5.991   9.834  0.00  0.00    +0.000 HD
BRANCH  18  26
ATOM     20  C   UNL     1      43.893   2.153  10.403  0.00  0.00    +0.000 C 
ATOM     21  C   UNL     1      44.790   2.785   9.379  0.00  0.00    +0.000 A 
ATOM     22  C   UNL     1      45.652   1.961   8.632  0.00  0.00    +0.000 A 
ATOM     23  C   UNL     1      46.518   2.507   7.683  0.00  0.00    +0.000 A 
ATOM     24  C   UNL     1      46.463   3.878   7.516  0.00  0.00    +0.000 A 
ATOM     25  N   UNL     1      45.641   4.700   8.214  0.00  0.00    +0.000 NA
ATOM     26  C   UNL     1      44.815   4.169   9.143  0.00  0.00    +0.000 A 
BRANCH  23  27
ATOM     27  C   UNL     1      47.427   1.616   6.928  0.00  0.00    +0.000 C 
ATOM     28  N   UNL     1      48.607   2.112   6.448  0.00  0.00    +0.000 N 
ATOM     29  O   UNL     1      47.139   0.438   6.738  0.00  0.00    +0.000 OA
ATOM     30  H   UNL     1      48.955   3.048   6.572  0.00  0.00    +0.000 HD
ATOM     31  H   UNL     1      49.199   1.455   5.958  0.00  0.00    +0.000 HD
ENDBRANCH  23  27
ENDBRANCH  18  26
ENDBRANCH  17  18
ENDBRANCH   1  17
TORSDOF 6
ENDMDL
MODEL 2
REMARK VINA RESULT:    -8.599      1.940      2.400
REMARK INTER + INTRA:         -12.005
REMARK INTER:                 -11.047
REMARK INTRA:                  -0.959
REMARK UNBOUND:                -0.391
REMARK  Name = 
REMARK  7 active torsions:
REMARK  status: ('A' for Active; 'I' for Inactive)
REMARK    1  A    between atoms: C_1  and  C_2
REMARK    2  A    between atoms: C_4  and  C_5
REMARK    3  A    between atoms: C_10  and  N_11
REMARK    4  A    between atoms: N_11  and  C_12
REMARK    5  A    between atoms: C_12  and  C_13
REMARK    6  A    between atoms: C_16  and  C_17
REMARK    7  A    between atoms: C_21  and  C_22
REMARK                            x       y       z     vdW  Elec       q    Type
REMARK                         _______ _______ _______ _____ _____    ______ ____
ROOT
ATOM      1  C   UNL     1      46.013   5.804  12.012  0.00  0.00    +0.000 A 
ATOM      2  C   UNL     1      45.740   4.554  12.553  0.00  0.00    +0.000 A 
ATOM      3  C   UNL     1      46.289   4.191  13.782  0.00  0.00    +0.000 A 
ATOM      4  C   UNL     1      47.165   5.048  14.498  0.00  0.00    +0.000 A 
ATOM      5  C   UNL     1      47.493   6.317  13.957  0.00  0.00    +0.000 A 
ATOM      6  C   UNL     1      46.841   6.675  12.744  0.00  0.00    +0.000 A 
ENDROOT
BRANCH   5   7
ATOM      7  C   UNL     1      48.510   7.277  14.500  0.00  0.00    +0.000 A 
ATOM      8  C   UNL     1      49.789   7.369  13.911  0.00  0.00    +0.000 A 
ATOM      9  C   UNL     1      50.768   8.233  14.400  0.00  0.00    +0.000 A 
ATOM     10  C   UNL     1      50.468   8.994  15.508  0.00  0.00    +0.000 A 
ATOM     11  N   UNL     1      49.265   8.970  16.110  0.00  0.00    +0.000 NA
ATOM     12  C   UNL     1      48.325   8.135  15.585  0.00  0.00    +0.000 A 
ENDBRANCH   5   7
BRANCH   4  13
ATOM     13  C   UNL     1      47.669   4.521  15.827  0.00  0.00    +0.000 C 
ATOM     14  F   UNL     1      48.867   5.058  16.206  0.00  0.00    +0.000 F 
ATOM     15  F   UNL     1      46.827   4.760  16.865  0.00  0.00    +0.000 F 
ATOM     16  F   UNL     1      47.890   3.176  15.800  0.00  0.00    +0.000 F 
ENDBRANCH   4  13
BRANCH   1  17
ATOM     17  C   UNL     1      45.331   6.237  10.727  0.00  0.00    +0.000 C 
BRANCH  17  18
ATOM     18  N   UNL     1      44.483   5.177  10.175  0.00  0.00    +0.000 N 
ATOM     19  H   UNL     1      43.640   5.560   9.760  0.00  0.00    +0.000 HD
BRANCH  18  26
ATOM     20  C   UNL     1      44.108   2.286  10.390  0.00  0.00    +0.000 C 
ATOM     21  C   UNL     1      45.005   2.937   9.377  0.00  0.00    +0.000 A 
ATOM     22  C   UNL     1      45.760   2.120   8.516  0.00  0.00    +0.000 A 
ATOM     23  C   UNL     1      46.622   2.681   7.573  0.00  0.00    +0.000 A 
ATOM     24  C   UNL     1      46.673   4.060   7.529  0.00  0.00    +0.000 A 
ATOM     25  N   UNL     1      45.954   4.877   8.339  0.00  0.00    +0.000 NA
ATOM     26  C   UNL     1      45.132   4.330   9.262  0.00  0.00    +0.000 A 
BRANCH  23  27
ATOM     27  C   UNL     1      47.419   1.793   6.696  0.00  0.00    +0.000 C 
ATOM     28  N   UNL     1      48.526   2.290   6.067  0.00  0.00    +0.000 N 
ATOM     29  O   UNL     1      47.102   0.618   6.535  0.00  0.00    +0.000 OA
ATOM     30  H   UNL     1      48.892   3.224   6.153  0.00  0.00    +0.000 HD
ATOM     31  H   UNL     1      49.045   1.636   5.497  0.00  0.00    +0.000 HD
ENDBRANCH  23  27
ENDBRANCH  18  26
ENDBRANCH  17  18
ENDBRANCH   1  17
TORSDOF 6
ENDMDL
MODEL 3
REMARK VINA RESULT:    -8.386      2.099      3.016
REMARK INTER + INTRA:         -11.718
REMARK INTER:                 -10.653
REMARK INTRA:                  -1.065
REMARK UNBOUND:                -0.391
REMARK  Name = 
REMARK  7 active torsions:
REMARK  status: ('A' for Active; 'I' for Inactive)
REMARK    1  A    between atoms: C_1  and  C_2
REMARK    2  A    between atoms: C_4  and  C_5
REMARK    3  A    between atoms: C_10  and  N_11
REMARK    4  A    between atoms: N_11  and  C_12
REMARK    5  A    between atoms: C_12  and  C_13
REMARK    6  A    between atoms: C_16  and  C_17
REMARK    7  A    between atoms: C_21  and  C_22
REMARK                            x       y       z     vdW  Elec       q    Type
REMARK                         _______ _______ _______ _____ _____    ______ ____
ROOT
ATOM      1  C   UNL     1      45.523   6.602  11.651  0.00  0.00    +0.000 A 
ATOM      2  C   UNL     1      44.701   7.718  11.553  0.00  0.00    +0.000 A 
ATOM      3  C   UNL     1      45.242   8.997  11.682  0.00  0.00    +0.000 A 
ATOM      4  C   UNL     1      46.618   9.208  11.955  0.00  0.00    +0.000 A 
ATOM      5  C   UNL     1      47.479   8.090  12.097  0.00  0.00    +0.000 A 
ATOM      6  C   UNL     1      46.897   6.811  11.873  0.00  0.00    +0.000 A 
ENDROOT
BRANCH   5   7
ATOM      7  C   UNL     1      48.914   8.125  12.531  0.00  0.00    +0.000 A 
ATOM      8  C   UNL     1      49.259   7.865  13.875  0.00  0.00    +0.000 A 
ATOM      9  C   UNL     1      50.579   7.909  14.322  0.00  0.00    +0.000 A 
ATOM     10  C   UNL     1      51.561   8.243  13.415  0.00  0.00    +0.000 A 
ATOM     11  N   UNL     1      51.307   8.488  12.117  0.00  0.00    +0.000 NA
ATOM     12  C   UNL     1      50.009   8.406  11.712  0.00  0.00    +0.000 A 
ENDBRANCH   5   7
BRANCH   4  13
ATOM     13  C   UNL     1      47.060  10.655  12.052  0.00  0.00    +0.000 C 
ATOM     14  F   UNL     1      47.798  10.923  13.171  0.00  0.00    +0.000 F 
ATOM     15  F   UNL     1      47.831  11.063  11.011  0.00  0.00    +0.000 F 
ATOM     16  F   UNL     1      46.005  11.515  12.123  0.00  0.00    +0.000 F 
ENDBRANCH   4  13
BRANCH   1  17
ATOM     17  C   UNL     1      44.951   5.218  11.406  0.00  0.00    +0.000 C 
BRANCH  17  18
ATOM     18  N   UNL     1      44.342   5.106  10.078  0.00  0.00    +0.000 N 
ATOM     19  H   UNL     1      44.192   6.020   9.664  0.00  0.00    +0.000 HD
BRANCH  18  26
ATOM     20  C   UNL     1      44.036   2.205  10.275  0.00  0.00    +0.000 C 
ATOM     21  C   UNL     1      44.949   2.882   9.294  0.00  0.00    +0.000 A 
ATOM     22  C   UNL     1      45.753   2.087   8.457  0.00  0.00    +0.000 A 
ATOM     23  C   UNL     1      46.632   2.673   7.544  0.00  0.00    +0.000 A 
ATOM     24  C   UNL     1      46.647   4.054   7.504  0.00  0.00    +0.000 A 
ATOM     25  N   UNL     1      45.881   4.849   8.291  0.00  0.00    +0.000 NA
ATOM     26  C   UNL     1      45.043   4.278   9.185  0.00  0.00    +0.000 A 
BRANCH  23  27
ATOM     27  C   UNL     1      47.479   1.809   6.692  0.00  0.00    +0.000 C 
ATOM     28  N   UNL     1      48.607   2.331   6.121  0.00  0.00    +0.000 N 
ATOM     29  O   UNL     1      47.188   0.632   6.502  0.00  0.00    +0.000 OA
ATOM     30  H   UNL     1      48.954   3.268   6.234  0.00  0.00    +0.000 HD
ATOM     31  H   UNL     1      49.160   1.691   5.566  0.00  0.00    +0.000 HD
ENDBRANCH  23  27
ENDBRANCH  18  26
ENDBRANCH  17  18
ENDBRANCH   1  17
TORSDOF 6
ENDMDL
MODEL 4
REMARK VINA RESULT:    -8.228      2.176      3.793
REMARK INTER + INTRA:         -11.505
REMARK INTER:                 -11.232
REMARK INTRA:                  -0.273
REMARK UNBOUND:                -0.391
REMARK  Name = 
REMARK  7 active torsions:
REMARK  status: ('A' for Active; 'I' for Inactive)
REMARK    1  A    between atoms: C_1  and  C_2
REMARK    2  A    between atoms: C_4  and  C_5
REMARK    3  A    between atoms: C_10  and  N_11
REMARK    4  A    between atoms: N_11  and  C_12
REMARK    5  A    between atoms: C_12  and  C_13
REMARK    6  A    between atoms: C_16  and  C_17
REMARK    7  A    between atoms: C_21  and  C_22
REMARK                            x       y       z     vdW  Elec       q    Type
REMARK                         _______ _______ _______ _____ _____    ______ ____
ROOT
ATOM      1  C   UNL     1      45.344   5.274  12.308  0.00  0.00    +0.000 A 
ATOM      2  C   UNL     1      45.894   6.473  11.875  0.00  0.00    +0.000 A 
ATOM      3  C   UNL     1      46.990   7.019  12.542  0.00  0.00    +0.000 A 
ATOM      4  C   UNL     1      47.552   6.408  13.693  0.00  0.00    +0.000 A 
ATOM      5  C   UNL     1      46.992   5.201  14.184  0.00  0.00    +0.000 A 
ATOM      6  C   UNL     1      45.931   4.640  13.419  0.00  0.00    +0.000 A 
ENDROOT
BRANCH   5   7
ATOM      7  C   UNL     1      47.360   4.507  15.461  0.00  0.00    +0.000 A 
ATOM      8  C   UNL     1      47.937   3.219  15.431  0.00  0.00    +0.000 A 
ATOM      9  C   UNL     1      48.273   2.532  16.597  0.00  0.00    +0.000 A 
ATOM     10  C   UNL     1      48.004   3.134  17.806  0.00  0.00    +0.000 A 
ATOM     11  N   UNL     1      47.470   4.365  17.909  0.00  0.00    +0.000 NA
ATOM     12  C   UNL     1      47.183   5.016  16.748  0.00  0.00    +0.000 A 
ENDBRANCH   5   7
BRANCH   4  13
ATOM     13  C   UNL     1      48.750   7.112  14.299  0.00  0.00    +0.000 C 
ATOM     14  F   UNL     1      48.412   8.067  15.215  0.00  0.00    +0.000 F 
ATOM     15  F   UNL     1      49.602   6.279  14.951  0.00  0.00    +0.000 F 
ATOM     16  F   UNL     1      49.487   7.777  13.365  0.00  0.00    +0.000 F 
ENDBRANCH   4  13
BRANCH   1  17
ATOM     17  C   UNL     1      44.220   4.629  11.518  0.00  0.00    +0.000 C 
BRANCH  17  18
ATOM     18  N   UNL     1      44.206   5.076  10.123  0.00  0.00    +0.000 N 
ATOM     19  H   UNL     1      44.502   6.043  10.044  0.00  0.00    +0.000 HD
BRANCH  18  26
ATOM     20  C   UNL     1      43.982   2.167  10.320  0.00  0.00    +0.000 C 
ATOM     21  C   UNL     1      44.893   2.869   9.356  0.00  0.00    +0.000 A 
ATOM     22  C   UNL     1      45.738   2.097   8.537  0.00  0.00    +0.000 A 
ATOM     23  C   UNL     1      46.617   2.707   7.640  0.00  0.00    +0.000 A 
ATOM     24  C   UNL     1      46.592   4.087   7.598  0.00  0.00    +0.000 A 
ATOM     25  N   UNL     1      45.788   4.861   8.368  0.00  0.00    +0.000 NA
ATOM     26  C   UNL     1      44.949   4.267   9.246  0.00  0.00    +0.000 A 
BRANCH  23  27
ATOM     27  C   UNL     1      47.506   1.867   6.808  0.00  0.00    +0.000 C 
ATOM     28  N   UNL     1      48.643   2.413   6.280  0.00  0.00    +0.000 N 
ATOM     29  O   UNL     1      47.242   0.687   6.595  0.00  0.00    +0.000 OA
ATOM     30  H   UNL     1      48.971   3.355   6.415  0.00  0.00    +0.000 HD
ATOM     31  H   UNL     1      49.225   1.790   5.736  0.00  0.00    +0.000 HD
ENDBRANCH  23  27
ENDBRANCH  18  26
ENDBRANCH  17  18
ENDBRANCH   1  17
TORSDOF 6
ENDMDL
MODEL 5
REMARK VINA RESULT:    -7.500      5.431      8.010
REMARK INTER + INTRA:         -10.522
REMARK INTER:                  -9.293
REMARK INTRA:                  -1.229
REMARK UNBOUND:                -0.391
REMARK  Name = 
REMARK  7 active torsions:
REMARK  status: ('A' for Active; 'I' for Inactive)
REMARK    1  A    between atoms: C_1  and  C_2
REMARK    2  A    between atoms: C_4  and  C_5
REMARK    3  A    between atoms: C_10  and  N_11
REMARK    4  A    between atoms: N_11  and  C_12
REMARK    5  A    between atoms: C_12  and  C_13
REMARK    6  A    between atoms: C_16  and  C_17
REMARK    7  A    between atoms: C_21  and  C_22
REMARK                            x       y       z     vdW  Elec       q    Type
REMARK                         _______ _______ _______ _____ _____    ______ ____
ROOT
ATOM      1  C   UNL     1      49.453   6.578  15.810  0.00  0.00    +0.000 A 
ATOM      2  C   UNL     1      50.167   7.447  14.995  0.00  0.00    +0.000 A 
ATOM      3  C   UNL     1      49.708   7.733  13.709  0.00  0.00    +0.000 A 
ATOM      4  C   UNL     1      48.540   7.128  13.175  0.00  0.00    +0.000 A 
ATOM      5  C   UNL     1      47.807   6.208  13.968  0.00  0.00    +0.000 A 
ATOM      6  C   UNL     1      48.268   6.016  15.300  0.00  0.00    +0.000 A 
ENDROOT
BRANCH   5   7
ATOM      7  C   UNL     1      46.649   5.372  13.513  0.00  0.00    +0.000 A 
ATOM      8  C   UNL     1      45.401   5.972  13.240  0.00  0.00    +0.000 A 
ATOM      9  C   UNL     1      44.294   5.226  12.836  0.00  0.00    +0.000 A 
ATOM     10  C   UNL     1      44.435   3.860  12.731  0.00  0.00    +0.000 A 
ATOM     11  N   UNL     1      45.597   3.223  12.961  0.00  0.00    +0.000 NA
ATOM     12  C   UNL     1      46.664   3.989  13.324  0.00  0.00    +0.000 A 
ENDBRANCH   5   7
BRANCH   4  13
ATOM     13  C   UNL     1      48.159   7.550  11.770  0.00  0.00    +0.000 C 
ATOM     14  F   UNL     1      47.525   6.569  11.061  0.00  0.00    +0.000 F 
ATOM     15  F   UNL     1      47.322   8.618  11.727  0.00  0.00    +0.000 F 
ATOM     16  F   UNL     1      49.247   7.872  11.013  0.00  0.00    +0.000 F 
ENDBRANCH   4  13
BRANCH   1  17
ATOM     17  C   UNL     1      49.896   6.351  17.244  0.00  0.00    +0.000 C 
BRANCH  17  18
ATOM     18  N   UNL     1      49.394   5.082  17.777  0.00  0.00    +0.000 N 
ATOM     19  H   UNL     1      48.500   4.839  17.364  0.00  0.00    +0.000 HD
BRANCH  18  26
ATOM     20  C   UNL     1      48.441   2.530  16.715  0.00  0.00    +0.000 C 
ATOM     21  C   UNL     1      49.843   2.759  17.200  0.00  0.00    +0.000 A 
ATOM     22  C   UNL     1      50.743   1.678  17.207  0.00  0.00    +0.000 A 
ATOM     23  C   UNL     1      52.051   1.840  17.668  0.00  0.00    +0.000 A 
ATOM     24  C   UNL     1      52.401   3.107  18.093  0.00  0.00    +0.000 A 
ATOM     25  N   UNL     1      51.561   4.172  18.095  0.00  0.00    +0.000 NA
ATOM     26  C   UNL     1      50.291   4.007  17.662  0.00  0.00    +0.000 A 
BRANCH  23  27
ATOM     27  C   UNL     1      52.967   0.678  17.682  0.00  0.00    +0.000 C 
ATOM     28  N   UNL     1      52.647  -0.420  18.431  0.00  0.00    +0.000 N 
ATOM     29  O   UNL     1      54.002   0.684  17.022  0.00  0.00    +0.000 OA
ATOM     30  H   UNL     1      51.813  -0.544  18.982  0.00  0.00    +0.000 HD
ATOM     31  H   UNL     1      53.297  -1.193  18.388  0.00  0.00    +0.000 HD
ENDBRANCH  23  27
ENDBRANCH  18  26
ENDBRANCH  17  18
ENDBRANCH   1  17
TORSDOF 6
ENDMDL
MODEL 6
REMARK VINA RESULT:    -7.428      5.507      8.252
REMARK INTER + INTRA:         -10.425
REMARK INTER:                  -9.236
REMARK INTRA:                  -1.189
REMARK UNBOUND:                -0.391
REMARK  Name = 
REMARK  7 active torsions:
REMARK  status: ('A' for Active; 'I' for Inactive)
REMARK    1  A    between atoms: C_1  and  C_2
REMARK    2  A    between atoms: C_4  and  C_5
REMARK    3  A    between atoms: C_10  and  N_11
REMARK    4  A    between atoms: N_11  and  C_12
REMARK    5  A    between atoms: C_12  and  C_13
REMARK    6  A    between atoms: C_16  and  C_17
REMARK    7  A    between atoms: C_21  and  C_22
REMARK                            x       y       z     vdW  Elec       q    Type
REMARK                         _______ _______ _______ _____ _____    ______ ____
ROOT
ATOM      1  C   UNL     1      47.910   5.158  15.680  0.00  0.00    +0.000 A 
ATOM      2  C   UNL     1      48.676   6.219  15.213  0.00  0.00    +0.000 A 
ATOM      3  C   UNL     1      48.329   6.860  14.024  0.00  0.00    +0.000 A 
ATOM      4  C   UNL     1      47.228   6.437  13.234  0.00  0.00    +0.000 A 
ATOM      5  C   UNL     1      46.446   5.334  13.663  0.00  0.00    +0.000 A 
ATOM      6  C   UNL     1      46.788   4.769  14.924  0.00  0.00    +0.000 A 
ENDROOT
BRANCH   5   7
ATOM      7  C   UNL     1      45.352   4.666  12.885  0.00  0.00    +0.000 A 
ATOM      8  C   UNL     1      44.034   5.169  12.935  0.00  0.00    +0.000 A 
ATOM      9  C   UNL     1      42.985   4.564  12.244  0.00  0.00    +0.000 A 
ATOM     10  C   UNL     1      43.257   3.427  11.516  0.00  0.00    +0.000 A 
ATOM     11  N   UNL     1      44.492   2.902  11.411  0.00  0.00    +0.000 NA
ATOM     12  C   UNL     1      45.495   3.539  12.076  0.00  0.00    +0.000 A 
ENDBRANCH   5   7
BRANCH   4  13
ATOM     13  C   UNL     1      46.966   7.242  11.977  0.00  0.00    +0.000 C 
ATOM     14  F   UNL     1      46.905   6.478  10.846  0.00  0.00    +0.000 F 
ATOM     15  F   UNL     1      45.798   7.934  12.003  0.00  0.00    +0.000 F 
ATOM     16  F   UNL     1      47.954   8.147  11.726  0.00  0.00    +0.000 F 
ENDBRANCH   4  13
BRANCH   1  17
ATOM     17  C   UNL     1      48.227   4.532  17.025  0.00  0.00    +0.000 C 
BRANCH  17  18
ATOM     18  N   UNL     1      49.580   4.865  17.478  0.00  0.00    +0.000 N 
ATOM     19  H   UNL     1      49.558   5.386  18.348  0.00  0.00    +0.000 HD
BRANCH  18  26
ATOM     20  C   UNL     1      52.167   5.203  18.798  0.00  0.00    +0.000 C 
ATOM     21  C   UNL     1      51.709   3.914  18.181  0.00  0.00    +0.000 A 
ATOM     22  C   UNL     1      52.587   2.815  18.176  0.00  0.00    +0.000 A 
ATOM     23  C   UNL     1      52.211   1.602  17.596  0.00  0.00    +0.000 A 
ATOM     24  C   UNL     1      50.943   1.547  17.052  0.00  0.00    +0.000 A 
ATOM     25  N   UNL     1      50.069   2.585  17.045  0.00  0.00    +0.000 NA
ATOM     26  C   UNL     1      50.443   3.762  17.595  0.00  0.00    +0.000 A 
BRANCH  23  27
ATOM     27  C   UNL     1      53.166   0.472  17.589  0.00  0.00    +0.000 C 
ATOM     28  N   UNL     1      53.047  -0.512  18.530  0.00  0.00    +0.000 N 
ATOM     29  O   UNL     1      54.055   0.403  16.745  0.00  0.00    +0.000 OA
ATOM     30  H   UNL     1      52.340  -0.572  19.245  0.00  0.00    +0.000 HD
ATOM     31  H   UNL     1      53.712  -1.271  18.467  0.00  0.00    +0.000 HD
ENDBRANCH  23  27
ENDBRANCH  18  26
ENDBRANCH  17  18
ENDBRANCH   1  17
TORSDOF 6
ENDMDL
MODEL 7
REMARK VINA RESULT:    -7.367      4.663      6.485
REMARK INTER + INTRA:         -10.341
REMARK INTER:                  -9.130
REMARK INTRA:                  -1.212
REMARK UNBOUND:                -0.391
REMARK  Name = 
REMARK  7 active torsions:
REMARK  status: ('A' for Active; 'I' for Inactive)
REMARK    1  A    between atoms: C_1  and  C_2
REMARK    2  A    between atoms: C_4  and  C_5
REMARK    3  A    between atoms: C_10  and  N_11
REMARK    4  A    between atoms: N_11  and  C_12
REMARK    5  A    between atoms: C_12  and  C_13
REMARK    6  A    between atoms: C_16  and  C_17
REMARK    7  A    between atoms: C_21  and  C_22
REMARK                            x       y       z     vdW  Elec       q    Type
REMARK                         _______ _______ _______ _____ _____    ______ ____
ROOT
ATOM      1  C   UNL     1      48.541   3.835  16.565  0.00  0.00    +0.000 A 
ATOM      2  C   UNL     1      48.929   2.504  16.668  0.00  0.00    +0.000 A 
ATOM      3  C   UNL     1      50.178   2.181  17.195  0.00  0.00    +0.000 A 
ATOM      4  C   UNL     1      51.105   3.176  17.601  0.00  0.00    +0.000 A 
ATOM      5  C   UNL     1      50.756   4.545  17.476  0.00  0.00    +0.000 A 
ATOM      6  C   UNL     1      49.439   4.821  17.013  0.00  0.00    +0.000 A 
ENDROOT
BRANCH   5   7
ATOM      7  C   UNL     1      51.661   5.717  17.713  0.00  0.00    +0.000 A 
ATOM      8  C   UNL     1      52.468   6.216  16.668  0.00  0.00    +0.000 A 
ATOM      9  C   UNL     1      53.338   7.290  16.854  0.00  0.00    +0.000 A 
ATOM     10  C   UNL     1      53.417   7.851  18.109  0.00  0.00    +0.000 A 
ATOM     11  N   UNL     1      52.668   7.437  19.146  0.00  0.00    +0.000 NA
ATOM     12  C   UNL     1      51.808   6.405  18.918  0.00  0.00    +0.000 A 
ENDBRANCH   5   7
BRANCH   4  13
ATOM     13  C   UNL     1      52.416   2.669  18.169  0.00  0.00    +0.000 C 
ATOM     14  F   UNL     1      53.502   3.004  17.410  0.00  0.00    +0.000 F 
ATOM     15  F   UNL     1      52.692   3.139  19.412  0.00  0.00    +0.000 F 
ATOM     16  F   UNL     1      52.456   1.309  18.244  0.00  0.00    +0.000 F 
ENDBRANCH   4  13
BRANCH   1  17
ATOM     17  C   UNL     1      47.141   4.179  16.089  0.00  0.00    +0.000 C 
BRANCH  17  18
ATOM     18  N   UNL     1      47.155   5.226  15.065  0.00  0.00    +0.000 N 
ATOM     19  H   UNL     1      48.098   5.552  14.884  0.00  0.00    +0.000 HD
BRANCH  18  26
ATOM     20  C   UNL     1      46.449   7.314  13.143  0.00  0.00    +0.000 C 
ATOM     21  C   UNL     1      46.134   5.860  12.946  0.00  0.00    +0.000 A 
ATOM     22  C   UNL     1      45.406   5.472  11.807  0.00  0.00    +0.000 A 
ATOM     23  C   UNL     1      45.074   4.133  11.592  0.00  0.00    +0.000 A 
ATOM     24  C   UNL     1      45.511   3.231  12.542  0.00  0.00    +0.000 A 
ATOM     25  N   UNL     1      46.219   3.569  13.649  0.00  0.00    +0.000 NA
ATOM     26  C   UNL     1      46.526   4.869  13.860  0.00  0.00    +0.000 A 
BRANCH  23  27
ATOM     27  C   UNL     1      44.289   3.761  10.394  0.00  0.00    +0.000 C 
ATOM     28  N   UNL     1      44.172   4.654   9.365  0.00  0.00    +0.000 N 
ATOM     29  O   UNL     1      43.753   2.660  10.309  0.00  0.00    +0.000 OA
ATOM     30  H   UNL     1      44.594   5.567   9.316  0.00  0.00    +0.000 HD
ATOM     31  H   UNL     1      43.642   4.341   8.563  0.00  0.00    +0.000 HD
ENDBRANCH  23  27
ENDBRANCH  18  26
ENDBRANCH  17  18
ENDBRANCH   1  17
TORSDOF 6
ENDMDL
MODEL 8
REMARK VINA RESULT:    -7.343      4.662      7.456
REMARK INTER + INTRA:         -10.310
REMARK INTER:                  -9.082
REMARK INTRA:                  -1.228
REMARK UNBOUND:                -0.391
REMARK  Name = 
REMARK  7 active torsions:
REMARK  status: ('A' for Active; 'I' for Inactive)
REMARK    1  A    between atoms: C_1  and  C_2
REMARK    2  A    between atoms: C_4  and  C_5
REMARK    3  A    between atoms: C_10  and  N_11
REMARK    4  A    between atoms: N_11  and  C_12
REMARK    5  A    between atoms: C_12  and  C_13
REMARK    6  A    between atoms: C_16  and  C_17
REMARK    7  A    between atoms: C_21  and  C_22
REMARK                            x       y       z     vdW  Elec       q    Type
REMARK                         _______ _______ _______ _____ _____    ______ ____
ROOT
ATOM      1  C   UNL     1      49.108   6.978  16.375  0.00  0.00    +0.000 A 
ATOM      2  C   UNL     1      48.310   7.390  17.435  0.00  0.00    +0.000 A 
ATOM      3  C   UNL     1      48.311   6.671  18.630  0.00  0.00    +0.000 A 
ATOM      4  C   UNL     1      49.080   5.489  18.797  0.00  0.00    +0.000 A 
ATOM      5  C   UNL     1      49.880   5.022  17.723  0.00  0.00    +0.000 A 
ATOM      6  C   UNL     1      49.910   5.836  16.556  0.00  0.00    +0.000 A 
ENDROOT
BRANCH   5   7
ATOM      7  C   UNL     1      50.630   3.724  17.674  0.00  0.00    +0.000 A 
ATOM      8  C   UNL     1      51.981   3.667  18.075  0.00  0.00    +0.000 A 
ATOM      9  C   UNL     1      52.719   2.485  18.024  0.00  0.00    +0.000 A 
ATOM     10  C   UNL     1      52.099   1.353  17.542  0.00  0.00    +0.000 A 
ATOM     11  N   UNL     1      50.810   1.330  17.158  0.00  0.00    +0.000 NA
ATOM     12  C   UNL     1      50.115   2.498  17.250  0.00  0.00    +0.000 A 
ENDBRANCH   5   7
BRANCH   4  13
ATOM     13  C   UNL     1      48.991   4.827  20.157  0.00  0.00    +0.000 C 
ATOM     14  F   UNL     1      48.496   3.555  20.110  0.00  0.00    +0.000 F 
ATOM     15  F   UNL     1      50.186   4.721  20.793  0.00  0.00    +0.000 F 
ATOM     16  F   UNL     1      48.152   5.491  21.002  0.00  0.00    +0.000 F 
ENDBRANCH   4  13
BRANCH   1  17
ATOM     17  C   UNL     1      49.185   7.821  15.115  0.00  0.00    +0.000 C 
BRANCH  17  18
ATOM     18  N   UNL     1      49.145   6.998  13.904  0.00  0.00    +0.000 N 
ATOM     19  H   UNL     1      49.844   6.263  13.936  0.00  0.00    +0.000 HD
BRANCH  18  26
ATOM     20  C   UNL     1      47.145   8.661  12.570  0.00  0.00    +0.000 C 
ATOM     21  C   UNL     1      46.892   7.251  13.016  0.00  0.00    +0.000 A 
ATOM     22  C   UNL     1      45.606   6.706  12.843  0.00  0.00    +0.000 A 
ATOM     23  C   UNL     1      45.320   5.405  13.261  0.00  0.00    +0.000 A 
ATOM     24  C   UNL     1      46.362   4.697  13.828  0.00  0.00    +0.000 A 
ATOM     25  N   UNL     1      47.613   5.189  14.003  0.00  0.00    +0.000 NA
ATOM     26  C   UNL     1      47.882   6.454  13.611  0.00  0.00    +0.000 A 
BRANCH  23  27
ATOM     27  C   UNL     1      43.952   4.868  13.084  0.00  0.00    +0.000 C 
ATOM     28  N   UNL     1      42.925   5.728  12.807  0.00  0.00    +0.000 N 
ATOM     29  O   UNL     1      43.731   3.664  13.173  0.00  0.00    +0.000 OA
ATOM     30  H   UNL     1      42.998   6.724  12.682  0.00  0.00    +0.000 HD
ATOM     31  H   UNL     1      42.016   5.306  12.675  0.00  0.00    +0.000 HD
ENDBRANCH  23  27
ENDBRANCH  18  26
ENDBRANCH  17  18
ENDBRANCH   1  17
TORSDOF 6
ENDMDL
MODEL 9
REMARK VINA RESULT:    -7.047      4.324      7.801
REMARK INTER + INTRA:          -9.910
REMARK INTER:                  -9.249
REMARK INTRA:                  -0.661
REMARK UNBOUND:                -0.391
REMARK  Name = 
REMARK  7 active torsions:
REMARK  status: ('A' for Active; 'I' for Inactive)
REMARK    1  A    between atoms: C_1  and  C_2
REMARK    2  A    between atoms: C_4  and  C_5
REMARK    3  A    between atoms: C_10  and  N_11
REMARK    4  A    between atoms: N_11  and  C_12
REMARK    5  A    between atoms: C_12  and  C_13
REMARK    6  A    between atoms: C_16  and  C_17
REMARK    7  A    between atoms: C_21  and  C_22
REMARK                            x       y       z     vdW  Elec       q    Type
REMARK                         _______ _______ _______ _____ _____    ______ ____
ROOT
ATOM      1  C   UNL     1      46.871   7.369  12.176  0.00  0.00    +0.000 A 
ATOM      2  C   UNL     1      45.752   7.852  12.843  0.00  0.00    +0.000 A 
ATOM      3  C   UNL     1      44.515   7.233  12.669  0.00  0.00    +0.000 A 
ATOM      4  C   UNL     1      44.339   6.134  11.790  0.00  0.00    +0.000 A 
ATOM      5  C   UNL     1      45.453   5.638  11.065  0.00  0.00    +0.000 A 
ATOM      6  C   UNL     1      46.709   6.247  11.341  0.00  0.00    +0.000 A 
ENDROOT
BRANCH   5   7
ATOM      7  C   UNL     1      45.419   4.591   9.991  0.00  0.00    +0.000 A 
ATOM      8  C   UNL     1      45.133   3.248  10.314  0.00  0.00    +0.000 A 
ATOM      9  C   UNL     1      45.112   2.242   9.348  0.00  0.00    +0.000 A 
ATOM     10  C   UNL     1      45.408   2.586   8.047  0.00  0.00    +0.000 A 
ATOM     11  N   UNL     1      45.674   3.848   7.665  0.00  0.00    +0.000 NA
ATOM     12  C   UNL     1      45.655   4.807   8.633  0.00  0.00    +0.000 A 
ENDBRANCH   5   7
BRANCH   4  13
ATOM     13  C   UNL     1      42.939   5.558  11.718  0.00  0.00    +0.000 C 
ATOM     14  F   UNL     1      41.959   6.509  11.737  0.00  0.00    +0.000 F 
ATOM     15  F   UNL     1      42.704   4.827  10.598  0.00  0.00    +0.000 F 
ATOM     16  F   UNL     1      42.656   4.752  12.781  0.00  0.00    +0.000 F 
ENDBRANCH   4  13
BRANCH   1  17
ATOM     17  C   UNL     1      48.234   7.977  12.448  0.00  0.00    +0.000 C 
BRANCH  17  18
ATOM     18  N   UNL     1      49.142   7.021  13.086  0.00  0.00    +0.000 N 
ATOM     19  H   UNL     1      50.099   7.356  13.071  0.00  0.00    +0.000 HD
BRANCH  18  26
ATOM     20  C   UNL     1      49.976   8.703  15.328  0.00  0.00    +0.000 C 
ATOM     21  C   UNL     1      49.208   7.423  15.487  0.00  0.00    +0.000 A 
ATOM     22  C   UNL     1      48.919   6.964  16.785  0.00  0.00    +0.000 A 
ATOM     23  C   UNL     1      48.224   5.769  16.982  0.00  0.00    +0.000 A 
ATOM     24  C   UNL     1      47.833   5.090  15.844  0.00  0.00    +0.000 A 
ATOM     25  N   UNL     1      48.090   5.507  14.579  0.00  0.00    +0.000 NA
ATOM     26  C   UNL     1      48.776   6.657  14.394  0.00  0.00    +0.000 A 
BRANCH  23  27
ATOM     27  C   UNL     1      47.954   5.303  18.360  0.00  0.00    +0.000 C 
ATOM     28  N   UNL     1      46.693   5.427  18.874  0.00  0.00    +0.000 N 
ATOM     29  O   UNL     1      48.843   4.799  19.041  0.00  0.00    +0.000 OA
ATOM     30  H   UNL     1      45.887   5.793  18.396  0.00  0.00    +0.000 HD
ATOM     31  H   UNL     1      46.559   5.073  19.813  0.00  0.00    +0.000 HD
ENDBRANCH  23  27
ENDBRANCH  18  26
ENDBRANCH  17  18
ENDBRANCH   1  17
TORSDOF 6
ENDMDL
