MODEL 1
REMARK VINA RESULT:    -8.251      0.000      0.000
REMARK INTER + INTRA:         -12.192
REMARK INTER:                 -11.146
REMARK INTRA:                  -1.047
REMARK UNBOUND:                -1.047
REMARK  Name = 
REMARK  7 active torsions:
REMARK  status: ('A' for Active; 'I' for Inactive)
REMARK    1  A    between atoms: C_1  and  N_2
REMARK    2  A    between atoms: N_2  and  C_3
REMARK    3  A    between atoms: C_3  and  C_4
REMARK    4  A    between atoms: C_7  and  C_8
REMARK    5  A    between atoms: C_8  and  N_9
REMARK    6  A    between atoms: C_10  and  C_12
REMARK    7  A    between atoms: C_24  and  C_26
REMARK                            x       y       z     vdW  Elec       q    Type
REMARK                         _______ _______ _______ _____ _____    ______ ____
ROOT
ATOM      1  C   UNL     1      46.494   4.621  13.481  0.00  0.00    +0.000 A 
ATOM      2  C   UNL     1      47.066   5.826  13.079  0.00  0.00    +0.000 A 
ATOM      3  C   UNL     1      47.906   6.502  13.965  0.00  0.00    +0.000 A 
ATOM      4  C   UNL     1      48.160   5.964  15.228  0.00  0.00    +0.000 A 
ATOM      5  C   UNL     1      47.502   4.788  15.562  0.00  0.00    +0.000 A 
ATOM      6  N   UNL     1      46.688   4.110  14.725  0.00  0.00    +0.000 NA
ENDROOT
BRANCH   1   7
ATOM      7  C   UNL     1      45.668   3.792  12.521  0.00  0.00    +0.000 C 
BRANCH   7   9
ATOM      8  C   UNL     1      43.432   4.833  13.092  0.00  0.00    +0.000 C 
ATOM      9  N   UNL     1      44.364   4.324  12.099  0.00  0.00    +0.000 N 
ATOM     10  C   UNL     1      43.992   4.433  10.750  0.00  0.00    +0.000 C 
ATOM     11  O   UNL     1      42.994   5.067  10.398  0.00  0.00    +0.000 OA
BRANCH  10  12
ATOM     12  C   UNL     1      44.821   3.804   9.678  0.00  0.00    +0.000 A 
ATOM     13  C   UNL     1      45.546   4.622   8.823  0.00  0.00    +0.000 A 
ATOM     14  N   UNL     1      46.335   4.125   7.832  0.00  0.00    +0.000 NA
ATOM     15  C   UNL     1      46.343   2.778   7.719  0.00  0.00    +0.000 A 
ATOM     16  C   UNL     1      45.603   1.960   8.556  0.00  0.00    +0.000 A 
ATOM     17  N   UNL     1      44.833   2.448   9.556  0.00  0.00    +0.000 NA
ENDBRANCH  10  12
ENDBRANCH   7   9
ENDBRANCH   1   7
BRANCH   4  18
ATOM     18  C   UNL     1      49.085   6.622  16.207  0.00  0.00    +0.000 C 
BRANCH  18  19
ATOM     19  N   UNL     1      50.133   5.729  16.629  0.00  0.00    +0.000 N 
ATOM     20  C   UNL     1      50.407   5.551  17.960  0.00  0.00    +0.000 C 
ATOM     21  O   UNL     1      49.740   6.089  18.836  0.00  0.00    +0.000 OA
ATOM     22  H   UNL     1      50.825   5.458  15.937  0.00  0.00    +0.000 HD
BRANCH  20  23
ATOM     23  C   UNL     1      51.501   4.628  18.287  0.00  0.00    +0.000 A 
ATOM     24  C   UNL     1      52.605   5.095  18.987  0.00  0.00    +0.000 A 
ATOM     25  S   UNL     1      53.760   3.889  19.331  0.00  0.00    +0.000 S 
ATOM     26  C   UNL     1      52.848   2.708  18.510  0.00  0.00    +0.000 A 
ATOM     27  N   UNL     1      53.295   1.428  18.404  0.00  0.00    +0.000 NA
ATOM     28  C   UNL     1      52.522   0.646  17.730  0.00  0.00    +0.000 A 
ATOM     29  N   UNL     1      51.340   1.028  17.151  0.00  0.00    +0.000 N 
ATOM     30  C   UNL     1      50.833   2.300  17.261  0.00  0.00    +0.000 A 
ATOM     31  O   UNL     1      49.743   2.597  16.777  0.00  0.00    +0.000 OA
ATOM     32  C   UNL     1      51.671   3.224  17.998  0.00  0.00    +0.000 A 
ATOM     33  H   UNL     1      50.775   0.361  16.643  0.00  0.00    +0.000 HD
ENDBRANCH  20  23
ENDBRANCH  18  19
ENDBRANCH   4  18
TORSDOF 6
ENDMDL
MODEL 2
REMARK VINA RESULT:    -7.574      3.393      8.828
REMARK INTER + INTRA:         -11.278
REMARK INTER:                  -9.976
REMARK INTRA:                  -1.302
REMARK UNBOUND:                -1.047
REMARK  Name = 
REMARK  7 active torsions:
REMARK  status: ('A' for Active; 'I' for Inactive)
REMARK    1  A    between atoms: C_1  and  N_2
REMARK    2  A    between atoms: N_2  and  C_3
REMARK    3  A    between atoms: C_3  and  C_4
REMARK    4  A    between atoms: C_7  and  C_8
REMARK    5  A    between atoms: C_8  and  N_9
REMARK    6  A    between atoms: C_10  and  C_12
REMARK    7  A    between atoms: C_24  and  C_26
REMARK                            x       y       z     vdW  Elec       q    Type
REMARK                         _______ _______ _______ _____ _____    ______ ____
ROOT
ATOM      1  C   UNL     1      49.089   7.563  15.949  0.00  0.00    +0.000 A 
ATOM      2  C   UNL     1      48.354   8.698  15.618  0.00  0.00    +0.000 A 
ATOM      3  C   UNL     1      47.793   8.791  14.344  0.00  0.00    +0.000 A 
ATOM      4  C   UNL     1      47.975   7.752  13.429  0.00  0.00    +0.000 A 
ATOM      5  C   UNL     1      48.770   6.686  13.827  0.00  0.00    +0.000 A 
ATOM      6  N   UNL     1      49.321   6.568  15.055  0.00  0.00    +0.000 NA
ENDROOT
BRANCH   1   7
ATOM      7  C   UNL     1      49.622   7.361  17.352  0.00  0.00    +0.000 C 
BRANCH   7   9
ATOM      8  C   UNL     1      48.382   8.453  19.270  0.00  0.00    +0.000 C 
ATOM      9  N   UNL     1      48.650   7.281  18.453  0.00  0.00    +0.000 N 
ATOM     10  C   UNL     1      47.899   6.125  18.717  0.00  0.00    +0.000 C 
ATOM     11  O   UNL     1      46.946   6.131  19.499  0.00  0.00    +0.000 OA
BRANCH  10  12
ATOM     12  C   UNL     1      48.214   4.838  18.026  0.00  0.00    +0.000 A 
ATOM     13  C   UNL     1      47.347   4.372  17.047  0.00  0.00    +0.000 A 
ATOM     14  N   UNL     1      47.571   3.217  16.363  0.00  0.00    +0.000 NA
ATOM     15  C   UNL     1      48.684   2.539  16.722  0.00  0.00    +0.000 A 
ATOM     16  C   UNL     1      49.539   2.990  17.713  0.00  0.00    +0.000 A 
ATOM     17  N   UNL     1      49.331   4.147  18.382  0.00  0.00    +0.000 NA
ENDBRANCH  10  12
ENDBRANCH   7   9
ENDBRANCH   1   7
BRANCH   4  18
ATOM     18  C   UNL     1      47.365   7.774  12.060  0.00  0.00    +0.000 C 
BRANCH  18  19
ATOM     19  N   UNL     1      46.730   6.522  11.742  0.00  0.00    +0.000 N 
ATOM     20  C   UNL     1      45.363   6.415  11.722  0.00  0.00    +0.000 C 
ATOM     21  O   UNL     1      44.636   7.382  11.910  0.00  0.00    +0.000 OA
ATOM     22  H   UNL     1      47.295   5.680  11.806  0.00  0.00    +0.000 HD
BRANCH  20  23
ATOM     23  C   UNL     1      44.814   5.093  11.398  0.00  0.00    +0.000 A 
ATOM     24  C   UNL     1      44.060   4.413  12.345  0.00  0.00    +0.000 A 
ATOM     25  S   UNL     1      43.453   2.918  11.795  0.00  0.00    +0.000 S 
ATOM     26  C   UNL     1      44.220   3.102  10.285  0.00  0.00    +0.000 A 
ATOM     27  N   UNL     1      44.124   2.140   9.330  0.00  0.00    +0.000 NA
ATOM     28  C   UNL     1      44.778   2.395   8.247  0.00  0.00    +0.000 A 
ATOM     29  N   UNL     1      45.522   3.526   8.034  0.00  0.00    +0.000 N 
ATOM     30  C   UNL     1      45.620   4.539   8.956  0.00  0.00    +0.000 A 
ATOM     31  O   UNL     1      46.249   5.566   8.713  0.00  0.00    +0.000 OA
ATOM     32  C   UNL     1      44.913   4.297  10.197  0.00  0.00    +0.000 A 
ATOM     33  H   UNL     1      46.004   3.668   7.157  0.00  0.00    +0.000 HD
ENDBRANCH  20  23
ENDBRANCH  18  19
ENDBRANCH   4  18
TORSDOF 6
ENDMDL
MODEL 3
REMARK VINA RESULT:    -7.194      3.265      8.819
REMARK INTER + INTRA:         -10.765
REMARK INTER:                  -9.728
REMARK INTRA:                  -1.037
REMARK UNBOUND:                -1.047
REMARK  Name = 
REMARK  7 active torsions:
REMARK  status: ('A' for Active; 'I' for Inactive)
REMARK    1  A    between atoms: C_1  and  N_2
REMARK    2  A    between atoms: N_2  and  C_3
REMARK    3  A    between atoms: C_3  and  C_4
REMARK    4  A    between atoms: C_7  and  C_8
REMARK    5  A    between atoms: C_8  and  N_9
REMARK    6  A    between atoms: C_10  and  C_12
REMARK    7  A    between atoms: C_24  and  C_26
REMARK                            x       y       z     vdW  Elec       q    Type
REMARK                         _______ _______ _______ _____ _____    ______ ____
ROOT
ATOM      1  C   UNL     1      50.164   7.015  15.586  0.00  0.00    +0.000 A 
ATOM      2  C   UNL     1      50.719   8.027  14.807  0.00  0.00    +0.000 A 
ATOM      3  C   UNL     1      50.091   8.379  13.612  0.00  0.00    +0.000 A 
ATOM      4  C   UNL     1      48.925   7.718  13.220  0.00  0.00    +0.000 A 
ATOM      5  C   UNL     1      48.477   6.685  14.031  0.00  0.00    +0.000 A 
ATOM      6  N   UNL     1      49.061   6.326  15.195  0.00  0.00    +0.000 NA
ENDROOT
BRANCH   1   7
ATOM      7  C   UNL     1      50.739   6.671  16.944  0.00  0.00    +0.000 C 
BRANCH   7   9
ATOM      8  C   UNL     1      49.259   7.692  18.727  0.00  0.00    +0.000 C 
ATOM      9  N   UNL     1      49.805   6.515  18.068  0.00  0.00    +0.000 N 
ATOM     10  C   UNL     1      49.346   5.262  18.504  0.00  0.00    +0.000 C 
ATOM     11  O   UNL     1      48.412   5.150  19.300  0.00  0.00    +0.000 OA
BRANCH  10  12
ATOM     12  C   UNL     1      49.962   4.004  17.984  0.00  0.00    +0.000 A 
ATOM     13  C   UNL     1      49.206   3.173  17.169  0.00  0.00    +0.000 A 
ATOM     14  N   UNL     1      49.699   2.018  16.645  0.00  0.00    +0.000 NA
ATOM     15  C   UNL     1      50.970   1.720  16.996  0.00  0.00    +0.000 A 
ATOM     16  C   UNL     1      51.720   2.536  17.828  0.00  0.00    +0.000 A 
ATOM     17  N   UNL     1      51.241   3.695  18.335  0.00  0.00    +0.000 NA
ENDBRANCH  10  12
ENDBRANCH   7   9
ENDBRANCH   1   7
BRANCH   4  18
ATOM     18  C   UNL     1      48.182   8.079  11.969  0.00  0.00    +0.000 C 
BRANCH  18  19
ATOM     19  N   UNL     1      47.508   6.938  11.406  0.00  0.00    +0.000 N 
ATOM     20  C   UNL     1      46.140   6.906  11.321  0.00  0.00    +0.000 C 
ATOM     21  O   UNL     1      45.447   7.859  11.659  0.00  0.00    +0.000 OA
ATOM     22  H   UNL     1      48.032   6.072  11.333  0.00  0.00    +0.000 HD
BRANCH  20  23
ATOM     23  C   UNL     1      45.547   5.695  10.742  0.00  0.00    +0.000 A 
ATOM     24  C   UNL     1      45.683   5.447   9.383  0.00  0.00    +0.000 A 
ATOM     25  S   UNL     1      44.984   3.976   8.879  0.00  0.00    +0.000 S 
ATOM     26  C   UNL     1      44.428   3.641  10.454  0.00  0.00    +0.000 A 
ATOM     27  N   UNL     1      43.711   2.516  10.718  0.00  0.00    +0.000 NA
ATOM     28  C   UNL     1      43.327   2.403  11.945  0.00  0.00    +0.000 A 
ATOM     29  N   UNL     1      43.594   3.315  12.932  0.00  0.00    +0.000 N 
ATOM     30  C   UNL     1      44.342   4.447  12.720  0.00  0.00    +0.000 A 
ATOM     31  O   UNL     1      44.611   5.217  13.639  0.00  0.00    +0.000 OA
ATOM     32  C   UNL     1      44.787   4.629  11.353  0.00  0.00    +0.000 A 
ATOM     33  H   UNL     1      43.271   3.161  13.877  0.00  0.00    +0.000 HD
ENDBRANCH  20  23
ENDBRANCH  18  19
ENDBRANCH   4  18
TORSDOF 6
ENDMDL
MODEL 4
REMARK VINA RESULT:    -7.165      3.174      9.222
REMARK INTER + INTRA:         -10.726
REMARK INTER:                  -9.686
REMARK INTRA:                  -1.040
REMARK UNBOUND:                -1.047
REMARK  Name = 
REMARK  7 active torsions:
REMARK  status: ('A' for Active; 'I' for Inactive)
REMARK    1  A    between atoms: C_1  and  N_2
REMARK    2  A    between atoms: N_2  and  C_3
REMARK    3  A    between atoms: C_3  and  C_4
REMARK    4  A    between atoms: C_7  and  C_8
REMARK    5  A    between atoms: C_8  and  N_9
REMARK    6  A    between atoms: C_10  and  C_12
REMARK    7  A    between atoms: C_24  and  C_26
REMARK                            x       y       z     vdW  Elec       q    Type
REMARK                         _______ _______ _______ _____ _____    ______ ____
ROOT
ATOM      1  C   UNL     1      50.204   7.071  15.630  0.00  0.00    +0.000 A 
ATOM      2  C   UNL     1      50.630   7.945  14.634  0.00  0.00    +0.000 A 
ATOM      3  C   UNL     1      49.829   8.123  13.506  0.00  0.00    +0.000 A 
ATOM      4  C   UNL     1      48.622   7.430  13.395  0.00  0.00    +0.000 A 
ATOM      5  C   UNL     1      48.306   6.537  14.411  0.00  0.00    +0.000 A 
ATOM      6  N   UNL     1      49.060   6.349  15.516  0.00  0.00    +0.000 NA
ENDROOT
BRANCH   1   7
ATOM      7  C   UNL     1      50.978   6.927  16.924  0.00  0.00    +0.000 C 
BRANCH   7   9
ATOM      8  C   UNL     1      53.420   6.360  16.566  0.00  0.00    +0.000 C 
ATOM      9  N   UNL     1      52.080   5.954  16.962  0.00  0.00    +0.000 N 
ATOM     10  C   UNL     1      51.918   4.644  17.438  0.00  0.00    +0.000 C 
ATOM     11  O   UNL     1      52.881   3.907  17.660  0.00  0.00    +0.000 OA
BRANCH  10  12
ATOM     12  C   UNL     1      50.556   4.102  17.724  0.00  0.00    +0.000 A 
ATOM     13  C   UNL     1      49.923   4.465  18.905  0.00  0.00    +0.000 A 
ATOM     14  N   UNL     1      48.677   4.026  19.231  0.00  0.00    +0.000 NA
ATOM     15  C   UNL     1      48.108   3.186  18.338  0.00  0.00    +0.000 A 
ATOM     16  C   UNL     1      48.745   2.803  17.170  0.00  0.00    +0.000 A 
ATOM     17  N   UNL     1      49.975   3.253  16.831  0.00  0.00    +0.000 NA
ENDBRANCH  10  12
ENDBRANCH   7   9
ENDBRANCH   1   7
BRANCH   4  18
ATOM     18  C   UNL     1      47.698   7.610  12.228  0.00  0.00    +0.000 C 
BRANCH  18  19
ATOM     19  N   UNL     1      46.981   6.398  11.928  0.00  0.00    +0.000 N 
ATOM     20  C   UNL     1      45.613   6.397  11.844  0.00  0.00    +0.000 C 
ATOM     21  O   UNL     1      44.957   7.425  11.957  0.00  0.00    +0.000 OA
ATOM     22  H   UNL     1      47.473   5.519  12.053  0.00  0.00    +0.000 HD
BRANCH  20  23
ATOM     23  C   UNL     1      44.975   5.109  11.544  0.00  0.00    +0.000 A 
ATOM     24  C   UNL     1      44.229   4.469  12.525  0.00  0.00    +0.000 A 
ATOM     25  S   UNL     1      43.513   3.013  12.002  0.00  0.00    +0.000 S 
ATOM     26  C   UNL     1      44.219   3.159  10.458  0.00  0.00    +0.000 A 
ATOM     27  N   UNL     1      44.024   2.208   9.507  0.00  0.00    +0.000 NA
ATOM     28  C   UNL     1      44.641   2.429   8.395  0.00  0.00    +0.000 A 
ATOM     29  N   UNL     1      45.436   3.517   8.149  0.00  0.00    +0.000 N 
ATOM     30  C   UNL     1      45.634   4.520   9.067  0.00  0.00    +0.000 A 
ATOM     31  O   UNL     1      46.308   5.511   8.795  0.00  0.00    +0.000 OA
ATOM     32  C   UNL     1      44.973   4.313  10.339  0.00  0.00    +0.000 A 
ATOM     33  H   UNL     1      45.884   3.636   7.250  0.00  0.00    +0.000 HD
ENDBRANCH  20  23
ENDBRANCH  18  19
ENDBRANCH   4  18
TORSDOF 6
ENDMDL
MODEL 5
REMARK VINA RESULT:    -6.538      1.845      2.452
REMARK INTER + INTRA:          -9.878
REMARK INTER:                  -8.972
REMARK INTRA:                  -0.906
REMARK UNBOUND:                -1.047
REMARK  Name = 
REMARK  7 active torsions:
REMARK  status: ('A' for Active; 'I' for Inactive)
REMARK    1  A    between atoms: C_1  and  N_2
REMARK    2  A    between atoms: N_2  and  C_3
REMARK    3  A    between atoms: C_3  and  C_4
REMARK    4  A    between atoms: C_7  and  C_8
REMARK    5  A    between atoms: C_8  and  N_9
REMARK    6  A    between atoms: C_10  and  C_12
REMARK    7  A    between atoms: C_24  and  C_26
REMARK                            x       y       z     vdW  Elec       q    Type
REMARK                         _______ _______ _______ _____ _____    ______ ____
ROOT
ATOM      1  C   UNL     1      46.482   4.835  13.139  0.00  0.00    +0.000 A 
ATOM      2  C   UNL     1      46.984   4.734  14.434  0.00  0.00    +0.000 A 
ATOM      3  C   UNL     1      47.820   5.743  14.913  0.00  0.00    +0.000 A 
ATOM      4  C   UNL     1      48.136   6.830  14.096  0.00  0.00    +0.000 A 
ATOM      5  C   UNL     1      47.636   6.818  12.801  0.00  0.00    +0.000 A 
ATOM      6  N   UNL     1      46.821   5.858  12.312  0.00  0.00    +0.000 NA
ENDROOT
BRANCH   1   7
ATOM      7  C   UNL     1      45.482   3.829  12.610  0.00  0.00    +0.000 C 
BRANCH   7   9
ATOM      8  C   UNL     1      43.211   4.799  13.167  0.00  0.00    +0.000 C 
ATOM      9  N   UNL     1      44.168   4.326  12.179  0.00  0.00    +0.000 N 
ATOM     10  C   UNL     1      43.805   4.437  10.827  0.00  0.00    +0.000 C 
ATOM     11  O   UNL     1      42.793   5.043  10.471  0.00  0.00    +0.000 OA
BRANCH  10  12
ATOM     12  C   UNL     1      44.663   3.841   9.758  0.00  0.00    +0.000 A 
ATOM     13  C   UNL     1      45.397   4.686   8.938  0.00  0.00    +0.000 A 
ATOM     14  N   UNL     1      46.212   4.221   7.952  0.00  0.00    +0.000 NA
ATOM     15  C   UNL     1      46.236   2.877   7.808  0.00  0.00    +0.000 A 
ATOM     16  C   UNL     1      45.488   2.032   8.610  0.00  0.00    +0.000 A 
ATOM     17  N   UNL     1      44.692   2.489   9.605  0.00  0.00    +0.000 NA
ENDBRANCH  10  12
ENDBRANCH   7   9
ENDBRANCH   1   7
BRANCH   4  18
ATOM     18  C   UNL     1      48.995   7.964  14.567  0.00  0.00    +0.000 C 
BRANCH  18  19
ATOM     19  N   UNL     1      49.767   7.599  15.726  0.00  0.00    +0.000 N 
ATOM     20  C   UNL     1      49.364   7.973  16.982  0.00  0.00    +0.000 C 
ATOM     21  O   UNL     1      48.313   8.573  17.173  0.00  0.00    +0.000 OA
ATOM     22  H   UNL     1      50.728   7.309  15.577  0.00  0.00    +0.000 HD
BRANCH  20  23
ATOM     23  C   UNL     1      50.226   7.562  18.097  0.00  0.00    +0.000 A 
ATOM     24  C   UNL     1      50.598   8.493  19.057  0.00  0.00    +0.000 A 
ATOM     25  S   UNL     1      51.554   7.845  20.309  0.00  0.00    +0.000 S 
ATOM     26  C   UNL     1      51.549   6.302  19.586  0.00  0.00    +0.000 A 
ATOM     27  N   UNL     1      52.222   5.264  20.148  0.00  0.00    +0.000 NA
ATOM     28  C   UNL     1      52.159   4.161  19.480  0.00  0.00    +0.000 A 
ATOM     29  N   UNL     1      51.484   4.005  18.298  0.00  0.00    +0.000 N 
ATOM     30  C   UNL     1      50.763   5.016  17.710  0.00  0.00    +0.000 A 
ATOM     31  O   UNL     1      50.122   4.828  16.679  0.00  0.00    +0.000 OA
ATOM     32  C   UNL     1      50.812   6.281  18.415  0.00  0.00    +0.000 A 
ATOM     33  H   UNL     1      51.467   3.109  17.829  0.00  0.00    +0.000 HD
ENDBRANCH  20  23
ENDBRANCH  18  19
ENDBRANCH   4  18
TORSDOF 6
ENDMDL
MODEL 6
REMARK VINA RESULT:    -6.536      2.297      2.801
REMARK INTER + INTRA:          -9.875
REMARK INTER:                  -8.940
REMARK INTRA:                  -0.936
REMARK UNBOUND:                -1.047
REMARK  Name = 
REMARK  7 active torsions:
REMARK  status: ('A' for Active; 'I' for Inactive)
REMARK    1  A    between atoms: C_1  and  N_2
REMARK    2  A    between atoms: N_2  and  C_3
REMARK    3  A    between atoms: C_3  and  C_4
REMARK    4  A    between atoms: C_7  and  C_8
REMARK    5  A    between atoms: C_8  and  N_9
REMARK    6  A    between atoms: C_10  and  C_12
REMARK    7  A    between atoms: C_24  and  C_26
REMARK                            x       y       z     vdW  Elec       q    Type
REMARK                         _______ _______ _______ _____ _____    ______ ____
ROOT
ATOM      1  C   UNL     1      46.401   4.804  13.105  0.00  0.00    +0.000 A 
ATOM      2  C   UNL     1      46.934   4.664  14.384  0.00  0.00    +0.000 A 
ATOM      3  C   UNL     1      47.866   5.600  14.833  0.00  0.00    +0.000 A 
ATOM      4  C   UNL     1      48.244   6.656  14.002  0.00  0.00    +0.000 A 
ATOM      5  C   UNL     1      47.703   6.684  12.723  0.00  0.00    +0.000 A 
ATOM      6  N   UNL     1      46.797   5.794  12.264  0.00  0.00    +0.000 NA
ENDROOT
BRANCH   1   7
ATOM      7  C   UNL     1      45.306   3.883  12.612  0.00  0.00    +0.000 C 
BRANCH   7   9
ATOM      8  C   UNL     1      43.114   5.066  13.071  0.00  0.00    +0.000 C 
ATOM      9  N   UNL     1      44.060   4.495  12.125  0.00  0.00    +0.000 N 
ATOM     10  C   UNL     1      43.762   4.622  10.759  0.00  0.00    +0.000 C 
ATOM     11  O   UNL     1      42.825   5.315  10.358  0.00  0.00    +0.000 OA
BRANCH  10  12
ATOM     12  C   UNL     1      44.602   3.937   9.730  0.00  0.00    +0.000 A 
ATOM     13  C   UNL     1      44.613   2.549   9.689  0.00  0.00    +0.000 A 
ATOM     14  N   UNL     1      45.340   1.852   8.774  0.00  0.00    +0.000 NA
ATOM     15  C   UNL     1      46.074   2.604   7.924  0.00  0.00    +0.000 A 
ATOM     16  C   UNL     1      46.083   3.988   7.977  0.00  0.00    +0.000 A 
ATOM     17  N   UNL     1      45.346   4.686   8.872  0.00  0.00    +0.000 NA
ENDBRANCH  10  12
ENDBRANCH   7   9
ENDBRANCH   1   7
BRANCH   4  18
ATOM     18  C   UNL     1      49.208   7.717  14.441  0.00  0.00    +0.000 C 
BRANCH  18  19
ATOM     19  N   UNL     1      50.469   7.152  14.846  0.00  0.00    +0.000 N 
ATOM     20  C   UNL     1      51.445   7.942  15.397  0.00  0.00    +0.000 C 
ATOM     21  O   UNL     1      51.264   9.132  15.622  0.00  0.00    +0.000 OA
ATOM     22  H   UNL     1      50.717   6.242  14.470  0.00  0.00    +0.000 HD
BRANCH  20  23
ATOM     23  C   UNL     1      52.699   7.274  15.765  0.00  0.00    +0.000 A 
ATOM     24  C   UNL     1      53.906   7.774  15.296  0.00  0.00    +0.000 A 
ATOM     25  S   UNL     1      55.269   6.916  15.856  0.00  0.00    +0.000 S 
ATOM     26  C   UNL     1      54.290   5.811  16.706  0.00  0.00    +0.000 A 
ATOM     27  N   UNL     1      54.839   4.780  17.400  0.00  0.00    +0.000 NA
ATOM     28  C   UNL     1      53.982   4.002  17.971  0.00  0.00    +0.000 A 
ATOM     29  N   UNL     1      52.623   4.163  17.910  0.00  0.00    +0.000 N 
ATOM     30  C   UNL     1      52.024   5.209  17.249  0.00  0.00    +0.000 A 
ATOM     31  O   UNL     1      50.805   5.357  17.260  0.00  0.00    +0.000 OA
ATOM     32  C   UNL     1      52.944   6.106  16.579  0.00  0.00    +0.000 A 
ATOM     33  H   UNL     1      52.006   3.522  18.389  0.00  0.00    +0.000 HD
ENDBRANCH  20  23
ENDBRANCH  18  19
ENDBRANCH   4  18
TORSDOF 6
ENDMDL
MODEL 7
REMARK VINA RESULT:    -6.366      3.528      8.540
REMARK INTER + INTRA:          -9.645
REMARK INTER:                  -8.955
REMARK INTRA:                  -0.690
REMARK UNBOUND:                -1.047
REMARK  Name = 
REMARK  7 active torsions:
REMARK  status: ('A' for Active; 'I' for Inactive)
REMARK    1  A    between atoms: C_1  and  N_2
REMARK    2  A    between atoms: N_2  and  C_3
REMARK    3  A    between atoms: C_3  and  C_4
REMARK    4  A    between atoms: C_7  and  C_8
REMARK    5  A    between atoms: C_8  and  N_9
REMARK    6  A    between atoms: C_10  and  C_12
REMARK    7  A    between atoms: C_24  and  C_26
REMARK                            x       y       z     vdW  Elec       q    Type
REMARK                         _______ _______ _______ _____ _____    ______ ____
ROOT
ATOM      1  C   UNL     1      50.827   6.690  16.248  0.00  0.00    +0.000 A 
ATOM      2  C   UNL     1      51.128   8.021  15.971  0.00  0.00    +0.000 A 
ATOM      3  C   UNL     1      50.187   8.798  15.295  0.00  0.00    +0.000 A 
ATOM      4  C   UNL     1      48.968   8.236  14.912  0.00  0.00    +0.000 A 
ATOM      5  C   UNL     1      48.779   6.887  15.180  0.00  0.00    +0.000 A 
ATOM      6  N   UNL     1      49.669   6.112  15.836  0.00  0.00    +0.000 NA
ENDROOT
BRANCH   1   7
ATOM      7  C   UNL     1      51.763   5.835  17.076  0.00  0.00    +0.000 C 
BRANCH   7   9
ATOM      8  C   UNL     1      52.177   6.539  19.472  0.00  0.00    +0.000 C 
ATOM      9  N   UNL     1      51.480   5.698  18.512  0.00  0.00    +0.000 N 
ATOM     10  C   UNL     1      50.499   4.827  19.012  0.00  0.00    +0.000 C 
ATOM     11  O   UNL     1      50.125   4.870  20.186  0.00  0.00    +0.000 OA
BRANCH  10  12
ATOM     12  C   UNL     1      49.842   3.827  18.116  0.00  0.00    +0.000 A 
ATOM     13  C   UNL     1      50.628   2.867  17.492  0.00  0.00    +0.000 A 
ATOM     14  N   UNL     1      50.105   1.914  16.674  0.00  0.00    +0.000 NA
ATOM     15  C   UNL     1      48.767   1.983  16.488  0.00  0.00    +0.000 A 
ATOM     16  C   UNL     1      47.984   2.953  17.091  0.00  0.00    +0.000 A 
ATOM     17  N   UNL     1      48.497   3.890  17.921  0.00  0.00    +0.000 NA
ENDBRANCH  10  12
ENDBRANCH   7   9
ENDBRANCH   1   7
BRANCH   4  18
ATOM     18  C   UNL     1      47.901   9.029  14.221  0.00  0.00    +0.000 C 
BRANCH  18  19
ATOM     19  N   UNL     1      46.809   8.193  13.796  0.00  0.00    +0.000 N 
ATOM     20  C   UNL     1      46.793   7.647  12.539  0.00  0.00    +0.000 C 
ATOM     21  O   UNL     1      47.725   7.795  11.757  0.00  0.00    +0.000 OA
ATOM     22  H   UNL     1      45.946   8.243  14.329  0.00  0.00    +0.000 HD
BRANCH  20  23
ATOM     23  C   UNL     1      45.631   6.818  12.198  0.00  0.00    +0.000 A 
ATOM     24  C   UNL     1      44.506   7.411  11.640  0.00  0.00    +0.000 A 
ATOM     25  S   UNL     1      43.266   6.306  11.256  0.00  0.00    +0.000 S 
ATOM     26  C   UNL     1      44.169   4.998  11.870  0.00  0.00    +0.000 A 
ATOM     27  N   UNL     1      43.663   3.737  11.869  0.00  0.00    +0.000 NA
ATOM     28  C   UNL     1      44.440   2.848  12.391  0.00  0.00    +0.000 A 
ATOM     29  N   UNL     1      45.678   3.109  12.916  0.00  0.00    +0.000 N 
ATOM     30  C   UNL     1      46.244   4.361  12.908  0.00  0.00    +0.000 A 
ATOM     31  O   UNL     1      47.380   4.551  13.336  0.00  0.00    +0.000 OA
ATOM     32  C   UNL     1      45.406   5.399  12.343  0.00  0.00    +0.000 A 
ATOM     33  H   UNL     1      46.242   2.364  13.302  0.00  0.00    +0.000 HD
ENDBRANCH  20  23
ENDBRANCH  18  19
ENDBRANCH   4  18
TORSDOF 6
ENDMDL
MODEL 8
REMARK VINA RESULT:    -6.275      3.490      9.163
REMARK INTER + INTRA:          -9.523
REMARK INTER:                  -8.437
REMARK INTRA:                  -1.086
REMARK UNBOUND:                -1.047
REMARK  Name = 
REMARK  7 active torsions:
REMARK  status: ('A' for Active; 'I' for Inactive)
REMARK    1  A    between atoms: C_1  and  N_2
REMARK    2  A    between atoms: N_2  and  C_3
REMARK    3  A    between atoms: C_3  and  C_4
REMARK    4  A    between atoms: C_7  and  C_8
REMARK    5  A    between atoms: C_8  and  N_9
REMARK    6  A    between atoms: C_10  and  C_12
REMARK    7  A    between atoms: C_24  and  C_26
REMARK                            x       y       z     vdW  Elec       q    Type
REMARK                         _______ _______ _______ _____ _____    ______ ____
ROOT
ATOM      1  C   UNL     1      49.621   8.515  15.742  0.00  0.00    +0.000 A 
ATOM      2  C   UNL     1      50.524   8.548  14.681  0.00  0.00    +0.000 A 
ATOM      3  C   UNL     1      50.049   8.343  13.386  0.00  0.00    +0.000 A 
ATOM      4  C   UNL     1      48.689   8.112  13.173  0.00  0.00    +0.000 A 
ATOM      5  C   UNL     1      47.874   8.040  14.295  0.00  0.00    +0.000 A 
ATOM      6  N   UNL     1      48.304   8.239  15.559  0.00  0.00    +0.000 NA
ENDROOT
BRANCH   1   7
ATOM      7  C   UNL     1      50.063   8.844  17.152  0.00  0.00    +0.000 C 
BRANCH   7   9
ATOM      8  C   UNL     1      52.493   8.672  17.845  0.00  0.00    +0.000 C 
ATOM      9  N   UNL     1      51.175   8.069  17.723  0.00  0.00    +0.000 N 
ATOM     10  C   UNL     1      51.011   6.771  18.232  0.00  0.00    +0.000 C 
ATOM     11  O   UNL     1      51.890   6.213  18.892  0.00  0.00    +0.000 OA
BRANCH  10  12
ATOM     12  C   UNL     1      49.735   6.024  18.015  0.00  0.00    +0.000 A 
ATOM     13  C   UNL     1      49.659   5.113  16.971  0.00  0.00    +0.000 A 
ATOM     14  N   UNL     1      48.539   4.384  16.717  0.00  0.00    +0.000 NA
ATOM     15  C   UNL     1      47.492   4.629  17.536  0.00  0.00    +0.000 A 
ATOM     16  C   UNL     1      47.556   5.555  18.565  0.00  0.00    +0.000 A 
ATOM     17  N   UNL     1      48.674   6.267  18.833  0.00  0.00    +0.000 NA
ENDBRANCH  10  12
ENDBRANCH   7   9
ENDBRANCH   1   7
BRANCH   4  18
ATOM     18  C   UNL     1      48.112   7.925  11.802  0.00  0.00    +0.000 C 
BRANCH  18  19
ATOM     19  N   UNL     1      47.315   6.729  11.721  0.00  0.00    +0.000 N 
ATOM     20  C   UNL     1      45.945   6.799  11.734  0.00  0.00    +0.000 C 
ATOM     21  O   UNL     1      45.352   7.870  11.753  0.00  0.00    +0.000 OA
ATOM     22  H   UNL     1      47.771   5.846  11.929  0.00  0.00    +0.000 HD
BRANCH  20  23
ATOM     23  C   UNL     1      45.223   5.523  11.658  0.00  0.00    +0.000 A 
ATOM     24  C   UNL     1      44.550   5.048  12.776  0.00  0.00    +0.000 A 
ATOM     25  S   UNL     1      43.721   3.583  12.508  0.00  0.00    +0.000 S 
ATOM     26  C   UNL     1      44.275   3.504  10.898  0.00  0.00    +0.000 A 
ATOM     27  N   UNL     1      43.944   2.458  10.096  0.00  0.00    +0.000 NA
ATOM     28  C   UNL     1      44.456   2.509   8.913  0.00  0.00    +0.000 A 
ATOM     29  N   UNL     1      45.271   3.512   8.460  0.00  0.00    +0.000 N 
ATOM     30  C   UNL     1      45.605   4.605   9.223  0.00  0.00    +0.000 A 
ATOM     31  O   UNL     1      46.293   5.516   8.768  0.00  0.00    +0.000 OA
ATOM     32  C   UNL     1      45.065   4.590  10.567  0.00  0.00    +0.000 A 
ATOM     33  H   UNL     1      45.633   3.496   7.516  0.00  0.00    +0.000 HD
ENDBRANCH  20  23
ENDBRANCH  18  19
ENDBRANCH   4  18
TORSDOF 6
ENDMDL
MODEL 9
REMARK VINA RESULT:    -6.045      5.811      9.306
REMARK INTER + INTRA:          -9.212
REMARK INTER:                  -8.252
REMARK INTRA:                  -0.959
REMARK UNBOUND:                -1.047
REMARK  Name = 
REMARK  7 active torsions:
REMARK  status: ('A' for Active; 'I' for Inactive)
REMARK    1  A    between atoms: C_1  and  N_2
REMARK    2  A    between atoms: N_2  and  C_3
REMARK    3  A    between atoms: C_3  and  C_4
REMARK    4  A    between atoms: C_7  and  C_8
REMARK    5  A    between atoms: C_8  and  N_9
REMARK    6  A    between atoms: C_10  and  C_12
REMARK    7  A    between atoms: C_24  and  C_26
REMARK                            x       y       z     vdW  Elec       q    Type
REMARK                         _______ _______ _______ _____ _____    ______ ____
ROOT
ATOM      1  C   UNL     1      51.142   8.384  12.397  0.00  0.00    +0.000 A 
ATOM      2  C   UNL     1      50.503   7.751  11.333  0.00  0.00    +0.000 A 
ATOM      3  C   UNL     1      49.109   7.688  11.325  0.00  0.00    +0.000 A 
ATOM      4  C   UNL     1      48.383   8.259  12.372  0.00  0.00    +0.000 A 
ATOM      5  C   UNL     1      49.106   8.818  13.417  0.00  0.00    +0.000 A 
ATOM      6  N   UNL     1      50.454   8.896  13.449  0.00  0.00    +0.000 NA
ENDROOT
BRANCH   1   7
ATOM      7  C   UNL     1      52.643   8.579  12.400  0.00  0.00    +0.000 C 
BRANCH   7   9
ATOM      8  C   UNL     1      53.108  11.040  12.029  0.00  0.00    +0.000 C 
ATOM      9  N   UNL     1      53.198   9.661  11.574  0.00  0.00    +0.000 N 
ATOM     10  C   UNL     1      53.889   9.422  10.376  0.00  0.00    +0.000 C 
ATOM     11  O   UNL     1      54.526  10.308   9.802  0.00  0.00    +0.000 OA
BRANCH  10  12
ATOM     12  C   UNL     1      53.901   8.059   9.763  0.00  0.00    +0.000 A 
ATOM     13  C   UNL     1      54.880   7.156  10.153  0.00  0.00    +0.000 A 
ATOM     14  N   UNL     1      54.950   5.893   9.654  0.00  0.00    +0.000 NA
ATOM     15  C   UNL     1      54.014   5.585   8.728  0.00  0.00    +0.000 A 
ATOM     16  C   UNL     1      53.049   6.491   8.319  0.00  0.00    +0.000 A 
ATOM     17  N   UNL     1      52.964   7.741   8.829  0.00  0.00    +0.000 NA
ENDBRANCH  10  12
ENDBRANCH   7   9
ENDBRANCH   1   7
BRANCH   4  18
ATOM     18  C   UNL     1      46.884   8.260  12.400  0.00  0.00    +0.000 C 
BRANCH  18  19
ATOM     19  N   UNL     1      46.349   6.940  12.192  0.00  0.00    +0.000 N 
ATOM     20  C   UNL     1      45.092   6.769  11.669  0.00  0.00    +0.000 C 
ATOM     21  O   UNL     1      44.408   7.717  11.305  0.00  0.00    +0.000 OA
ATOM     22  H   UNL     1      46.793   6.171  12.683  0.00  0.00    +0.000 HD
BRANCH  20  23
ATOM     23  C   UNL     1      44.633   5.384  11.506  0.00  0.00    +0.000 A 
ATOM     24  C   UNL     1      43.912   4.777  12.525  0.00  0.00    +0.000 A 
ATOM     25  S   UNL     1      43.410   3.189  12.159  0.00  0.00    +0.000 S 
ATOM     26  C   UNL     1      44.183   3.239  10.642  0.00  0.00    +0.000 A 
ATOM     27  N   UNL     1      44.162   2.163   9.811  0.00  0.00    +0.000 NA
ATOM     28  C   UNL     1      44.813   2.326   8.708  0.00  0.00    +0.000 A 
ATOM     29  N   UNL     1      45.484   3.469   8.362  0.00  0.00    +0.000 N 
ATOM     30  C   UNL     1      45.505   4.591   9.155  0.00  0.00    +0.000 A 
ATOM     31  O   UNL     1      46.070   5.620   8.791  0.00  0.00    +0.000 OA
ATOM     32  C   UNL     1      44.799   4.456  10.412  0.00  0.00    +0.000 A 
ATOM     33  H   UNL     1      45.968   3.535   7.477  0.00  0.00    +0.000 HD
ENDBRANCH  20  23
ENDBRANCH  18  19
ENDBRANCH   4  18
TORSDOF 6
ENDMDL
