MODEL 1
REMARK VINA RESULT:    -8.046      0.000      0.000
REMARK INTER + INTRA:         -12.023
REMARK INTER:                 -10.868
REMARK INTRA:                  -1.155
REMARK UNBOUND:                -1.155
REMARK  Name = 
REMARK  6 active torsions:
REMARK  status: ('A' for Active; 'I' for Inactive)
REMARK    1  A    between atoms: C_2  and  C_18
REMARK    2  A    between atoms: N_3  and  C_4
REMARK    3  A    between atoms: C_4  and  C_5
REMARK    4  A    between atoms: C_8  and  C_9
REMARK    5  A    between atoms: C_9  and  N_10
REMARK    6  A    between atoms: N_10  and  C_11
REMARK                            x       y       z     vdW  Elec       q    Type
REMARK                         _______ _______ _______ _____ _____    ______ ____
ROOT
ATOM      1  C   UNL     1      46.781   7.811  13.245  0.00  0.00    +0.000 C 
ENDROOT
BRANCH   1   2
ATOM      2  C   UNL     1      46.085   6.802  12.369  0.00  0.00    +0.000 A 
ATOM      3  C   UNL     1      46.462   6.643  11.030  0.00  0.00    +0.000 A 
ATOM      4  C   UNL     1      45.829   5.694  10.220  0.00  0.00    +0.000 A 
ATOM      5  C   UNL     1      44.800   4.893  10.731  0.00  0.00    +0.000 A 
ATOM      6  C   UNL     1      44.405   5.074  12.064  0.00  0.00    +0.000 A 
ATOM      7  C   UNL     1      45.036   6.023  12.873  0.00  0.00    +0.000 A 
BRANCH   5   8
ATOM      8  C   UNL     1      44.085   3.887   9.856  0.00  0.00    +0.000 C 
BRANCH   8   9
ATOM      9  N   UNL     1      44.195   4.207   8.435  0.00  0.00    +0.000 NA
ATOM     10  H   UNL     1      44.637   5.117   8.321  0.00  0.00    +0.000 HD
BRANCH   9  11
ATOM     11  C   UNL     1      44.983   3.242   7.716  0.00  0.00    +0.000 C 
ATOM     12  C   UNL     1      45.604   2.117   8.535  0.00  0.00    +0.000 C 
ATOM     13  C   UNL     1      46.762   1.682   7.658  0.00  0.00    +0.000 C 
ATOM     14  C   UNL     1      47.170   2.953   6.924  0.00  0.00    +0.000 C 
ATOM     15  N   UNL     1      46.158   3.955   7.257  0.00  0.00    +0.000 NA
ATOM     16  H   UNL     1      45.914   4.525   6.451  0.00  0.00    +0.000 HD
ENDBRANCH   9  11
ENDBRANCH   8   9
ENDBRANCH   5   8
ENDBRANCH   1   2
BRANCH   1  19
ATOM     17  O   UNL     1      49.349   6.707  13.536  0.00  0.00    +0.000 OA
ATOM     18  C   UNL     1      48.596   6.723  14.506  0.00  0.00    +0.000 C 
ATOM     19  N   UNL     1      47.313   7.197  14.434  0.00  0.00    +0.000 N 
ATOM     20  H   UNL     1      46.791   7.355  15.289  0.00  0.00    +0.000 HD
BRANCH  18  21
ATOM     21  C   UNL     1      49.015   6.175  15.803  0.00  0.00    +0.000 A 
ATOM     22  C   UNL     1      50.035   6.797  16.513  0.00  0.00    +0.000 A 
ATOM     23  S   UNL     1      50.394   6.041  17.997  0.00  0.00    +0.000 S 
ATOM     24  C   UNL     1      49.173   4.879  17.764  0.00  0.00    +0.000 A 
ATOM     25  N   UNL     1      48.919   3.934  18.707  0.00  0.00    +0.000 NA
ATOM     26  C   UNL     1      47.939   3.143  18.421  0.00  0.00    +0.000 A 
ATOM     27  N   UNL     1      47.207   3.198  17.263  0.00  0.00    +0.000 N 
ATOM     28  C   UNL     1      47.474   4.088  16.252  0.00  0.00    +0.000 A 
ATOM     29  O   UNL     1      46.888   4.019  15.175  0.00  0.00    +0.000 OA
ATOM     30  C   UNL     1      48.528   5.042  16.550  0.00  0.00    +0.000 A 
ATOM     31  H   UNL     1      46.476   2.526  17.082  0.00  0.00    +0.000 HD
ENDBRANCH  18  21
ENDBRANCH   1  19
TORSDOF 6
ENDMDL
MODEL 2
REMARK VINA RESULT:    -7.626      1.570      1.773
REMARK INTER + INTRA:         -11.455
REMARK INTER:                 -10.616
REMARK INTRA:                  -0.840
REMARK UNBOUND:                -1.155
REMARK  Name = 
REMARK  6 active torsions:
REMARK  status: ('A' for Active; 'I' for Inactive)
REMARK    1  A    between atoms: C_2  and  C_18
REMARK    2  A    between atoms: N_3  and  C_4
REMARK    3  A    between atoms: C_4  and  C_5
REMARK    4  A    between atoms: C_8  and  C_9
REMARK    5  A    between atoms: C_9  and  N_10
REMARK    6  A    between atoms: N_10  and  C_11
REMARK                            x       y       z     vdW  Elec       q    Type
REMARK                         _______ _______ _______ _____ _____    ______ ____
ROOT
ATOM      1  C   UNL     1      48.228   6.996  13.447  0.00  0.00    +0.000 C 
ENDROOT
BRANCH   1   2
ATOM      2  C   UNL     1      47.153   6.239  12.711  0.00  0.00    +0.000 A 
ATOM      3  C   UNL     1      46.653   6.718  11.494  0.00  0.00    +0.000 A 
ATOM      4  C   UNL     1      45.668   6.007  10.800  0.00  0.00    +0.000 A 
ATOM      5  C   UNL     1      45.156   4.809  11.315  0.00  0.00    +0.000 A 
ATOM      6  C   UNL     1      45.638   4.348  12.548  0.00  0.00    +0.000 A 
ATOM      7  C   UNL     1      46.622   5.058  13.243  0.00  0.00    +0.000 A 
BRANCH   5   8
ATOM      8  C   UNL     1      44.068   4.050  10.592  0.00  0.00    +0.000 C 
BRANCH   8   9
ATOM      9  N   UNL     1      43.983   4.409   9.178  0.00  0.00    +0.000 NA
ATOM     10  H   UNL     1      44.435   5.308   9.025  0.00  0.00    +0.000 HD
BRANCH   9  11
ATOM     11  C   UNL     1      44.627   3.443   8.329  0.00  0.00    +0.000 C 
ATOM     12  C   UNL     1      45.288   2.256   9.019  0.00  0.00    +0.000 C 
ATOM     13  C   UNL     1      46.306   1.809   7.987  0.00  0.00    +0.000 C 
ATOM     14  C   UNL     1      46.683   3.093   7.258  0.00  0.00    +0.000 C 
ATOM     15  N   UNL     1      45.771   4.123   7.754  0.00  0.00    +0.000 NA
ATOM     16  H   UNL     1      45.458   4.739   7.008  0.00  0.00    +0.000 HD
ENDBRANCH   9  11
ENDBRANCH   8   9
ENDBRANCH   5   8
ENDBRANCH   1   2
BRANCH   1  19
ATOM     17  O   UNL     1      50.268   6.706  15.358  0.00  0.00    +0.000 OA
ATOM     18  C   UNL     1      49.106   6.814  15.741  0.00  0.00    +0.000 C 
ATOM     19  N   UNL     1      48.050   6.910  14.874  0.00  0.00    +0.000 N 
ATOM     20  H   UNL     1      47.137   7.174  15.227  0.00  0.00    +0.000 HD
BRANCH  18  21
ATOM     21  C   UNL     1      48.772   6.792  17.172  0.00  0.00    +0.000 A 
ATOM     22  C   UNL     1      48.274   7.938  17.778  0.00  0.00    +0.000 A 
ATOM     23  S   UNL     1      47.933   7.741  19.437  0.00  0.00    +0.000 S 
ATOM     24  C   UNL     1      48.401   6.105  19.396  0.00  0.00    +0.000 A 
ATOM     25  N   UNL     1      48.312   5.325  20.504  0.00  0.00    +0.000 NA
ATOM     26  C   UNL     1      48.659   4.095  20.322  0.00  0.00    +0.000 A 
ATOM     27  N   UNL     1      49.111   3.581  19.133  0.00  0.00    +0.000 N 
ATOM     28  C   UNL     1      49.285   4.347  18.006  0.00  0.00    +0.000 A 
ATOM     29  O   UNL     1      49.819   3.886  17.002  0.00  0.00    +0.000 OA
ATOM     30  C   UNL     1      48.850   5.727  18.142  0.00  0.00    +0.000 A 
ATOM     31  H   UNL     1      49.403   2.617  19.064  0.00  0.00    +0.000 HD
ENDBRANCH  18  21
ENDBRANCH   1  19
TORSDOF 6
ENDMDL
MODEL 3
REMARK VINA RESULT:    -7.570      2.147      2.667
REMARK INTER + INTRA:         -11.380
REMARK INTER:                 -10.455
REMARK INTRA:                  -0.925
REMARK UNBOUND:                -1.155
REMARK  Name = 
REMARK  6 active torsions:
REMARK  status: ('A' for Active; 'I' for Inactive)
REMARK    1  A    between atoms: C_2  and  C_18
REMARK    2  A    between atoms: N_3  and  C_4
REMARK    3  A    between atoms: C_4  and  C_5
REMARK    4  A    between atoms: C_8  and  C_9
REMARK    5  A    between atoms: C_9  and  N_10
REMARK    6  A    between atoms: N_10  and  C_11
REMARK                            x       y       z     vdW  Elec       q    Type
REMARK                         _______ _______ _______ _____ _____    ______ ____
ROOT
ATOM      1  C   UNL     1      47.863   7.005  13.614  0.00  0.00    +0.000 C 
ENDROOT
BRANCH   1   2
ATOM      2  C   UNL     1      46.910   6.203  12.767  0.00  0.00    +0.000 A 
ATOM      3  C   UNL     1      46.367   5.005  13.248  0.00  0.00    +0.000 A 
ATOM      4  C   UNL     1      45.467   4.268  12.470  0.00  0.00    +0.000 A 
ATOM      5  C   UNL     1      45.101   4.709  11.192  0.00  0.00    +0.000 A 
ATOM      6  C   UNL     1      45.669   5.894  10.702  0.00  0.00    +0.000 A 
ATOM      7  C   UNL     1      46.569   6.630  11.478  0.00  0.00    +0.000 A 
BRANCH   5   8
ATOM      8  C   UNL     1      44.156   3.904  10.329  0.00  0.00    +0.000 C 
BRANCH   8   9
ATOM      9  N   UNL     1      44.178   4.330   8.932  0.00  0.00    +0.000 NA
ATOM     10  H   UNL     1      44.654   5.227   8.854  0.00  0.00    +0.000 HD
BRANCH   9  11
ATOM     11  C   UNL     1      44.865   3.392   8.085  0.00  0.00    +0.000 C 
ATOM     12  C   UNL     1      45.463   2.166   8.763  0.00  0.00    +0.000 C 
ATOM     13  C   UNL     1      46.541   1.749   7.781  0.00  0.00    +0.000 C 
ATOM     14  C   UNL     1      46.983   3.057   7.138  0.00  0.00    +0.000 C 
ATOM     15  N   UNL     1      46.053   4.079   7.618  0.00  0.00    +0.000 NA
ATOM     16  H   UNL     1      45.799   4.732   6.881  0.00  0.00    +0.000 HD
ENDBRANCH   9  11
ENDBRANCH   8   9
ENDBRANCH   5   8
ENDBRANCH   1   2
BRANCH   1  19
ATOM     17  O   UNL     1      50.069   6.611  15.310  0.00  0.00    +0.000 OA
ATOM     18  C   UNL     1      48.937   6.472  15.765  0.00  0.00    +0.000 C 
ATOM     19  N   UNL     1      47.812   6.597  14.994  0.00  0.00    +0.000 N 
ATOM     20  H   UNL     1      46.904   6.650  15.442  0.00  0.00    +0.000 HD
BRANCH  18  21
ATOM     21  C   UNL     1      48.723   6.103  17.172  0.00  0.00    +0.000 A 
ATOM     22  C   UNL     1      48.976   4.801  17.585  0.00  0.00    +0.000 A 
ATOM     23  S   UNL     1      48.685   4.542  19.245  0.00  0.00    +0.000 S 
ATOM     24  C   UNL     1      48.249   6.171  19.479  0.00  0.00    +0.000 A 
ATOM     25  N   UNL     1      47.918   6.635  20.712  0.00  0.00    +0.000 NA
ATOM     26  C   UNL     1      47.649   7.897  20.755  0.00  0.00    +0.000 A 
ATOM     27  N   UNL     1      47.659   8.732  19.667  0.00  0.00    +0.000 N 
ATOM     28  C   UNL     1      47.917   8.294  18.391  0.00  0.00    +0.000 A 
ATOM     29  O   UNL     1      47.783   9.039  17.425  0.00  0.00    +0.000 OA
ATOM     30  C   UNL     1      48.286   6.891  18.298  0.00  0.00    +0.000 A 
ATOM     31  H   UNL     1      47.404   9.704  19.759  0.00  0.00    +0.000 HD
ENDBRANCH  18  21
ENDBRANCH   1  19
TORSDOF 6
ENDMDL
MODEL 4
REMARK VINA RESULT:    -7.306      2.405      4.144
REMARK INTER + INTRA:         -11.024
REMARK INTER:                  -9.969
REMARK INTRA:                  -1.055
REMARK UNBOUND:                -1.155
REMARK  Name = 
REMARK  6 active torsions:
REMARK  status: ('A' for Active; 'I' for Inactive)
REMARK    1  A    between atoms: C_2  and  C_18
REMARK    2  A    between atoms: N_3  and  C_4
REMARK    3  A    between atoms: C_4  and  C_5
REMARK    4  A    between atoms: C_8  and  C_9
REMARK    5  A    between atoms: C_9  and  N_10
REMARK    6  A    between atoms: N_10  and  C_11
REMARK                            x       y       z     vdW  Elec       q    Type
REMARK                         _______ _______ _______ _____ _____    ______ ____
ROOT
ATOM      1  C   UNL     1      46.705   5.033  14.295  0.00  0.00    +0.000 C 
ENDROOT
BRANCH   1   2
ATOM      2  C   UNL     1      46.120   4.777  12.931  0.00  0.00    +0.000 A 
ATOM      3  C   UNL     1      45.529   3.543  12.631  0.00  0.00    +0.000 A 
ATOM      4  C   UNL     1      44.970   3.310  11.370  0.00  0.00    +0.000 A 
ATOM      5  C   UNL     1      45.000   4.301  10.381  0.00  0.00    +0.000 A 
ATOM      6  C   UNL     1      45.617   5.525  10.675  0.00  0.00    +0.000 A 
ATOM      7  C   UNL     1      46.178   5.759  11.934  0.00  0.00    +0.000 A 
BRANCH   5   8
ATOM      8  C   UNL     1      44.428   4.049   9.004  0.00  0.00    +0.000 C 
BRANCH   8   9
ATOM      9  N   UNL     1      45.348   4.440   7.939  0.00  0.00    +0.000 NA
ATOM     10  H   UNL     1      46.122   4.973   8.332  0.00  0.00    +0.000 HD
BRANCH   9  11
ATOM     11  C   UNL     1      45.902   3.305   7.250  0.00  0.00    +0.000 C 
ATOM     12  C   UNL     1      46.103   2.037   8.070  0.00  0.00    +0.000 C 
ATOM     13  C   UNL     1      47.173   1.308   7.280  0.00  0.00    +0.000 C 
ATOM     14  C   UNL     1      47.988   2.426   6.641  0.00  0.00    +0.000 C 
ATOM     15  N   UNL     1      47.268   3.667   6.928  0.00  0.00    +0.000 NA
ATOM     16  H   UNL     1      47.272   4.297   6.130  0.00  0.00    +0.000 HD
ENDBRANCH   9  11
ENDBRANCH   8   9
ENDBRANCH   5   8
ENDBRANCH   1   2
BRANCH   1  19
ATOM     17  O   UNL     1      48.997   5.696  15.778  0.00  0.00    +0.000 OA
ATOM     18  C   UNL     1      48.471   6.560  15.081  0.00  0.00    +0.000 C 
ATOM     19  N   UNL     1      47.324   6.332  14.367  0.00  0.00    +0.000 N 
ATOM     20  H   UNL     1      47.026   7.008  13.674  0.00  0.00    +0.000 HD
BRANCH  18  21
ATOM     21  C   UNL     1      49.017   7.922  15.015  0.00  0.00    +0.000 A 
ATOM     22  C   UNL     1      49.131   8.672  16.179  0.00  0.00    +0.000 A 
ATOM     23  S   UNL     1      49.789  10.225  15.930  0.00  0.00    +0.000 S 
ATOM     24  C   UNL     1      49.983   9.936  14.263  0.00  0.00    +0.000 A 
ATOM     25  N   UNL     1      50.544  10.871  13.453  0.00  0.00    +0.000 NA
ATOM     26  C   UNL     1      50.669  10.505  12.221  0.00  0.00    +0.000 A 
ATOM     27  N   UNL     1      50.260   9.295  11.723  0.00  0.00    +0.000 N 
ATOM     28  C   UNL     1      49.624   8.348  12.488  0.00  0.00    +0.000 A 
ATOM     29  O   UNL     1      49.150   7.336  11.981  0.00  0.00    +0.000 OA
ATOM     30  C   UNL     1      49.514   8.686  13.897  0.00  0.00    +0.000 A 
ATOM     31  H   UNL     1      50.353   9.083  10.740  0.00  0.00    +0.000 HD
ENDBRANCH  18  21
ENDBRANCH   1  19
TORSDOF 6
ENDMDL
MODEL 5
REMARK VINA RESULT:    -7.296      3.856      8.865
REMARK INTER + INTRA:         -11.010
REMARK INTER:                 -10.067
REMARK INTRA:                  -0.943
REMARK UNBOUND:                -1.155
REMARK  Name = 
REMARK  6 active torsions:
REMARK  status: ('A' for Active; 'I' for Inactive)
REMARK    1  A    between atoms: C_2  and  C_18
REMARK    2  A    between atoms: N_3  and  C_4
REMARK    3  A    between atoms: C_4  and  C_5
REMARK    4  A    between atoms: C_8  and  C_9
REMARK    5  A    between atoms: C_9  and  N_10
REMARK    6  A    between atoms: N_10  and  C_11
REMARK                            x       y       z     vdW  Elec       q    Type
REMARK                         _______ _______ _______ _____ _____    ______ ____
ROOT
ATOM      1  C   UNL     1      47.152   3.328  16.829  0.00  0.00    +0.000 C 
ENDROOT
BRANCH   1   2
ATOM      2  C   UNL     1      48.624   3.372  17.146  0.00  0.00    +0.000 A 
ATOM      3  C   UNL     1      49.229   4.569  17.547  0.00  0.00    +0.000 A 
ATOM      4  C   UNL     1      50.592   4.607  17.860  0.00  0.00    +0.000 A 
ATOM      5  C   UNL     1      51.379   3.452  17.767  0.00  0.00    +0.000 A 
ATOM      6  C   UNL     1      50.776   2.262  17.338  0.00  0.00    +0.000 A 
ATOM      7  C   UNL     1      49.414   2.222  17.024  0.00  0.00    +0.000 A 
BRANCH   5   8
ATOM      8  C   UNL     1      52.859   3.489  18.069  0.00  0.00    +0.000 C 
BRANCH   8   9
ATOM      9  N   UNL     1      53.241   2.530  19.104  0.00  0.00    +0.000 NA
ATOM     10  H   UNL     1      52.422   2.003  19.402  0.00  0.00    +0.000 HD
BRANCH   9  11
ATOM     11  C   UNL     1      54.225   1.588  18.640  0.00  0.00    +0.000 C 
ATOM     12  C   UNL     1      54.734   1.774  17.216  0.00  0.00    +0.000 C 
ATOM     13  C   UNL     1      55.239   0.385  16.872  0.00  0.00    +0.000 C 
ATOM     14  C   UNL     1      54.343  -0.546  17.679  0.00  0.00    +0.000 C 
ATOM     15  N   UNL     1      53.538   0.316  18.544  0.00  0.00    +0.000 NA
ATOM     16  H   UNL     1      53.431  -0.081  19.474  0.00  0.00    +0.000 HD
ENDBRANCH   9  11
ENDBRANCH   8   9
ENDBRANCH   5   8
ENDBRANCH   1   2
BRANCH   1  19
ATOM     17  O   UNL     1      47.254   3.070  14.033  0.00  0.00    +0.000 OA
ATOM     18  C   UNL     1      46.827   4.114  14.518  0.00  0.00    +0.000 C 
ATOM     19  N   UNL     1      46.790   4.338  15.869  0.00  0.00    +0.000 N 
ATOM     20  H   UNL     1      46.271   5.131  16.228  0.00  0.00    +0.000 HD
BRANCH  18  21
ATOM     21  C   UNL     1      46.375   5.220  13.663  0.00  0.00    +0.000 A 
ATOM     22  C   UNL     1      47.219   6.300  13.433  0.00  0.00    +0.000 A 
ATOM     23  S   UNL     1      46.546   7.491  12.417  0.00  0.00    +0.000 S 
ATOM     24  C   UNL     1      45.117   6.589  12.213  0.00  0.00    +0.000 A 
ATOM     25  N   UNL     1      44.118   7.034  11.408  0.00  0.00    +0.000 NA
ATOM     26  C   UNL     1      43.110   6.233  11.311  0.00  0.00    +0.000 A 
ATOM     27  N   UNL     1      43.003   5.034  11.969  0.00  0.00    +0.000 N 
ATOM     28  C   UNL     1      43.954   4.576  12.848  0.00  0.00    +0.000 A 
ATOM     29  O   UNL     1      43.764   3.569  13.521  0.00  0.00    +0.000 OA
ATOM     30  C   UNL     1      45.138   5.414  12.945  0.00  0.00    +0.000 A 
ATOM     31  H   UNL     1      42.172   4.468  11.880  0.00  0.00    +0.000 HD
ENDBRANCH  18  21
ENDBRANCH   1  19
TORSDOF 6
ENDMDL
MODEL 6
REMARK VINA RESULT:    -7.199      1.859      2.401
REMARK INTER + INTRA:         -10.879
REMARK INTER:                 -10.324
REMARK INTRA:                  -0.555
REMARK UNBOUND:                -1.155
REMARK  Name = 
REMARK  6 active torsions:
REMARK  status: ('A' for Active; 'I' for Inactive)
REMARK    1  A    between atoms: C_2  and  C_18
REMARK    2  A    between atoms: N_3  and  C_4
REMARK    3  A    between atoms: C_4  and  C_5
REMARK    4  A    between atoms: C_8  and  C_9
REMARK    5  A    between atoms: C_9  and  N_10
REMARK    6  A    between atoms: N_10  and  C_11
REMARK                            x       y       z     vdW  Elec       q    Type
REMARK                         _______ _______ _______ _____ _____    ______ ____
ROOT
ATOM      1  C   UNL     1      46.834   6.433  13.429  0.00  0.00    +0.000 C 
ENDROOT
BRANCH   1   2
ATOM      2  C   UNL     1      46.152   5.548  12.418  0.00  0.00    +0.000 A 
ATOM      3  C   UNL     1      45.913   6.009  11.117  0.00  0.00    +0.000 A 
ATOM      4  C   UNL     1      45.297   5.183  10.171  0.00  0.00    +0.000 A 
ATOM      5  C   UNL     1      44.898   3.884  10.510  0.00  0.00    +0.000 A 
ATOM      6  C   UNL     1      45.114   3.435  11.821  0.00  0.00    +0.000 A 
ATOM      7  C   UNL     1      45.728   4.261  12.768  0.00  0.00    +0.000 A 
BRANCH   5   8
ATOM      8  C   UNL     1      44.201   2.994   9.507  0.00  0.00    +0.000 C 
BRANCH   8   9
ATOM      9  N   UNL     1      44.612   3.274   8.133  0.00  0.00    +0.000 NA
ATOM     10  H   UNL     1      44.529   4.272   7.947  0.00  0.00    +0.000 HD
BRANCH   9  11
ATOM     11  C   UNL     1      45.976   2.891   7.881  0.00  0.00    +0.000 C 
ATOM     12  C   UNL     1      46.450   2.959   6.435  0.00  0.00    +0.000 C 
ATOM     13  C   UNL     1      47.619   1.992   6.434  0.00  0.00    +0.000 C 
ATOM     14  C   UNL     1      47.248   0.961   7.493  0.00  0.00    +0.000 C 
ATOM     15  N   UNL     1      46.041   1.468   8.146  0.00  0.00    +0.000 NA
ATOM     16  H   UNL     1      46.063   1.312   9.150  0.00  0.00    +0.000 HD
ENDBRANCH   9  11
ENDBRANCH   8   9
ENDBRANCH   5   8
ENDBRANCH   1   2
BRANCH   1  19
ATOM     17  O   UNL     1      49.245   6.352  14.869  0.00  0.00    +0.000 OA
ATOM     18  C   UNL     1      48.259   5.786  15.331  0.00  0.00    +0.000 C 
ATOM     19  N   UNL     1      47.060   5.737  14.669  0.00  0.00    +0.000 N 
ATOM     20  H   UNL     1      46.233   5.417  15.160  0.00  0.00    +0.000 HD
BRANCH  18  21
ATOM     21  C   UNL     1      48.323   5.073  16.614  0.00  0.00    +0.000 A 
ATOM     22  C   UNL     1      48.106   3.700  16.647  0.00  0.00    +0.000 A 
ATOM     23  S   UNL     1      48.223   3.028  18.209  0.00  0.00    +0.000 S 
ATOM     24  C   UNL     1      48.607   4.539  18.892  0.00  0.00    +0.000 A 
ATOM     25  N   UNL     1      48.874   4.659  20.219  0.00  0.00    +0.000 NA
ATOM     26  C   UNL     1      49.192   5.852  20.595  0.00  0.00    +0.000 A 
ATOM     27  N   UNL     1      49.241   6.942  19.765  0.00  0.00    +0.000 N 
ATOM     28  C   UNL     1      48.910   6.884  18.433  0.00  0.00    +0.000 A 
ATOM     29  O   UNL     1      48.834   7.902  17.753  0.00  0.00    +0.000 OA
ATOM     30  C   UNL     1      48.605   5.549  17.946  0.00  0.00    +0.000 A 
ATOM     31  H   UNL     1      49.461   7.859  20.128  0.00  0.00    +0.000 HD
ENDBRANCH  18  21
ENDBRANCH   1  19
TORSDOF 6
ENDMDL
MODEL 7
REMARK VINA RESULT:    -7.123      1.823      2.590
REMARK INTER + INTRA:         -10.776
REMARK INTER:                  -9.883
REMARK INTRA:                  -0.893
REMARK UNBOUND:                -1.155
REMARK  Name = 
REMARK  6 active torsions:
REMARK  status: ('A' for Active; 'I' for Inactive)
REMARK    1  A    between atoms: C_2  and  C_18
REMARK    2  A    between atoms: N_3  and  C_4
REMARK    3  A    between atoms: C_4  and  C_5
REMARK    4  A    between atoms: C_8  and  C_9
REMARK    5  A    between atoms: C_9  and  N_10
REMARK    6  A    between atoms: N_10  and  C_11
REMARK                            x       y       z     vdW  Elec       q    Type
REMARK                         _______ _______ _______ _____ _____    ______ ____
ROOT
ATOM      1  C   UNL     1      47.684   7.085  13.721  0.00  0.00    +0.000 C 
ENDROOT
BRANCH   1   2
ATOM      2  C   UNL     1      46.768   6.269  12.848  0.00  0.00    +0.000 A 
ATOM      3  C   UNL     1      46.399   4.971  13.222  0.00  0.00    +0.000 A 
ATOM      4  C   UNL     1      45.533   4.218  12.421  0.00  0.00    +0.000 A 
ATOM      5  C   UNL     1      45.028   4.745  11.226  0.00  0.00    +0.000 A 
ATOM      6  C   UNL     1      45.421   6.034  10.840  0.00  0.00    +0.000 A 
ATOM      7  C   UNL     1      46.288   6.786  11.639  0.00  0.00    +0.000 A 
BRANCH   5   8
ATOM      8  C   UNL     1      44.119   3.928  10.335  0.00  0.00    +0.000 C 
BRANCH   8   9
ATOM      9  N   UNL     1      44.133   4.392   8.950  0.00  0.00    +0.000 NA
ATOM     10  H   UNL     1      44.581   5.304   8.898  0.00  0.00    +0.000 HD
BRANCH   9  11
ATOM     11  C   UNL     1      44.852   3.498   8.082  0.00  0.00    +0.000 C 
ATOM     12  C   UNL     1      45.438   2.245   8.721  0.00  0.00    +0.000 C 
ATOM     13  C   UNL     1      46.549   1.880   7.755  0.00  0.00    +0.000 C 
ATOM     14  C   UNL     1      47.000   3.220   7.185  0.00  0.00    +0.000 C 
ATOM     15  N   UNL     1      46.048   4.213   7.684  0.00  0.00    +0.000 NA
ATOM     16  H   UNL     1      45.812   4.897   6.970  0.00  0.00    +0.000 HD
ENDBRANCH   9  11
ENDBRANCH   8   9
ENDBRANCH   5   8
ENDBRANCH   1   2
BRANCH   1  19
ATOM     17  O   UNL     1      48.708   8.081  16.141  0.00  0.00    +0.000 OA
ATOM     18  C   UNL     1      48.651   6.866  15.976  0.00  0.00    +0.000 C 
ATOM     19  N   UNL     1      48.212   6.301  14.808  0.00  0.00    +0.000 N 
ATOM     20  H   UNL     1      48.015   5.307  14.779  0.00  0.00    +0.000 HD
BRANCH  18  21
ATOM     21  C   UNL     1      49.109   5.935  17.017  0.00  0.00    +0.000 A 
ATOM     22  C   UNL     1      48.177   5.307  17.834  0.00  0.00    +0.000 A 
ATOM     23  S   UNL     1      48.873   4.256  18.982  0.00  0.00    +0.000 S 
ATOM     24  C   UNL     1      50.442   4.572  18.402  0.00  0.00    +0.000 A 
ATOM     25  N   UNL     1      51.524   3.947  18.937  0.00  0.00    +0.000 NA
ATOM     26  C   UNL     1      52.647   4.247  18.375  0.00  0.00    +0.000 A 
ATOM     27  N   UNL     1      52.787   5.137  17.342  0.00  0.00    +0.000 N 
ATOM     28  C   UNL     1      51.734   5.846  16.817  0.00  0.00    +0.000 A 
ATOM     29  O   UNL     1      51.915   6.732  15.988  0.00  0.00    +0.000 OA
ATOM     30  C   UNL     1      50.437   5.499  17.373  0.00  0.00    +0.000 A 
ATOM     31  H   UNL     1      53.699   5.357  16.969  0.00  0.00    +0.000 HD
ENDBRANCH  18  21
ENDBRANCH   1  19
TORSDOF 6
ENDMDL
MODEL 8
REMARK VINA RESULT:    -6.898      3.981      8.643
REMARK INTER + INTRA:         -10.472
REMARK INTER:                  -9.276
REMARK INTRA:                  -1.196
REMARK UNBOUND:                -1.155
REMARK  Name = 
REMARK  6 active torsions:
REMARK  status: ('A' for Active; 'I' for Inactive)
REMARK    1  A    between atoms: C_2  and  C_18
REMARK    2  A    between atoms: N_3  and  C_4
REMARK    3  A    between atoms: C_4  and  C_5
REMARK    4  A    between atoms: C_8  and  C_9
REMARK    5  A    between atoms: C_9  and  N_10
REMARK    6  A    between atoms: N_10  and  C_11
REMARK                            x       y       z     vdW  Elec       q    Type
REMARK                         _______ _______ _______ _____ _____    ______ ____
ROOT
ATOM      1  C   UNL     1      47.211   3.544  16.677  0.00  0.00    +0.000 C 
ENDROOT
BRANCH   1   2
ATOM      2  C   UNL     1      48.659   3.350  17.042  0.00  0.00    +0.000 A 
ATOM      3  C   UNL     1      49.273   2.103  16.875  0.00  0.00    +0.000 A 
ATOM      4  C   UNL     1      50.623   1.926  17.197  0.00  0.00    +0.000 A 
ATOM      5  C   UNL     1      51.382   2.989  17.702  0.00  0.00    +0.000 A 
ATOM      6  C   UNL     1      50.757   4.229  17.895  0.00  0.00    +0.000 A 
ATOM      7  C   UNL     1      49.407   4.407  17.575  0.00  0.00    +0.000 A 
BRANCH   5   8
ATOM      8  C   UNL     1      52.832   2.801  18.086  0.00  0.00    +0.000 C 
BRANCH   8   9
ATOM      9  N   UNL     1      53.094   1.477  18.645  0.00  0.00    +0.000 NA
ATOM     10  H   UNL     1      52.272   0.887  18.528  0.00  0.00    +0.000 HD
BRANCH   9  11
ATOM     11  C   UNL     1      54.202   0.821  18.002  0.00  0.00    +0.000 C 
ATOM     12  C   UNL     1      54.974   1.634  16.970  0.00  0.00    +0.000 C 
ATOM     13  C   UNL     1      55.615   0.551  16.122  0.00  0.00    +0.000 C 
ATOM     14  C   UNL     1      54.628  -0.608  16.194  0.00  0.00    +0.000 C 
ATOM     15  N   UNL     1      53.620  -0.221  17.181  0.00  0.00    +0.000 NA
ATOM     16  H   UNL     1      53.350  -1.005  17.770  0.00  0.00    +0.000 HD
ENDBRANCH   9  11
ENDBRANCH   8   9
ENDBRANCH   5   8
ENDBRANCH   1   2
BRANCH   1  19
ATOM     17  O   UNL     1      47.246   3.184  13.890  0.00  0.00    +0.000 OA
ATOM     18  C   UNL     1      47.036   4.307  14.341  0.00  0.00    +0.000 C 
ATOM     19  N   UNL     1      47.052   4.576  15.684  0.00  0.00    +0.000 N 
ATOM     20  H   UNL     1      46.702   5.467  16.018  0.00  0.00    +0.000 HD
BRANCH  18  21
ATOM     21  C   UNL     1      46.809   5.454  13.451  0.00  0.00    +0.000 A 
ATOM     22  C   UNL     1      45.712   5.452  12.598  0.00  0.00    +0.000 A 
ATOM     23  S   UNL     1      45.590   6.857  11.639  0.00  0.00    +0.000 S 
ATOM     24  C   UNL     1      46.976   7.535  12.359  0.00  0.00    +0.000 A 
ATOM     25  N   UNL     1      47.407   8.776  12.011  0.00  0.00    +0.000 NA
ATOM     26  C   UNL     1      48.443   9.184  12.664  0.00  0.00    +0.000 A 
ATOM     27  N   UNL     1      49.101   8.451  13.618  0.00  0.00    +0.000 N 
ATOM     28  C   UNL     1      48.745   7.167  13.952  0.00  0.00    +0.000 A 
ATOM     29  O   UNL     1      49.436   6.493  14.709  0.00  0.00    +0.000 OA
ATOM     30  C   UNL     1      47.546   6.683  13.289  0.00  0.00    +0.000 A 
ATOM     31  H   UNL     1      49.929   8.813  14.069  0.00  0.00    +0.000 HD
ENDBRANCH  18  21
ENDBRANCH   1  19
TORSDOF 6
ENDMDL
MODEL 9
REMARK VINA RESULT:    -6.885      3.503      9.342
REMARK INTER + INTRA:         -10.456
REMARK INTER:                  -9.485
REMARK INTRA:                  -0.970
REMARK UNBOUND:                -1.155
REMARK  Name = 
REMARK  6 active torsions:
REMARK  status: ('A' for Active; 'I' for Inactive)
REMARK    1  A    between atoms: C_2  and  C_18
REMARK    2  A    between atoms: N_3  and  C_4
REMARK    3  A    between atoms: C_4  and  C_5
REMARK    4  A    between atoms: C_8  and  C_9
REMARK    5  A    between atoms: C_9  and  N_10
REMARK    6  A    between atoms: N_10  and  C_11
REMARK                            x       y       z     vdW  Elec       q    Type
REMARK                         _______ _______ _______ _____ _____    ______ ____
ROOT
ATOM      1  C   UNL     1      47.133   3.382  16.974  0.00  0.00    +0.000 C 
ENDROOT
BRANCH   1   2
ATOM      2  C   UNL     1      48.617   3.288  17.217  0.00  0.00    +0.000 A 
ATOM      3  C   UNL     1      49.321   4.379  17.740  0.00  0.00    +0.000 A 
ATOM      4  C   UNL     1      50.696   4.288  17.983  0.00  0.00    +0.000 A 
ATOM      5  C   UNL     1      51.395   3.108  17.699  0.00  0.00    +0.000 A 
ATOM      6  C   UNL     1      50.691   2.027  17.149  0.00  0.00    +0.000 A 
ATOM      7  C   UNL     1      49.318   2.118  16.903  0.00  0.00    +0.000 A 
BRANCH   5   8
ATOM      8  C   UNL     1      52.886   3.009  17.926  0.00  0.00    +0.000 C 
BRANCH   8   9
ATOM      9  N   UNL     1      53.215   2.501  19.256  0.00  0.00    +0.000 NA
ATOM     10  H   UNL     1      53.848   1.708  19.173  0.00  0.00    +0.000 HD
BRANCH   9  11
ATOM     11  C   UNL     1      53.857   3.493  20.076  0.00  0.00    +0.000 C 
ATOM     12  C   UNL     1      52.946   4.396  20.900  0.00  0.00    +0.000 C 
ATOM     13  C   UNL     1      53.826   5.608  21.139  0.00  0.00    +0.000 C 
ATOM     14  C   UNL     1      54.721   5.666  19.907  0.00  0.00    +0.000 C 
ATOM     15  N   UNL     1      54.454   4.440  19.155  0.00  0.00    +0.000 NA
ATOM     16  H   UNL     1      55.307   4.043  18.769  0.00  0.00    +0.000 HD
ENDBRANCH   9  11
ENDBRANCH   8   9
ENDBRANCH   5   8
ENDBRANCH   1   2
BRANCH   1  19
ATOM     17  O   UNL     1      47.208   2.992  14.192  0.00  0.00    +0.000 OA
ATOM     18  C   UNL     1      46.843   4.080  14.630  0.00  0.00    +0.000 C 
ATOM     19  N   UNL     1      46.825   4.367  15.969  0.00  0.00    +0.000 N 
ATOM     20  H   UNL     1      46.354   5.203  16.293  0.00  0.00    +0.000 HD
BRANCH  18  21
ATOM     21  C   UNL     1      46.451   5.170  13.726  0.00  0.00    +0.000 A 
ATOM     22  C   UNL     1      47.349   6.197  13.460  0.00  0.00    +0.000 A 
ATOM     23  S   UNL     1      46.741   7.376  12.389  0.00  0.00    +0.000 S 
ATOM     24  C   UNL     1      45.271   6.536  12.211  0.00  0.00    +0.000 A 
ATOM     25  N   UNL     1      44.300   6.996  11.379  0.00  0.00    +0.000 NA
ATOM     26  C   UNL     1      43.256   6.241  11.307  0.00  0.00    +0.000 A 
ATOM     27  N   UNL     1      43.086   5.078  12.012  0.00  0.00    +0.000 N 
ATOM     28  C   UNL     1      44.008   4.611  12.917  0.00  0.00    +0.000 A 
ATOM     29  O   UNL     1      43.764   3.642  13.630  0.00  0.00    +0.000 OA
ATOM     30  C   UNL     1      45.230   5.393  12.990  0.00  0.00    +0.000 A 
ATOM     31  H   UNL     1      42.229   4.549  11.940  0.00  0.00    +0.000 HD
ENDBRANCH  18  21
ENDBRANCH   1  19
TORSDOF 6
ENDMDL
