MODEL 1
REMARK VINA RESULT:    -7.694      0.000      0.000
REMARK INTER + INTRA:         -12.808
REMARK INTER:                 -11.292
REMARK INTRA:                  -1.516
REMARK UNBOUND:                -1.516
REMARK  Name = 
REMARK  9 active torsions:
REMARK  status: ('A' for Active; 'I' for Inactive)
REMARK    1  A    between atoms: C_1  and  O_2
REMARK    2  A    between atoms: O_2  and  C_3
REMARK    3  A    between atoms: C_10  and  C_11
REMARK    4  A    between atoms: N_13  and  C_14
REMARK    5  A    between atoms: C_14  and  C_15
REMARK    6  A    between atoms: C_18  and  C_19
REMARK    7  A    between atoms: C_19  and  S_20
REMARK    8  A    between atoms: S_20  and  C_21
REMARK    9  A    between atoms: C_21  and  C_22
REMARK                            x       y       z     vdW  Elec       q    Type
REMARK                         _______ _______ _______ _____ _____    ______ ____
ROOT
ATOM      1  C   UNL     1      48.642   7.106  13.234  0.00  0.00    +0.000 C 
ENDROOT
BRANCH   1   2
ATOM      2  C   UNL     1      47.306   6.412  13.149  0.00  0.00    +0.000 A 
ATOM      3  C   UNL     1      47.217   5.024  13.306  0.00  0.00    +0.000 A 
ATOM      4  C   UNL     1      45.982   4.373  13.215  0.00  0.00    +0.000 A 
ATOM      5  C   UNL     1      44.800   5.095  12.979  0.00  0.00    +0.000 A 
ATOM      6  C   UNL     1      44.896   6.481  12.793  0.00  0.00    +0.000 A 
ATOM      7  C   UNL     1      46.136   7.132  12.873  0.00  0.00    +0.000 A 
BRANCH   5   8
ATOM      8  C   UNL     1      43.460   4.389  12.918  0.00  0.00    +0.000 C 
BRANCH   8   9
ATOM      9  S   UNL     1      43.408   3.161  11.567  0.00  0.00    +0.000 S 
BRANCH   9  10
ATOM     10  C   UNL     1      43.765   4.234  10.140  0.00  0.00    +0.000 C 
BRANCH  10  11
ATOM     11  C   UNL     1      44.802   3.599   9.238  0.00  0.00    +0.000 A 
ATOM     12  C   UNL     1      45.559   4.385   8.354  0.00  0.00    +0.000 A 
ATOM     13  C   UNL     1      46.494   3.796   7.497  0.00  0.00    +0.000 A 
ATOM     14  C   UNL     1      46.675   2.417   7.512  0.00  0.00    +0.000 A 
ATOM     15 CL   UNL     1      47.826   1.691   6.456  0.00  0.00    +0.000 Cl
ATOM     16  C   UNL     1      45.925   1.618   8.372  0.00  0.00    +0.000 A 
ATOM     17  C   UNL     1      44.991   2.207   9.232  0.00  0.00    +0.000 A 
ENDBRANCH  10  11
ENDBRANCH   9  10
ENDBRANCH   8   9
ENDBRANCH   5   8
ENDBRANCH   1   2
BRANCH   1  20
ATOM     18  C   UNL     1      48.864   7.922  15.542  0.00  0.00    +0.000 C 
ATOM     19  O   UNL     1      48.087   8.847  15.313  0.00  0.00    +0.000 OA
ATOM     20  N   UNL     1      49.189   7.018  14.566  0.00  0.00    +0.000 N 
ATOM     21  H   UNL     1      49.850   6.278  14.755  0.00  0.00    +0.000 HD
BRANCH  18  29
ATOM     22  C   UNL     1      49.371   5.196  17.591  0.00  0.00    +0.000 A 
ATOM     23  N   UNL     1      49.718   4.321  18.557  0.00  0.00    +0.000 NA
ATOM     24  C   UNL     1      50.353   4.793  19.634  0.00  0.00    +0.000 A 
ATOM     25  N   UNL     1      50.689   6.057  19.875  0.00  0.00    +0.000 NA
ATOM     26  C   UNL     1      50.334   6.893  18.884  0.00  0.00    +0.000 A 
ATOM     27  S   UNL     1      50.679   8.547  19.027  0.00  0.00    +0.000 S 
ATOM     28  C   UNL     1      49.982   8.873  17.513  0.00  0.00    +0.000 A 
ATOM     29  C   UNL     1      49.484   7.747  16.867  0.00  0.00    +0.000 A 
ATOM     30  C   UNL     1      49.685   6.562  17.698  0.00  0.00    +0.000 A 
BRANCH  22  32
ATOM     31  C   UNL     1      47.426   4.218  16.746  0.00  0.00    +0.000 C 
ATOM     32  O   UNL     1      48.738   4.701  16.470  0.00  0.00    +0.000 OA
ENDBRANCH  22  32
ENDBRANCH  18  29
ENDBRANCH   1  20
TORSDOF 8
ENDMDL
MODEL 2
REMARK VINA RESULT:    -7.379      1.098      1.661
REMARK INTER + INTRA:         -12.345
REMARK INTER:                 -11.156
REMARK INTRA:                  -1.189
REMARK UNBOUND:                -1.516
REMARK  Name = 
REMARK  9 active torsions:
REMARK  status: ('A' for Active; 'I' for Inactive)
REMARK    1  A    between atoms: C_1  and  O_2
REMARK    2  A    between atoms: O_2  and  C_3
REMARK    3  A    between atoms: C_10  and  C_11
REMARK    4  A    between atoms: N_13  and  C_14
REMARK    5  A    between atoms: C_14  and  C_15
REMARK    6  A    between atoms: C_18  and  C_19
REMARK    7  A    between atoms: C_19  and  S_20
REMARK    8  A    between atoms: S_20  and  C_21
REMARK    9  A    between atoms: C_21  and  C_22
REMARK                            x       y       z     vdW  Elec       q    Type
REMARK                         _______ _______ _______ _____ _____    ______ ____
ROOT
ATOM      1  C   UNL     1      47.972   7.524  13.522  0.00  0.00    +0.000 C 
ENDROOT
BRANCH   1   2
ATOM      2  C   UNL     1      46.780   6.624  13.319  0.00  0.00    +0.000 A 
ATOM      3  C   UNL     1      45.553   7.153  12.902  0.00  0.00    +0.000 A 
ATOM      4  C   UNL     1      44.442   6.323  12.725  0.00  0.00    +0.000 A 
ATOM      5  C   UNL     1      44.530   4.939  12.947  0.00  0.00    +0.000 A 
ATOM      6  C   UNL     1      45.752   4.416  13.393  0.00  0.00    +0.000 A 
ATOM      7  C   UNL     1      46.863   5.249  13.581  0.00  0.00    +0.000 A 
BRANCH   5   8
ATOM      8  C   UNL     1      43.331   4.039  12.719  0.00  0.00    +0.000 C 
BRANCH   8   9
ATOM      9  S   UNL     1      43.626   2.861  11.355  0.00  0.00    +0.000 S 
BRANCH   9  10
ATOM     10  C   UNL     1      43.903   4.021   9.979  0.00  0.00    +0.000 C 
BRANCH  10  11
ATOM     11  C   UNL     1      44.939   3.476   9.018  0.00  0.00    +0.000 A 
ATOM     12  C   UNL     1      45.230   2.102   8.986  0.00  0.00    +0.000 A 
ATOM     13  C   UNL     1      46.209   1.601   8.121  0.00  0.00    +0.000 A 
ATOM     14  C   UNL     1      46.909   2.469   7.289  0.00  0.00    +0.000 A 
ATOM     15 CL   UNL     1      48.115   1.852   6.226  0.00  0.00    +0.000 Cl
ATOM     16  C   UNL     1      46.643   3.836   7.315  0.00  0.00    +0.000 A 
ATOM     17  C   UNL     1      45.662   4.338   8.178  0.00  0.00    +0.000 A 
ENDBRANCH  10  11
ENDBRANCH   9  10
ENDBRANCH   8   9
ENDBRANCH   5   8
ENDBRANCH   1   2
BRANCH   1  20
ATOM     18  C   UNL     1      49.063   7.242  15.707  0.00  0.00    +0.000 C 
ATOM     19  O   UNL     1      49.797   6.367  15.252  0.00  0.00    +0.000 OA
ATOM     20  N   UNL     1      48.135   7.863  14.915  0.00  0.00    +0.000 N 
ATOM     21  H   UNL     1      47.517   8.562  15.304  0.00  0.00    +0.000 HD
BRANCH  18  29
ATOM     22  C   UNL     1      48.726   5.567  18.702  0.00  0.00    +0.000 A 
ATOM     23  N   UNL     1      48.674   5.169  19.990  0.00  0.00    +0.000 NA
ATOM     24  C   UNL     1      48.872   6.087  20.940  0.00  0.00    +0.000 A 
ATOM     25  N   UNL     1      49.115   7.382  20.763  0.00  0.00    +0.000 NA
ATOM     26  C   UNL     1      49.168   7.734  19.467  0.00  0.00    +0.000 A 
ATOM     27  S   UNL     1      49.463   9.353  19.055  0.00  0.00    +0.000 S 
ATOM     28  C   UNL     1      49.384   8.997  17.397  0.00  0.00    +0.000 A 
ATOM     29  C   UNL     1      49.143   7.656  17.118  0.00  0.00    +0.000 A 
ATOM     30  C   UNL     1      49.001   6.904  18.363  0.00  0.00    +0.000 A 
BRANCH  22  32
ATOM     31  C   UNL     1      47.172   4.371  17.434  0.00  0.00    +0.000 C 
ATOM     32  O   UNL     1      48.547   4.612  17.724  0.00  0.00    +0.000 OA
ENDBRANCH  22  32
ENDBRANCH  18  29
ENDBRANCH   1  20
TORSDOF 8
ENDMDL
MODEL 3
REMARK VINA RESULT:    -6.880      3.877      8.800
REMARK INTER + INTRA:         -11.614
REMARK INTER:                  -9.271
REMARK INTRA:                  -2.343
REMARK UNBOUND:                -1.516
REMARK  Name = 
REMARK  9 active torsions:
REMARK  status: ('A' for Active; 'I' for Inactive)
REMARK    1  A    between atoms: C_1  and  O_2
REMARK    2  A    between atoms: O_2  and  C_3
REMARK    3  A    between atoms: C_10  and  C_11
REMARK    4  A    between atoms: N_13  and  C_14
REMARK    5  A    between atoms: C_14  and  C_15
REMARK    6  A    between atoms: C_18  and  C_19
REMARK    7  A    between atoms: C_19  and  S_20
REMARK    8  A    between atoms: S_20  and  C_21
REMARK    9  A    between atoms: C_21  and  C_22
REMARK                            x       y       z     vdW  Elec       q    Type
REMARK                         _______ _______ _______ _____ _____    ______ ____
ROOT
ATOM      1  C   UNL     1      47.158   3.370  16.945  0.00  0.00    +0.000 C 
ENDROOT
BRANCH   1   2
ATOM      2  C   UNL     1      48.536   3.582  17.520  0.00  0.00    +0.000 A 
ATOM      3  C   UNL     1      49.622   2.831  17.056  0.00  0.00    +0.000 A 
ATOM      4  C   UNL     1      50.899   3.016  17.596  0.00  0.00    +0.000 A 
ATOM      5  C   UNL     1      51.127   3.965  18.606  0.00  0.00    +0.000 A 
ATOM      6  C   UNL     1      50.032   4.695  19.089  0.00  0.00    +0.000 A 
ATOM      7  C   UNL     1      48.750   4.502  18.555  0.00  0.00    +0.000 A 
BRANCH   5   8
ATOM      8  C   UNL     1      52.520   4.186  19.162  0.00  0.00    +0.000 C 
BRANCH   8   9
ATOM      9  S   UNL     1      53.738   4.470  17.830  0.00  0.00    +0.000 S 
BRANCH   9  10
ATOM     10  C   UNL     1      53.819   6.289  17.849  0.00  0.00    +0.000 C 
BRANCH  10  11
ATOM     11  C   UNL     1      52.485   6.890  17.459  0.00  0.00    +0.000 A 
ATOM     12  C   UNL     1      51.839   7.806  18.305  0.00  0.00    +0.000 A 
ATOM     13  C   UNL     1      50.591   8.337  17.961  0.00  0.00    +0.000 A 
ATOM     14  C   UNL     1      49.977   7.951  16.773  0.00  0.00    +0.000 A 
ATOM     15 CL   UNL     1      48.441   8.604  16.350  0.00  0.00    +0.000 Cl
ATOM     16  C   UNL     1      50.596   7.034  15.927  0.00  0.00    +0.000 A 
ATOM     17  C   UNL     1      51.845   6.504  16.270  0.00  0.00    +0.000 A 
ENDBRANCH  10  11
ENDBRANCH   9  10
ENDBRANCH   8   9
ENDBRANCH   5   8
ENDBRANCH   1   2
BRANCH   1  20
ATOM     18  C   UNL     1      46.991   4.226  14.647  0.00  0.00    +0.000 C 
ATOM     19  O   UNL     1      47.427   3.169  14.197  0.00  0.00    +0.000 OA
ATOM     20  N   UNL     1      46.828   4.404  15.994  0.00  0.00    +0.000 N 
ATOM     21  H   UNL     1      46.496   5.287  16.357  0.00  0.00    +0.000 HD
BRANCH  18  29
ATOM     22  C   UNL     1      44.275   4.888  12.627  0.00  0.00    +0.000 A 
ATOM     23  N   UNL     1      43.345   5.406  11.799  0.00  0.00    +0.000 NA
ATOM     24  C   UNL     1      43.586   6.601  11.252  0.00  0.00    +0.000 A 
ATOM     25  N   UNL     1      44.664   7.358  11.428  0.00  0.00    +0.000 NA
ATOM     26  C   UNL     1      45.560   6.810  12.266  0.00  0.00    +0.000 A 
ATOM     27  S   UNL     1      47.002   7.639  12.601  0.00  0.00    +0.000 S 
ATOM     28  C   UNL     1      47.529   6.402  13.639  0.00  0.00    +0.000 A 
ATOM     29  C   UNL     1      46.631   5.348  13.762  0.00  0.00    +0.000 A 
ATOM     30  C   UNL     1      45.456   5.590  12.927  0.00  0.00    +0.000 A 
BRANCH  22  32
ATOM     31  C   UNL     1      43.524   2.705  12.277  0.00  0.00    +0.000 C 
ATOM     32  O   UNL     1      44.012   3.666  13.210  0.00  0.00    +0.000 OA
ENDBRANCH  22  32
ENDBRANCH  18  29
ENDBRANCH   1  20
TORSDOF 8
ENDMDL
MODEL 4
REMARK VINA RESULT:    -6.774      1.950      2.383
REMARK INTER + INTRA:         -11.458
REMARK INTER:                 -10.355
REMARK INTRA:                  -1.103
REMARK UNBOUND:                -1.516
REMARK  Name = 
REMARK  9 active torsions:
REMARK  status: ('A' for Active; 'I' for Inactive)
REMARK    1  A    between atoms: C_1  and  O_2
REMARK    2  A    between atoms: O_2  and  C_3
REMARK    3  A    between atoms: C_10  and  C_11
REMARK    4  A    between atoms: N_13  and  C_14
REMARK    5  A    between atoms: C_14  and  C_15
REMARK    6  A    between atoms: C_18  and  C_19
REMARK    7  A    between atoms: C_19  and  S_20
REMARK    8  A    between atoms: S_20  and  C_21
REMARK    9  A    between atoms: C_21  and  C_22
REMARK                            x       y       z     vdW  Elec       q    Type
REMARK                         _______ _______ _______ _____ _____    ______ ____
ROOT
ATOM      1  C   UNL     1      48.491   6.407  14.451  0.00  0.00    +0.000 C 
ENDROOT
BRANCH   1   2
ATOM      2  C   UNL     1      47.225   5.933  13.783  0.00  0.00    +0.000 A 
ATOM      3  C   UNL     1      46.884   4.575  13.790  0.00  0.00    +0.000 A 
ATOM      4  C   UNL     1      45.719   4.129  13.160  0.00  0.00    +0.000 A 
ATOM      5  C   UNL     1      44.854   5.030  12.516  0.00  0.00    +0.000 A 
ATOM      6  C   UNL     1      45.212   6.385  12.486  0.00  0.00    +0.000 A 
ATOM      7  C   UNL     1      46.387   6.831  13.108  0.00  0.00    +0.000 A 
BRANCH   5   8
ATOM      8  C   UNL     1      43.573   4.546  11.867  0.00  0.00    +0.000 C 
BRANCH   8   9
ATOM      9  S   UNL     1      43.761   4.371  10.058  0.00  0.00    +0.000 S 
BRANCH   9  10
ATOM     10  C   UNL     1      44.568   2.741   9.973  0.00  0.00    +0.000 C 
BRANCH  10  11
ATOM     11  C   UNL     1      45.426   2.632   8.730  0.00  0.00    +0.000 A 
ATOM     12  C   UNL     1      46.026   1.411   8.380  0.00  0.00    +0.000 A 
ATOM     13  C   UNL     1      46.844   1.317   7.250  0.00  0.00    +0.000 A 
ATOM     14  C   UNL     1      47.076   2.443   6.465  0.00  0.00    +0.000 A 
ATOM     15 CL   UNL     1      48.085   2.327   5.074  0.00  0.00    +0.000 Cl
ATOM     16  C   UNL     1      46.499   3.665   6.803  0.00  0.00    +0.000 A 
ATOM     17  C   UNL     1      45.678   3.760   7.932  0.00  0.00    +0.000 A 
ENDBRANCH  10  11
ENDBRANCH   9  10
ENDBRANCH   8   9
ENDBRANCH   5   8
ENDBRANCH   1   2
BRANCH   1  20
ATOM     18  C   UNL     1      48.967   8.251  16.005  0.00  0.00    +0.000 C 
ATOM     19  O   UNL     1      49.946   8.586  15.342  0.00  0.00    +0.000 OA
ATOM     20  N   UNL     1      48.195   7.184  15.630  0.00  0.00    +0.000 N 
ATOM     21  H   UNL     1      47.408   6.899  16.196  0.00  0.00    +0.000 HD
BRANCH  18  29
ATOM     22  C   UNL     1      47.950   7.245  19.142  0.00  0.00    +0.000 A 
ATOM     23  N   UNL     1      47.567   7.137  20.431  0.00  0.00    +0.000 NA
ATOM     24  C   UNL     1      47.374   8.263  21.126  0.00  0.00    +0.000 A 
ATOM     25  N   UNL     1      47.516   9.509  20.684  0.00  0.00    +0.000 NA
ATOM     26  C   UNL     1      47.908   9.570  19.401  0.00  0.00    +0.000 A 
ATOM     27  S   UNL     1      48.132  11.085  18.670  0.00  0.00    +0.000 S 
ATOM     28  C   UNL     1      48.583  10.364  17.200  0.00  0.00    +0.000 A 
ATOM     29  C   UNL     1      48.583   8.974  17.230  0.00  0.00    +0.000 A 
ATOM     30  C   UNL     1      48.164   8.501  18.548  0.00  0.00    +0.000 A 
BRANCH  22  32
ATOM     31  C   UNL     1      49.305   5.357  18.910  0.00  0.00    +0.000 C 
ATOM     32  O   UNL     1      48.172   6.081  18.436  0.00  0.00    +0.000 OA
ENDBRANCH  22  32
ENDBRANCH  18  29
ENDBRANCH   1  20
TORSDOF 8
ENDMDL
MODEL 5
REMARK VINA RESULT:    -6.676      3.183      4.910
REMARK INTER + INTRA:         -11.314
REMARK INTER:                  -9.522
REMARK INTRA:                  -1.792
REMARK UNBOUND:                -1.516
REMARK  Name = 
REMARK  9 active torsions:
REMARK  status: ('A' for Active; 'I' for Inactive)
REMARK    1  A    between atoms: C_1  and  O_2
REMARK    2  A    between atoms: O_2  and  C_3
REMARK    3  A    between atoms: C_10  and  C_11
REMARK    4  A    between atoms: N_13  and  C_14
REMARK    5  A    between atoms: C_14  and  C_15
REMARK    6  A    between atoms: C_18  and  C_19
REMARK    7  A    between atoms: C_19  and  S_20
REMARK    8  A    between atoms: S_20  and  C_21
REMARK    9  A    between atoms: C_21  and  C_22
REMARK                            x       y       z     vdW  Elec       q    Type
REMARK                         _______ _______ _______ _____ _____    ______ ____
ROOT
ATOM      1  C   UNL     1      47.685   3.319  17.037  0.00  0.00    +0.000 C 
ENDROOT
BRANCH   1   2
ATOM      2  C   UNL     1      47.623   4.335  15.925  0.00  0.00    +0.000 A 
ATOM      3  C   UNL     1      46.913   4.060  14.750  0.00  0.00    +0.000 A 
ATOM      4  C   UNL     1      46.863   4.994  13.711  0.00  0.00    +0.000 A 
ATOM      5  C   UNL     1      47.511   6.235  13.822  0.00  0.00    +0.000 A 
ATOM      6  C   UNL     1      48.245   6.497  14.988  0.00  0.00    +0.000 A 
ATOM      7  C   UNL     1      48.304   5.556  16.025  0.00  0.00    +0.000 A 
BRANCH   5   8
ATOM      8  C   UNL     1      47.423   7.258  12.707  0.00  0.00    +0.000 C 
BRANCH   8   9
ATOM      9  S   UNL     1      45.967   8.342  12.903  0.00  0.00    +0.000 S 
BRANCH   9  10
ATOM     10  C   UNL     1      45.029   7.898  11.407  0.00  0.00    +0.000 C 
BRANCH  10  11
ATOM     11  C   UNL     1      44.551   6.463  11.480  0.00  0.00    +0.000 A 
ATOM     12  C   UNL     1      43.657   6.057  12.484  0.00  0.00    +0.000 A 
ATOM     13  C   UNL     1      43.241   4.725  12.573  0.00  0.00    +0.000 A 
ATOM     14  C   UNL     1      43.719   3.787  11.663  0.00  0.00    +0.000 A 
ATOM     15 CL   UNL     1      43.207   2.147  11.773  0.00  0.00    +0.000 Cl
ATOM     16  C   UNL     1      44.616   4.167  10.667  0.00  0.00    +0.000 A 
ATOM     17  C   UNL     1      45.031   5.500  10.577  0.00  0.00    +0.000 A 
ENDBRANCH  10  11
ENDBRANCH   9  10
ENDBRANCH   8   9
ENDBRANCH   5   8
ENDBRANCH   1   2
BRANCH   1  20
ATOM     18  C   UNL     1      49.924   2.308  16.943  0.00  0.00    +0.000 C 
ATOM     19  O   UNL     1      49.601   1.629  15.971  0.00  0.00    +0.000 OA
ATOM     20  N   UNL     1      49.034   3.169  17.527  0.00  0.00    +0.000 N 
ATOM     21  H   UNL     1      49.299   3.703  18.343  0.00  0.00    +0.000 HD
BRANCH  18  29
ATOM     22  C   UNL     1      51.922   4.541  18.650  0.00  0.00    +0.000 A 
ATOM     23  N   UNL     1      52.882   5.182  19.348  0.00  0.00    +0.000 NA
ATOM     24  C   UNL     1      54.003   4.515  19.636  0.00  0.00    +0.000 A 
ATOM     25  N   UNL     1      54.294   3.261  19.304  0.00  0.00    +0.000 NA
ATOM     26  C   UNL     1      53.309   2.656  18.619  0.00  0.00    +0.000 A 
ATOM     27  S   UNL     1      53.515   1.052  18.107  0.00  0.00    +0.000 S 
ATOM     28  C   UNL     1      51.976   1.032  17.389  0.00  0.00    +0.000 A 
ATOM     29  C   UNL     1      51.274   2.224  17.526  0.00  0.00    +0.000 A 
ATOM     30  C   UNL     1      52.083   3.201  18.253  0.00  0.00    +0.000 A 
BRANCH  22  32
ATOM     31  C   UNL     1      50.656   6.451  19.095  0.00  0.00    +0.000 C 
ATOM     32  O   UNL     1      50.756   5.225  18.376  0.00  0.00    +0.000 OA
ENDBRANCH  22  32
ENDBRANCH  18  29
ENDBRANCH   1  20
TORSDOF 8
ENDMDL
MODEL 6
REMARK VINA RESULT:    -6.636      1.575      2.199
REMARK INTER + INTRA:         -11.256
REMARK INTER:                 -10.134
REMARK INTRA:                  -1.122
REMARK UNBOUND:                -1.516
REMARK  Name = 
REMARK  9 active torsions:
REMARK  status: ('A' for Active; 'I' for Inactive)
REMARK    1  A    between atoms: C_1  and  O_2
REMARK    2  A    between atoms: O_2  and  C_3
REMARK    3  A    between atoms: C_10  and  C_11
REMARK    4  A    between atoms: N_13  and  C_14
REMARK    5  A    between atoms: C_14  and  C_15
REMARK    6  A    between atoms: C_18  and  C_19
REMARK    7  A    between atoms: C_19  and  S_20
REMARK    8  A    between atoms: S_20  and  C_21
REMARK    9  A    between atoms: C_21  and  C_22
REMARK                            x       y       z     vdW  Elec       q    Type
REMARK                         _______ _______ _______ _____ _____    ______ ____
ROOT
ATOM      1  C   UNL     1      50.223   7.610  14.242  0.00  0.00    +0.000 C 
ENDROOT
BRANCH   1   2
ATOM      2  C   UNL     1      48.927   7.301  13.536  0.00  0.00    +0.000 A 
ATOM      3  C   UNL     1      48.515   8.068  12.440  0.00  0.00    +0.000 A 
ATOM      4  C   UNL     1      47.308   7.794  11.790  0.00  0.00    +0.000 A 
ATOM      5  C   UNL     1      46.486   6.735  12.209  0.00  0.00    +0.000 A 
ATOM      6  C   UNL     1      46.886   5.986  13.325  0.00  0.00    +0.000 A 
ATOM      7  C   UNL     1      48.092   6.269  13.983  0.00  0.00    +0.000 A 
BRANCH   5   8
ATOM      8  C   UNL     1      45.196   6.419  11.478  0.00  0.00    +0.000 C 
BRANCH   8   9
ATOM      9  S   UNL     1      44.614   4.727  11.844  0.00  0.00    +0.000 S 
BRANCH   9  10
ATOM     10  C   UNL     1      43.780   4.325  10.275  0.00  0.00    +0.000 C 
BRANCH  10  11
ATOM     11  C   UNL     1      44.738   3.651   9.316  0.00  0.00    +0.000 A 
ATOM     12  C   UNL     1      44.925   2.260   9.352  0.00  0.00    +0.000 A 
ATOM     13  C   UNL     1      45.834   1.640   8.488  0.00  0.00    +0.000 A 
ATOM     14  C   UNL     1      46.568   2.406   7.588  0.00  0.00    +0.000 A 
ATOM     15 CL   UNL     1      47.687   1.642   6.526  0.00  0.00    +0.000 Cl
ATOM     16  C   UNL     1      46.406   3.788   7.546  0.00  0.00    +0.000 A 
ATOM     17  C   UNL     1      45.495   4.409   8.407  0.00  0.00    +0.000 A 
ENDBRANCH  10  11
ENDBRANCH   9  10
ENDBRANCH   8   9
ENDBRANCH   5   8
ENDBRANCH   1   2
BRANCH   1  20
ATOM     18  C   UNL     1      51.199   6.904  16.385  0.00  0.00    +0.000 C 
ATOM     19  O   UNL     1      52.298   6.744  15.857  0.00  0.00    +0.000 OA
ATOM     20  N   UNL     1      50.123   7.331  15.655  0.00  0.00    +0.000 N 
ATOM     21  H   UNL     1      49.217   7.434  16.091  0.00  0.00    +0.000 HD
BRANCH  18  29
ATOM     22  C   UNL     1      49.152   4.750  18.133  0.00  0.00    +0.000 A 
ATOM     23  N   UNL     1      48.498   4.008  19.051  0.00  0.00    +0.000 NA
ATOM     24  C   UNL     1      48.770   4.220  20.341  0.00  0.00    +0.000 A 
ATOM     25  N   UNL     1      49.630   5.102  20.843  0.00  0.00    +0.000 NA
ATOM     26  C   UNL     1      50.266   5.812  19.896  0.00  0.00    +0.000 A 
ATOM     27  S   UNL     1      51.396   6.990  20.358  0.00  0.00    +0.000 S 
ATOM     28  C   UNL     1      51.716   7.388  18.738  0.00  0.00    +0.000 A 
ATOM     29  C   UNL     1      50.989   6.640  17.819  0.00  0.00    +0.000 A 
ATOM     30  C   UNL     1      50.110   5.705  18.517  0.00  0.00    +0.000 A 
BRANCH  22  32
ATOM     31  C   UNL     1      48.385   3.197  16.567  0.00  0.00    +0.000 C 
ATOM     32  O   UNL     1      48.886   4.511  16.801  0.00  0.00    +0.000 OA
ENDBRANCH  22  32
ENDBRANCH  18  29
ENDBRANCH   1  20
TORSDOF 8
ENDMDL
MODEL 7
REMARK VINA RESULT:    -6.605      4.764      6.522
REMARK INTER + INTRA:         -11.210
REMARK INTER:                 -10.091
REMARK INTRA:                  -1.119
REMARK UNBOUND:                -1.516
REMARK  Name = 
REMARK  9 active torsions:
REMARK  status: ('A' for Active; 'I' for Inactive)
REMARK    1  A    between atoms: C_1  and  O_2
REMARK    2  A    between atoms: O_2  and  C_3
REMARK    3  A    between atoms: C_10  and  C_11
REMARK    4  A    between atoms: N_13  and  C_14
REMARK    5  A    between atoms: C_14  and  C_15
REMARK    6  A    between atoms: C_18  and  C_19
REMARK    7  A    between atoms: C_19  and  S_20
REMARK    8  A    between atoms: S_20  and  C_21
REMARK    9  A    between atoms: C_21  and  C_22
REMARK                            x       y       z     vdW  Elec       q    Type
REMARK                         _______ _______ _______ _____ _____    ______ ____
ROOT
ATOM      1  C   UNL     1      49.895   7.791  13.051  0.00  0.00    +0.000 C 
ENDROOT
BRANCH   1   2
ATOM      2  C   UNL     1      48.570   7.100  12.853  0.00  0.00    +0.000 A 
ATOM      3  C   UNL     1      47.839   7.289  11.674  0.00  0.00    +0.000 A 
ATOM      4  C   UNL     1      46.603   6.661  11.492  0.00  0.00    +0.000 A 
ATOM      5  C   UNL     1      46.070   5.814  12.478  0.00  0.00    +0.000 A 
ATOM      6  C   UNL     1      46.790   5.649  13.669  0.00  0.00    +0.000 A 
ATOM      7  C   UNL     1      48.024   6.288  13.857  0.00  0.00    +0.000 A 
BRANCH   5   8
ATOM      8  C   UNL     1      44.747   5.107  12.259  0.00  0.00    +0.000 C 
BRANCH   8   9
ATOM      9  S   UNL     1      44.986   3.333  11.897  0.00  0.00    +0.000 S 
BRANCH   9  10
ATOM     10  C   UNL     1      44.114   3.208  10.303  0.00  0.00    +0.000 C 
BRANCH  10  11
ATOM     11  C   UNL     1      45.095   2.979   9.172  0.00  0.00    +0.000 A 
ATOM     12  C   UNL     1      45.546   4.054   8.389  0.00  0.00    +0.000 A 
ATOM     13  C   UNL     1      46.427   3.841   7.324  0.00  0.00    +0.000 A 
ATOM     14  C   UNL     1      46.858   2.551   7.029  0.00  0.00    +0.000 A 
ATOM     15 CL   UNL     1      47.941   2.288   5.716  0.00  0.00    +0.000 Cl
ATOM     16  C   UNL     1      46.412   1.470   7.786  0.00  0.00    +0.000 A 
ATOM     17  C   UNL     1      45.533   1.683   8.853  0.00  0.00    +0.000 A 
ENDBRANCH  10  11
ENDBRANCH   9  10
ENDBRANCH   8   9
ENDBRANCH   5   8
ENDBRANCH   1   2
BRANCH   1  20
ATOM     18  C   UNL     1      51.769   8.414  11.587  0.00  0.00    +0.000 C 
ATOM     19  O   UNL     1      52.579   8.140  12.470  0.00  0.00    +0.000 OA
ATOM     20  N   UNL     1      50.423   8.268  11.796  0.00  0.00    +0.000 N 
ATOM     21  H   UNL     1      49.764   8.522  11.074  0.00  0.00    +0.000 HD
BRANCH  18  29
ATOM     22  C   UNL     1      53.273   6.940   8.857  0.00  0.00    +0.000 A 
ATOM     23  N   UNL     1      53.819   6.626   7.664  0.00  0.00    +0.000 NA
ATOM     24  C   UNL     1      53.952   7.599   6.757  0.00  0.00    +0.000 A 
ATOM     25  N   UNL     1      53.604   8.874   6.896  0.00  0.00    +0.000 NA
ATOM     26  C   UNL     1      53.056   9.142   8.093  0.00  0.00    +0.000 A 
ATOM     27  S   UNL     1      52.558  10.725   8.446  0.00  0.00    +0.000 S 
ATOM     28  C   UNL     1      52.027  10.266   9.992  0.00  0.00    +0.000 A 
ATOM     29  C   UNL     1      52.204   8.916  10.272  0.00  0.00    +0.000 A 
ATOM     30  C   UNL     1      52.834   8.247   9.135  0.00  0.00    +0.000 A 
BRANCH  22  32
ATOM     31  C   UNL     1      54.329   5.598  10.449  0.00  0.00    +0.000 C 
ATOM     32  O   UNL     1      53.115   5.929   9.781  0.00  0.00    +0.000 OA
ENDBRANCH  22  32
ENDBRANCH  18  29
ENDBRANCH   1  20
TORSDOF 8
ENDMDL
MODEL 8
REMARK VINA RESULT:    -6.314      3.603      8.370
REMARK INTER + INTRA:         -10.783
REMARK INTER:                  -8.932
REMARK INTRA:                  -1.851
REMARK UNBOUND:                -1.516
REMARK  Name = 
REMARK  9 active torsions:
REMARK  status: ('A' for Active; 'I' for Inactive)
REMARK    1  A    between atoms: C_1  and  O_2
REMARK    2  A    between atoms: O_2  and  C_3
REMARK    3  A    between atoms: C_10  and  C_11
REMARK    4  A    between atoms: N_13  and  C_14
REMARK    5  A    between atoms: C_14  and  C_15
REMARK    6  A    between atoms: C_18  and  C_19
REMARK    7  A    between atoms: C_19  and  S_20
REMARK    8  A    between atoms: S_20  and  C_21
REMARK    9  A    between atoms: C_21  and  C_22
REMARK                            x       y       z     vdW  Elec       q    Type
REMARK                         _______ _______ _______ _____ _____    ______ ____
ROOT
ATOM      1  C   UNL     1      48.085   8.878  14.132  0.00  0.00    +0.000 C 
ENDROOT
BRANCH   1   2
ATOM      2  C   UNL     1      48.298   8.645  15.606  0.00  0.00    +0.000 A 
ATOM      3  C   UNL     1      48.815   7.428  16.065  0.00  0.00    +0.000 A 
ATOM      4  C   UNL     1      49.002   7.203  17.432  0.00  0.00    +0.000 A 
ATOM      5  C   UNL     1      48.689   8.193  18.378  0.00  0.00    +0.000 A 
ATOM      6  C   UNL     1      48.143   9.400  17.918  0.00  0.00    +0.000 A 
ATOM      7  C   UNL     1      47.946   9.622  16.547  0.00  0.00    +0.000 A 
BRANCH   5   8
ATOM      8  C   UNL     1      48.927   7.956  19.856  0.00  0.00    +0.000 C 
BRANCH   8   9
ATOM      9  S   UNL     1      50.644   7.427  20.183  0.00  0.00    +0.000 S 
BRANCH   9  10
ATOM     10  C   UNL     1      50.351   5.738  20.798  0.00  0.00    +0.000 C 
BRANCH  10  11
ATOM     11  C   UNL     1      50.040   4.798  19.653  0.00  0.00    +0.000 A 
ATOM     12  C   UNL     1      48.761   4.234  19.518  0.00  0.00    +0.000 A 
ATOM     13  C   UNL     1      48.481   3.340  18.479  0.00  0.00    +0.000 A 
ATOM     14  C   UNL     1      49.479   2.997  17.572  0.00  0.00    +0.000 A 
ATOM     15 CL   UNL     1      49.135   1.896  16.294  0.00  0.00    +0.000 Cl
ATOM     16  C   UNL     1      50.758   3.536  17.696  0.00  0.00    +0.000 A 
ATOM     17  C   UNL     1      51.038   4.432  18.733  0.00  0.00    +0.000 A 
ENDBRANCH  10  11
ENDBRANCH   9  10
ENDBRANCH   8   9
ENDBRANCH   5   8
ENDBRANCH   1   2
BRANCH   1  20
ATOM     18  C   UNL     1      46.946   7.296  12.634  0.00  0.00    +0.000 C 
ATOM     19  O   UNL     1      48.006   7.035  12.068  0.00  0.00    +0.000 OA
ATOM     20  N   UNL     1      46.902   8.196  13.664  0.00  0.00    +0.000 N 
ATOM     21  H   UNL     1      46.022   8.426  14.105  0.00  0.00    +0.000 HD
BRANCH  18  29
ATOM     22  C   UNL     1      45.717   4.082  12.860  0.00  0.00    +0.000 A 
ATOM     23  N   UNL     1      44.991   2.946  12.844  0.00  0.00    +0.000 NA
ATOM     24  C   UNL     1      43.766   2.991  12.312  0.00  0.00    +0.000 A 
ATOM     25  N   UNL     1      43.163   4.049  11.779  0.00  0.00    +0.000 NA
ATOM     26  C   UNL     1      43.917   5.161  11.825  0.00  0.00    +0.000 A 
ATOM     27  S   UNL     1      43.306   6.607  11.182  0.00  0.00    +0.000 S 
ATOM     28  C   UNL     1      44.725   7.446  11.593  0.00  0.00    +0.000 A 
ATOM     29  C   UNL     1      45.680   6.661  12.229  0.00  0.00    +0.000 A 
ATOM     30  C   UNL     1      45.198   5.287  12.354  0.00  0.00    +0.000 A 
BRANCH  22  32
ATOM     31  C   UNL     1      46.958   4.384  14.815  0.00  0.00    +0.000 C 
ATOM     32  O   UNL     1      46.972   4.038  13.432  0.00  0.00    +0.000 OA
ENDBRANCH  22  32
ENDBRANCH  18  29
ENDBRANCH   1  20
TORSDOF 8
ENDMDL
MODEL 9
REMARK VINA RESULT:    -6.216      2.100      3.273
REMARK INTER + INTRA:         -10.639
REMARK INTER:                 -10.348
REMARK INTRA:                  -0.291
REMARK UNBOUND:                -1.516
REMARK  Name = 
REMARK  9 active torsions:
REMARK  status: ('A' for Active; 'I' for Inactive)
REMARK    1  A    between atoms: C_1  and  O_2
REMARK    2  A    between atoms: O_2  and  C_3
REMARK    3  A    between atoms: C_10  and  C_11
REMARK    4  A    between atoms: N_13  and  C_14
REMARK    5  A    between atoms: C_14  and  C_15
REMARK    6  A    between atoms: C_18  and  C_19
REMARK    7  A    between atoms: C_19  and  S_20
REMARK    8  A    between atoms: S_20  and  C_21
REMARK    9  A    between atoms: C_21  and  C_22
REMARK                            x       y       z     vdW  Elec       q    Type
REMARK                         _______ _______ _______ _____ _____    ______ ____
ROOT
ATOM      1  C   UNL     1      47.692   4.039  15.900  0.00  0.00    +0.000 C 
ENDROOT
BRANCH   1   2
ATOM      2  C   UNL     1      47.112   4.399  14.557  0.00  0.00    +0.000 A 
ATOM      3  C   UNL     1      46.496   3.423  13.764  0.00  0.00    +0.000 A 
ATOM      4  C   UNL     1      45.968   3.750  12.511  0.00  0.00    +0.000 A 
ATOM      5  C   UNL     1      46.029   5.065  12.021  0.00  0.00    +0.000 A 
ATOM      6  C   UNL     1      46.672   6.035  12.804  0.00  0.00    +0.000 A 
ATOM      7  C   UNL     1      47.211   5.704  14.056  0.00  0.00    +0.000 A 
BRANCH   5   8
ATOM      8  C   UNL     1      45.423   5.421  10.678  0.00  0.00    +0.000 C 
BRANCH   8   9
ATOM      9  S   UNL     1      43.666   4.931  10.583  0.00  0.00    +0.000 S 
BRANCH   9  10
ATOM     10  C   UNL     1      43.844   3.163  10.184  0.00  0.00    +0.000 C 
BRANCH  10  11
ATOM     11  C   UNL     1      44.871   2.962   9.090  0.00  0.00    +0.000 A 
ATOM     12  C   UNL     1      45.150   3.988   8.173  0.00  0.00    +0.000 A 
ATOM     13  C   UNL     1      46.075   3.792   7.142  0.00  0.00    +0.000 A 
ATOM     14  C   UNL     1      46.723   2.568   7.016  0.00  0.00    +0.000 A 
ATOM     15 CL   UNL     1      47.861   2.326   5.746  0.00  0.00    +0.000 Cl
ATOM     16  C   UNL     1      46.452   1.533   7.908  0.00  0.00    +0.000 A 
ATOM     17  C   UNL     1      45.528   1.729   8.941  0.00  0.00    +0.000 A 
ENDBRANCH  10  11
ENDBRANCH   9  10
ENDBRANCH   8   9
ENDBRANCH   5   8
ENDBRANCH   1   2
BRANCH   1  20
ATOM     18  C   UNL     1      48.510   5.869  17.323  0.00  0.00    +0.000 C 
ATOM     19  O   UNL     1      49.662   5.684  16.936  0.00  0.00    +0.000 OA
ATOM     20  N   UNL     1      47.479   5.097  16.858  0.00  0.00    +0.000 N 
ATOM     21  H   UNL     1      46.540   5.238  17.203  0.00  0.00    +0.000 HD
BRANCH  18  29
ATOM     22  C   UNL     1      48.316   9.307  17.154  0.00  0.00    +0.000 A 
ATOM     23  N   UNL     1      48.141  10.628  17.363  0.00  0.00    +0.000 NA
ATOM     24  C   UNL     1      47.785  11.029  18.587  0.00  0.00    +0.000 A 
ATOM     25  N   UNL     1      47.581  10.261  19.652  0.00  0.00    +0.000 NA
ATOM     26  C   UNL     1      47.755   8.953  19.399  0.00  0.00    +0.000 A 
ATOM     27  S   UNL     1      47.541   7.827  20.649  0.00  0.00    +0.000 S 
ATOM     28  C   UNL     1      47.907   6.533  19.611  0.00  0.00    +0.000 A 
ATOM     29  C   UNL     1      48.188   6.918  18.305  0.00  0.00    +0.000 A 
ATOM     30  C   UNL     1      48.109   8.373  18.184  0.00  0.00    +0.000 A 
BRANCH  22  32
ATOM     31  C   UNL     1      48.849   9.983  14.984  0.00  0.00    +0.000 C 
ATOM     32  O   UNL     1      48.659   8.894  15.884  0.00  0.00    +0.000 OA
ENDBRANCH  22  32
ENDBRANCH  18  29
ENDBRANCH   1  20
TORSDOF 8
ENDMDL
