MODEL 1
REMARK VINA RESULT:    -8.286      0.000      0.000
REMARK INTER + INTRA:         -12.179
REMARK INTER:                 -11.192
REMARK INTRA:                  -0.987
REMARK UNBOUND:                -0.987
REMARK  Name = 
REMARK  10 active torsions:
REMARK  status: ('A' for Active; 'I' for Inactive)
REMARK    1  A    between atoms: C_1  and  O_2
REMARK    2  A    between atoms: O_2  and  C_3
REMARK    3  A    between atoms: N_7  and  C_8
REMARK    4  A    between atoms: C_8  and  C_9
REMARK    5  A    between atoms: C_9  and  C_10
REMARK    6  A    between atoms: C_9  and  C_11
REMARK    7  A    between atoms: C_9  and  C_12
REMARK    8  A    between atoms: C_17  and  O_18
REMARK    9  A    between atoms: O_18  and  C_19
REMARK   10  A    between atoms: N_21  and  C_22
REMARK                            x       y       z     vdW  Elec       q    Type
REMARK                         _______ _______ _______ _____ _____    ______ ____
ROOT
ATOM      1  C   UNL     1      43.808   4.472  11.768  0.00  0.00    +0.000 C 
ATOM      2  C   UNL     1      42.703   5.490  12.150  0.00  0.00    +0.000 C 
ATOM      3  C   UNL     1      43.499   3.136  12.488  0.00  0.00    +0.000 C 
ENDROOT
BRANCH   1   4
ATOM      4  C   UNL     1      45.169   5.033  12.235  0.00  0.00    +0.000 A 
ATOM      5  C   UNL     1      45.700   6.182  11.630  0.00  0.00    +0.000 A 
ATOM      6  C   UNL     1      46.919   6.725  12.048  0.00  0.00    +0.000 A 
ATOM      7  C   UNL     1      47.650   6.141  13.089  0.00  0.00    +0.000 A 
ATOM      8 CL   UNL     1      49.079   6.979  13.565  0.00  0.00    +0.000 Cl
ATOM      9  C   UNL     1      47.167   4.982  13.695  0.00  0.00    +0.000 A 
ATOM     10  C   UNL     1      45.936   4.445  13.260  0.00  0.00    +0.000 A 
BRANCH   9  11
ATOM     11  O   UNL     1      47.688   4.292  14.765  0.00  0.00    +0.000 OA
BRANCH  11  12
ATOM     12  C   UNL     1      47.583   4.787  16.119  0.00  0.00    +0.000 C 
ATOM     13  C   UNL     1      48.850   5.305  16.831  0.00  0.00    +0.000 C 
ATOM     14  N   UNL     1      48.670   4.327  17.919  0.00  0.00    +0.000 NA
ATOM     15  C   UNL     1      48.177   4.978  19.132  0.00  0.00    +0.000 C 
ATOM     16  C   UNL     1      47.562   3.681  17.197  0.00  0.00    +0.000 C 
ENDBRANCH  11  12
ENDBRANCH   9  11
ENDBRANCH   1   4
BRANCH   1  17
ATOM     17  C   UNL     1      43.681   4.247  10.228  0.00  0.00    +0.000 C 
BRANCH  17  22
ATOM     18  C   UNL     1      47.116   2.128   7.051  0.00  0.00    +0.000 A 
ATOM     19  C   UNL     1      46.655   3.431   7.162  0.00  0.00    +0.000 A 
ATOM     20  C   UNL     1      45.656   3.730   8.089  0.00  0.00    +0.000 A 
ATOM     21  C   UNL     1      45.141   2.727   8.902  0.00  0.00    +0.000 A 
ATOM     22  N   UNL     1      44.129   2.934   9.805  0.00  0.00    +0.000 N 
ATOM     23  N   UNL     1      45.588   1.461   8.820  0.00  0.00    +0.000 NA
ATOM     24  C   UNL     1      46.552   1.188   7.902  0.00  0.00    +0.000 A 
ATOM     25  H   UNL     1      43.991   2.127  10.406  0.00  0.00    +0.000 HD
BRANCH  18  27
ATOM     26  C   UNL     1      48.152   2.358   4.936  0.00  0.00    +0.000 C 
ATOM     27  O   UNL     1      48.070   1.678   6.183  0.00  0.00    +0.000 OA
ENDBRANCH  18  27
ENDBRANCH  17  22
ENDBRANCH   1  17
TORSDOF 6
ENDMDL
MODEL 2
REMARK VINA RESULT:    -7.620      3.273      5.221
REMARK INTER + INTRA:         -11.280
REMARK INTER:                 -10.264
REMARK INTRA:                  -1.017
REMARK UNBOUND:                -0.987
REMARK  Name = 
REMARK  10 active torsions:
REMARK  status: ('A' for Active; 'I' for Inactive)
REMARK    1  A    between atoms: C_1  and  O_2
REMARK    2  A    between atoms: O_2  and  C_3
REMARK    3  A    between atoms: N_7  and  C_8
REMARK    4  A    between atoms: C_8  and  C_9
REMARK    5  A    between atoms: C_9  and  C_10
REMARK    6  A    between atoms: C_9  and  C_11
REMARK    7  A    between atoms: C_9  and  C_12
REMARK    8  A    between atoms: C_17  and  O_18
REMARK    9  A    between atoms: O_18  and  C_19
REMARK   10  A    between atoms: N_21  and  C_22
REMARK                            x       y       z     vdW  Elec       q    Type
REMARK                         _______ _______ _______ _____ _____    ______ ____
ROOT
ATOM      1  C   UNL     1      44.071   4.843  11.988  0.00  0.00    +0.000 C 
ATOM      2  C   UNL     1      42.823   5.197  12.837  0.00  0.00    +0.000 C 
ATOM      3  C   UNL     1      44.674   3.530  12.545  0.00  0.00    +0.000 C 
ENDROOT
BRANCH   1   4
ATOM      4  C   UNL     1      45.088   5.999  12.113  0.00  0.00    +0.000 A 
ATOM      5  C   UNL     1      46.407   5.734  12.511  0.00  0.00    +0.000 A 
ATOM      6  C   UNL     1      47.355   6.757  12.610  0.00  0.00    +0.000 A 
ATOM      7  C   UNL     1      47.019   8.083  12.312  0.00  0.00    +0.000 A 
ATOM      8 CL   UNL     1      48.314   9.218  12.377  0.00  0.00    +0.000 Cl
ATOM      9  C   UNL     1      45.710   8.388  11.941  0.00  0.00    +0.000 A 
ATOM     10  C   UNL     1      44.765   7.344  11.847  0.00  0.00    +0.000 A 
BRANCH   9  11
ATOM     11  O   UNL     1      45.190   9.600  11.548  0.00  0.00    +0.000 OA
BRANCH  11  12
ATOM     12  C   UNL     1      43.870   9.714  10.971  0.00  0.00    +0.000 C 
ATOM     13  C   UNL     1      43.699  10.446   9.624  0.00  0.00    +0.000 C 
ATOM     14  N   UNL     1      42.752  11.399  10.232  0.00  0.00    +0.000 NA
ATOM     15  C   UNL     1      41.379  11.107   9.821  0.00  0.00    +0.000 C 
ATOM     16  C   UNL     1      43.013  10.850  11.573  0.00  0.00    +0.000 C 
ENDBRANCH  11  12
ENDBRANCH   9  11
ENDBRANCH   1   4
BRANCH   1  17
ATOM     17  C   UNL     1      43.553   4.576  10.540  0.00  0.00    +0.000 C 
BRANCH  17  22
ATOM     18  C   UNL     1      46.739   2.236   7.260  0.00  0.00    +0.000 A 
ATOM     19  C   UNL     1      46.035   1.753   8.353  0.00  0.00    +0.000 A 
ATOM     20  C   UNL     1      45.274   2.633   9.123  0.00  0.00    +0.000 A 
ATOM     21  C   UNL     1      45.214   3.979   8.783  0.00  0.00    +0.000 A 
ATOM     22  N   UNL     1      44.523   4.912   9.515  0.00  0.00    +0.000 N 
ATOM     23  N   UNL     1      45.876   4.462   7.716  0.00  0.00    +0.000 NA
ATOM     24  C   UNL     1      46.622   3.591   6.987  0.00  0.00    +0.000 A 
ATOM     25  H   UNL     1      44.472   5.805   9.034  0.00  0.00    +0.000 HD
BRANCH  18  27
ATOM     26  C   UNL     1      48.003   2.177   5.259  0.00  0.00    +0.000 C 
ATOM     27  O   UNL     1      47.538   1.507   6.426  0.00  0.00    +0.000 OA
ENDBRANCH  18  27
ENDBRANCH  17  22
ENDBRANCH   1  17
TORSDOF 6
ENDMDL
MODEL 3
REMARK VINA RESULT:    -7.481      1.856      2.279
REMARK INTER + INTRA:         -11.092
REMARK INTER:                 -10.188
REMARK INTRA:                  -0.904
REMARK UNBOUND:                -0.987
REMARK  Name = 
REMARK  10 active torsions:
REMARK  status: ('A' for Active; 'I' for Inactive)
REMARK    1  A    between atoms: C_1  and  O_2
REMARK    2  A    between atoms: O_2  and  C_3
REMARK    3  A    between atoms: N_7  and  C_8
REMARK    4  A    between atoms: C_8  and  C_9
REMARK    5  A    between atoms: C_9  and  C_10
REMARK    6  A    between atoms: C_9  and  C_11
REMARK    7  A    between atoms: C_9  and  C_12
REMARK    8  A    between atoms: C_17  and  O_18
REMARK    9  A    between atoms: O_18  and  C_19
REMARK   10  A    between atoms: N_21  and  C_22
REMARK                            x       y       z     vdW  Elec       q    Type
REMARK                         _______ _______ _______ _____ _____    ______ ____
ROOT
ATOM      1  C   UNL     1      44.145   4.907  12.037  0.00  0.00    +0.000 C 
ATOM      2  C   UNL     1      42.891   5.149  12.915  0.00  0.00    +0.000 C 
ATOM      3  C   UNL     1      44.883   3.661  12.588  0.00  0.00    +0.000 C 
ENDROOT
BRANCH   1   4
ATOM      4  C   UNL     1      45.051   6.154  12.127  0.00  0.00    +0.000 A 
ATOM      5  C   UNL     1      44.548   7.415  11.775  0.00  0.00    +0.000 A 
ATOM      6  C   UNL     1      45.339   8.564  11.869  0.00  0.00    +0.000 A 
ATOM      7  C   UNL     1      46.661   8.495  12.323  0.00  0.00    +0.000 A 
ATOM      8 CL   UNL     1      47.478  10.004  12.486  0.00  0.00    +0.000 Cl
ATOM      9  C   UNL     1      47.204   7.255  12.656  0.00  0.00    +0.000 A 
ATOM     10  C   UNL     1      46.393   6.104  12.554  0.00  0.00    +0.000 A 
BRANCH   9  11
ATOM     11  O   UNL     1      48.445   6.974  13.178  0.00  0.00    +0.000 OA
BRANCH  11  12
ATOM     12  C   UNL     1      48.806   7.337  14.530  0.00  0.00    +0.000 C 
ATOM     13  C   UNL     1      50.293   7.336  14.938  0.00  0.00    +0.000 C 
ATOM     14  N   UNL     1      50.026   6.365  16.014  0.00  0.00    +0.000 NA
ATOM     15  C   UNL     1      50.054   7.015  17.324  0.00  0.00    +0.000 C 
ATOM     16  C   UNL     1      48.637   6.195  15.557  0.00  0.00    +0.000 C 
ENDBRANCH  11  12
ENDBRANCH   9  11
ENDBRANCH   1   4
BRANCH   1  17
ATOM     17  C   UNL     1      43.618   4.577  10.604  0.00  0.00    +0.000 C 
BRANCH  17  22
ATOM     18  C   UNL     1      46.703   2.201   7.255  0.00  0.00    +0.000 A 
ATOM     19  C   UNL     1      46.019   1.726   8.364  0.00  0.00    +0.000 A 
ATOM     20  C   UNL     1      45.285   2.615   9.150  0.00  0.00    +0.000 A 
ATOM     21  C   UNL     1      45.232   3.962   8.811  0.00  0.00    +0.000 A 
ATOM     22  N   UNL     1      44.569   4.902   9.558  0.00  0.00    +0.000 N 
ATOM     23  N   UNL     1      45.876   4.436   7.729  0.00  0.00    +0.000 NA
ATOM     24  C   UNL     1      46.595   3.557   6.983  0.00  0.00    +0.000 A 
ATOM     25  H   UNL     1      44.517   5.795   9.078  0.00  0.00    +0.000 HD
BRANCH  18  27
ATOM     26  C   UNL     1      48.018   2.158   5.287  0.00  0.00    +0.000 C 
ATOM     27  O   UNL     1      47.475   1.462   6.404  0.00  0.00    +0.000 OA
ENDBRANCH  18  27
ENDBRANCH  17  22
ENDBRANCH   1  17
TORSDOF 6
ENDMDL
MODEL 4
REMARK VINA RESULT:    -6.810      2.896      3.486
REMARK INTER + INTRA:         -10.186
REMARK INTER:                  -9.488
REMARK INTRA:                  -0.698
REMARK UNBOUND:                -0.987
REMARK  Name = 
REMARK  10 active torsions:
REMARK  status: ('A' for Active; 'I' for Inactive)
REMARK    1  A    between atoms: C_1  and  O_2
REMARK    2  A    between atoms: O_2  and  C_3
REMARK    3  A    between atoms: N_7  and  C_8
REMARK    4  A    between atoms: C_8  and  C_9
REMARK    5  A    between atoms: C_9  and  C_10
REMARK    6  A    between atoms: C_9  and  C_11
REMARK    7  A    between atoms: C_9  and  C_12
REMARK    8  A    between atoms: C_17  and  O_18
REMARK    9  A    between atoms: O_18  and  C_19
REMARK   10  A    between atoms: N_21  and  C_22
REMARK                            x       y       z     vdW  Elec       q    Type
REMARK                         _______ _______ _______ _____ _____    ______ ____
ROOT
ATOM      1  C   UNL     1      44.213   4.921  11.819  0.00  0.00    +0.000 C 
ATOM      2  C   UNL     1      43.033   4.801  12.816  0.00  0.00    +0.000 C 
ATOM      3  C   UNL     1      45.288   3.880  12.220  0.00  0.00    +0.000 C 
ENDROOT
BRANCH   1   4
ATOM      4  C   UNL     1      44.787   6.352  11.914  0.00  0.00    +0.000 A 
ATOM      5  C   UNL     1      44.133   7.415  11.274  0.00  0.00    +0.000 A 
ATOM      6  C   UNL     1      44.617   8.724  11.363  0.00  0.00    +0.000 A 
ATOM      7  C   UNL     1      45.772   9.018  12.097  0.00  0.00    +0.000 A 
ATOM      8 CL   UNL     1      46.188  10.687  12.204  0.00  0.00    +0.000 Cl
ATOM      9  C   UNL     1      46.464   7.983  12.723  0.00  0.00    +0.000 A 
ATOM     10  C   UNL     1      45.963   6.666  12.623  0.00  0.00    +0.000 A 
BRANCH   9  11
ATOM     11  O   UNL     1      47.570   8.059  13.538  0.00  0.00    +0.000 OA
BRANCH  11  12
ATOM     12  C   UNL     1      48.810   8.651  13.089  0.00  0.00    +0.000 C 
ATOM     13  C   UNL     1      49.309   8.359  11.659  0.00  0.00    +0.000 C 
ATOM     14  N   UNL     1      50.573   7.811  12.183  0.00  0.00    +0.000 NA
ATOM     15  C   UNL     1      51.676   8.747  11.974  0.00  0.00    +0.000 C 
ATOM     16  C   UNL     1      50.076   7.905  13.565  0.00  0.00    +0.000 C 
ENDBRANCH  11  12
ENDBRANCH   9  11
ENDBRANCH   1   4
BRANCH   1  17
ATOM     17  C   UNL     1      43.643   4.531  10.419  0.00  0.00    +0.000 C 
BRANCH  17  22
ATOM     18  C   UNL     1      47.016   2.320   7.237  0.00  0.00    +0.000 A 
ATOM     19  C   UNL     1      46.599   3.638   7.356  0.00  0.00    +0.000 A 
ATOM     20  C   UNL     1      45.607   3.963   8.282  0.00  0.00    +0.000 A 
ATOM     21  C   UNL     1      45.056   2.972   9.086  0.00  0.00    +0.000 A 
ATOM     22  N   UNL     1      44.048   3.206   9.987  0.00  0.00    +0.000 N 
ATOM     23  N   UNL     1      45.460   1.692   8.995  0.00  0.00    +0.000 NA
ATOM     24  C   UNL     1      46.418   1.394   8.078  0.00  0.00    +0.000 A 
ATOM     25  H   UNL     1      43.881   2.400  10.582  0.00  0.00    +0.000 HD
BRANCH  18  27
ATOM     26  C   UNL     1      47.864   2.311   5.027  0.00  0.00    +0.000 C 
ATOM     27  O   UNL     1      47.957   1.846   6.369  0.00  0.00    +0.000 OA
ENDBRANCH  18  27
ENDBRANCH  17  22
ENDBRANCH   1  17
TORSDOF 6
ENDMDL
MODEL 5
REMARK VINA RESULT:    -6.224      3.613      8.406
REMARK INTER + INTRA:          -9.395
REMARK INTER:                  -8.610
REMARK INTRA:                  -0.784
REMARK UNBOUND:                -0.987
REMARK  Name = 
REMARK  10 active torsions:
REMARK  status: ('A' for Active; 'I' for Inactive)
REMARK    1  A    between atoms: C_1  and  O_2
REMARK    2  A    between atoms: O_2  and  C_3
REMARK    3  A    between atoms: N_7  and  C_8
REMARK    4  A    between atoms: C_8  and  C_9
REMARK    5  A    between atoms: C_9  and  C_10
REMARK    6  A    between atoms: C_9  and  C_11
REMARK    7  A    between atoms: C_9  and  C_12
REMARK    8  A    between atoms: C_17  and  O_18
REMARK    9  A    between atoms: O_18  and  C_19
REMARK   10  A    between atoms: N_21  and  C_22
REMARK                            x       y       z     vdW  Elec       q    Type
REMARK                         _______ _______ _______ _____ _____    ______ ____
ROOT
ATOM      1  C   UNL     1      47.962   4.453  17.558  0.00  0.00    +0.000 C 
ATOM      2  C   UNL     1      47.171   3.119  17.557  0.00  0.00    +0.000 C 
ATOM      3  C   UNL     1      47.304   5.400  18.593  0.00  0.00    +0.000 C 
ENDROOT
BRANCH   1   4
ATOM      4  C   UNL     1      47.885   5.065  16.142  0.00  0.00    +0.000 A 
ATOM      5  C   UNL     1      48.576   6.250  15.851  0.00  0.00    +0.000 A 
ATOM      6  C   UNL     1      48.543   6.814  14.572  0.00  0.00    +0.000 A 
ATOM      7  C   UNL     1      47.821   6.212  13.536  0.00  0.00    +0.000 A 
ATOM      8 CL   UNL     1      47.958   6.962  11.990  0.00  0.00    +0.000 Cl
ATOM      9  C   UNL     1      47.099   5.048  13.795  0.00  0.00    +0.000 A 
ATOM     10  C   UNL     1      47.141   4.492  15.092  0.00  0.00    +0.000 A 
BRANCH   9  11
ATOM     11  O   UNL     1      46.383   4.268  12.916  0.00  0.00    +0.000 OA
BRANCH  11  12
ATOM     12  C   UNL     1      45.219   4.770  12.223  0.00  0.00    +0.000 C 
ATOM     13  C   UNL     1      44.361   5.866  12.888  0.00  0.00    +0.000 C 
ATOM     14  N   UNL     1      43.165   5.008  12.823  0.00  0.00    +0.000 NA
ATOM     15  C   UNL     1      42.254   5.458  11.772  0.00  0.00    +0.000 C 
ATOM     16  C   UNL     1      43.970   3.869  12.350  0.00  0.00    +0.000 C 
ENDBRANCH  11  12
ENDBRANCH   9  11
ENDBRANCH   1   4
BRANCH   1  17
ATOM     17  C   UNL     1      49.402   4.106  18.049  0.00  0.00    +0.000 C 
BRANCH  17  22
ATOM     18  C   UNL     1      53.781   1.451  17.646  0.00  0.00    +0.000 A 
ATOM     19  C   UNL     1      53.545   2.791  17.918  0.00  0.00    +0.000 A 
ATOM     20  C   UNL     1      52.236   3.273  17.910  0.00  0.00    +0.000 A 
ATOM     21  C   UNL     1      51.180   2.410  17.644  0.00  0.00    +0.000 A 
ATOM     22  N   UNL     1      49.872   2.818  17.576  0.00  0.00    +0.000 N 
ATOM     23  N   UNL     1      51.389   1.104  17.396  0.00  0.00    +0.000 NA
ATOM     24  C   UNL     1      52.672   0.657  17.396  0.00  0.00    +0.000 A 
ATOM     25  H   UNL     1      49.234   2.029  17.521  0.00  0.00    +0.000 HD
BRANCH  18  27
ATOM     26  C   UNL     1      55.248   0.021  16.460  0.00  0.00    +0.000 C 
ATOM     27  O   UNL     1      55.001   0.838  17.599  0.00  0.00    +0.000 OA
ENDBRANCH  18  27
ENDBRANCH  17  22
ENDBRANCH   1  17
TORSDOF 6
ENDMDL
MODEL 6
REMARK VINA RESULT:    -6.089      3.175      7.710
REMARK INTER + INTRA:          -9.213
REMARK INTER:                  -8.059
REMARK INTRA:                  -1.154
REMARK UNBOUND:                -0.987
REMARK  Name = 
REMARK  10 active torsions:
REMARK  status: ('A' for Active; 'I' for Inactive)
REMARK    1  A    between atoms: C_1  and  O_2
REMARK    2  A    between atoms: O_2  and  C_3
REMARK    3  A    between atoms: N_7  and  C_8
REMARK    4  A    between atoms: C_8  and  C_9
REMARK    5  A    between atoms: C_9  and  C_10
REMARK    6  A    between atoms: C_9  and  C_11
REMARK    7  A    between atoms: C_9  and  C_12
REMARK    8  A    between atoms: C_17  and  O_18
REMARK    9  A    between atoms: O_18  and  C_19
REMARK   10  A    between atoms: N_21  and  C_22
REMARK                            x       y       z     vdW  Elec       q    Type
REMARK                         _______ _______ _______ _____ _____    ______ ____
ROOT
ATOM      1  C   UNL     1      48.739   9.169  12.566  0.00  0.00    +0.000 C 
ATOM      2  C   UNL     1      48.928  10.049  13.828  0.00  0.00    +0.000 C 
ATOM      3  C   UNL     1      49.622   9.755  11.436  0.00  0.00    +0.000 C 
ENDROOT
BRANCH   1   4
ATOM      4  C   UNL     1      47.249   9.211  12.161  0.00  0.00    +0.000 A 
ATOM      5  C   UNL     1      46.687  10.399  11.671  0.00  0.00    +0.000 A 
ATOM      6  C   UNL     1      45.347  10.459  11.276  0.00  0.00    +0.000 A 
ATOM      7  C   UNL     1      44.520   9.332  11.353  0.00  0.00    +0.000 A 
ATOM      8 CL   UNL     1      42.924   9.528  10.734  0.00  0.00    +0.000 Cl
ATOM      9  C   UNL     1      45.037   8.141  11.862  0.00  0.00    +0.000 A 
ATOM     10  C   UNL     1      46.391   8.097  12.258  0.00  0.00    +0.000 A 
BRANCH   9  11
ATOM     11  O   UNL     1      44.423   6.914  11.964  0.00  0.00    +0.000 OA
BRANCH  11  12
ATOM     12  C   UNL     1      44.635   5.871  10.986  0.00  0.00    +0.000 C 
ATOM     13  C   UNL     1      43.453   4.966  10.583  0.00  0.00    +0.000 C 
ATOM     14  N   UNL     1      44.196   3.763  10.998  0.00  0.00    +0.000 NA
ATOM     15  C   UNL     1      44.676   3.017   9.835  0.00  0.00    +0.000 C 
ATOM     16  C   UNL     1      45.278   4.588  11.560  0.00  0.00    +0.000 C 
ENDBRANCH  11  12
ENDBRANCH   9  11
ENDBRANCH   1   4
BRANCH   1  17
ATOM     17  C   UNL     1      49.282   7.753  12.935  0.00  0.00    +0.000 C 
BRANCH  17  22
ATOM     18  C   UNL     1      47.247   4.369  16.220  0.00  0.00    +0.000 A 
ATOM     19  C   UNL     1      46.982   4.617  14.882  0.00  0.00    +0.000 A 
ATOM     20  C   UNL     1      47.650   5.655  14.230  0.00  0.00    +0.000 A 
ATOM     21  C   UNL     1      48.583   6.420  14.919  0.00  0.00    +0.000 A 
ATOM     22  N   UNL     1      49.247   7.483  14.360  0.00  0.00    +0.000 N 
ATOM     23  N   UNL     1      48.864   6.183  16.213  0.00  0.00    +0.000 NA
ATOM     24  C   UNL     1      48.194   5.177  16.833  0.00  0.00    +0.000 A 
ATOM     25  H   UNL     1      49.990   7.822  14.964  0.00  0.00    +0.000 HD
BRANCH  18  27
ATOM     26  C   UNL     1      47.543   2.633  17.802  0.00  0.00    +0.000 C 
ATOM     27  O   UNL     1      46.663   3.408  16.996  0.00  0.00    +0.000 OA
ENDBRANCH  18  27
ENDBRANCH  17  22
ENDBRANCH   1  17
TORSDOF 6
ENDMDL
MODEL 7
REMARK VINA RESULT:    -6.007      2.698      8.815
REMARK INTER + INTRA:          -9.101
REMARK INTER:                  -8.365
REMARK INTRA:                  -0.736
REMARK UNBOUND:                -0.987
REMARK  Name = 
REMARK  10 active torsions:
REMARK  status: ('A' for Active; 'I' for Inactive)
REMARK    1  A    between atoms: C_1  and  O_2
REMARK    2  A    between atoms: O_2  and  C_3
REMARK    3  A    between atoms: N_7  and  C_8
REMARK    4  A    between atoms: C_8  and  C_9
REMARK    5  A    between atoms: C_9  and  C_10
REMARK    6  A    between atoms: C_9  and  C_11
REMARK    7  A    between atoms: C_9  and  C_12
REMARK    8  A    between atoms: C_17  and  O_18
REMARK    9  A    between atoms: O_18  and  C_19
REMARK   10  A    between atoms: N_21  and  C_22
REMARK                            x       y       z     vdW  Elec       q    Type
REMARK                         _______ _______ _______ _____ _____    ______ ____
ROOT
ATOM      1  C   UNL     1      47.318   6.956  12.509  0.00  0.00    +0.000 C 
ATOM      2  C   UNL     1      46.517   8.157  13.074  0.00  0.00    +0.000 C 
ATOM      3  C   UNL     1      48.055   7.429  11.232  0.00  0.00    +0.000 C 
ENDROOT
BRANCH   1   4
ATOM      4  C   UNL     1      46.323   5.824  12.170  0.00  0.00    +0.000 A 
ATOM      5  C   UNL     1      45.905   4.934  13.169  0.00  0.00    +0.000 A 
ATOM      6  C   UNL     1      44.988   3.914  12.896  0.00  0.00    +0.000 A 
ATOM      7  C   UNL     1      44.453   3.750  11.613  0.00  0.00    +0.000 A 
ATOM      8 CL   UNL     1      43.257   2.520  11.450  0.00  0.00    +0.000 Cl
ATOM      9  C   UNL     1      44.867   4.599  10.588  0.00  0.00    +0.000 A 
ATOM     10  C   UNL     1      45.795   5.623  10.880  0.00  0.00    +0.000 A 
BRANCH   9  11
ATOM     11  O   UNL     1      44.424   4.653   9.286  0.00  0.00    +0.000 OA
BRANCH  11  12
ATOM     12  C   UNL     1      44.857   3.698   8.292  0.00  0.00    +0.000 C 
ATOM     13  C   UNL     1      45.518   2.382   8.750  0.00  0.00    +0.000 C 
ATOM     14  N   UNL     1      46.732   2.689   7.972  0.00  0.00    +0.000 NA
ATOM     15  C   UNL     1      46.802   1.866   6.765  0.00  0.00    +0.000 C 
ATOM     16  C   UNL     1      46.222   4.031   7.648  0.00  0.00    +0.000 C 
ENDBRANCH  11  12
ENDBRANCH   9  11
ENDBRANCH   1   4
BRANCH   1  17
ATOM     17  C   UNL     1      48.384   6.595  13.592  0.00  0.00    +0.000 C 
BRANCH  17  22
ATOM     18  C   UNL     1      49.001   6.138  18.670  0.00  0.00    +0.000 A 
ATOM     19  C   UNL     1      48.925   5.182  17.669  0.00  0.00    +0.000 A 
ATOM     20  C   UNL     1      48.690   5.583  16.353  0.00  0.00    +0.000 A 
ATOM     21  C   UNL     1      48.548   6.932  16.053  0.00  0.00    +0.000 A 
ATOM     22  N   UNL     1      48.273   7.400  14.793  0.00  0.00    +0.000 N 
ATOM     23  N   UNL     1      48.635   7.875  17.010  0.00  0.00    +0.000 NA
ATOM     24  C   UNL     1      48.852   7.463  18.286  0.00  0.00    +0.000 A 
ATOM     25  H   UNL     1      48.353   8.411  14.741  0.00  0.00    +0.000 HD
BRANCH  18  27
ATOM     26  C   UNL     1      48.822   4.616  20.475  0.00  0.00    +0.000 C 
ATOM     27  O   UNL     1      49.205   5.902  20.000  0.00  0.00    +0.000 OA
ENDBRANCH  18  27
ENDBRANCH  17  22
ENDBRANCH   1  17
TORSDOF 6
ENDMDL
MODEL 8
REMARK VINA RESULT:    -5.891      3.838      8.024
REMARK INTER + INTRA:          -8.945
REMARK INTER:                  -8.041
REMARK INTRA:                  -0.904
REMARK UNBOUND:                -0.987
REMARK  Name = 
REMARK  10 active torsions:
REMARK  status: ('A' for Active; 'I' for Inactive)
REMARK    1  A    between atoms: C_1  and  O_2
REMARK    2  A    between atoms: O_2  and  C_3
REMARK    3  A    between atoms: N_7  and  C_8
REMARK    4  A    between atoms: C_8  and  C_9
REMARK    5  A    between atoms: C_9  and  C_10
REMARK    6  A    between atoms: C_9  and  C_11
REMARK    7  A    between atoms: C_9  and  C_12
REMARK    8  A    between atoms: C_17  and  O_18
REMARK    9  A    between atoms: O_18  and  C_19
REMARK   10  A    between atoms: N_21  and  C_22
REMARK                            x       y       z     vdW  Elec       q    Type
REMARK                         _______ _______ _______ _____ _____    ______ ____
ROOT
ATOM      1  C   UNL     1      48.034   8.368  12.849  0.00  0.00    +0.000 C 
ATOM      2  C   UNL     1      49.080   9.458  12.503  0.00  0.00    +0.000 C 
ATOM      3  C   UNL     1      48.508   7.032  12.224  0.00  0.00    +0.000 C 
ENDROOT
BRANCH   1   4
ATOM      4  C   UNL     1      46.675   8.791  12.250  0.00  0.00    +0.000 A 
ATOM      5  C   UNL     1      46.424  10.139  11.960  0.00  0.00    +0.000 A 
ATOM      6  C   UNL     1      45.211  10.547  11.396  0.00  0.00    +0.000 A 
ATOM      7  C   UNL     1      44.206   9.620  11.098  0.00  0.00    +0.000 A 
ATOM      8 CL   UNL     1      42.810  10.253  10.311  0.00  0.00    +0.000 Cl
ATOM      9  C   UNL     1      44.409   8.274  11.399  0.00  0.00    +0.000 A 
ATOM     10  C   UNL     1      45.638   7.879  11.970  0.00  0.00    +0.000 A 
BRANCH   9  11
ATOM     11  O   UNL     1      43.588   7.202  11.134  0.00  0.00    +0.000 OA
BRANCH  11  12
ATOM     12  C   UNL     1      43.936   5.857  11.531  0.00  0.00    +0.000 C 
ATOM     13  C   UNL     1      43.790   4.710  10.510  0.00  0.00    +0.000 C 
ATOM     14  N   UNL     1      42.872   3.989  11.409  0.00  0.00    +0.000 NA
ATOM     15  C   UNL     1      43.538   2.847  12.033  0.00  0.00    +0.000 C 
ATOM     16  C   UNL     1      42.836   5.131  12.337  0.00  0.00    +0.000 C 
ENDBRANCH  11  12
ENDBRANCH   9  11
ENDBRANCH   1   4
BRANCH   1  17
ATOM     17  C   UNL     1      48.053   8.222  14.403  0.00  0.00    +0.000 C 
BRANCH  17  22
ATOM     18  C   UNL     1      50.317   4.772  17.462  0.00  0.00    +0.000 A 
ATOM     19  C   UNL     1      50.767   5.983  16.960  0.00  0.00    +0.000 A 
ATOM     20  C   UNL     1      49.956   6.708  16.085  0.00  0.00    +0.000 A 
ATOM     21  C   UNL     1      48.703   6.221  15.736  0.00  0.00    +0.000 A 
ATOM     22  N   UNL     1      47.868   6.855  14.850  0.00  0.00    +0.000 N 
ATOM     23  N   UNL     1      48.243   5.056  16.227  0.00  0.00    +0.000 NA
ATOM     24  C   UNL     1      49.053   4.359  17.067  0.00  0.00    +0.000 A 
ATOM     25  H   UNL     1      46.945   6.431  14.835  0.00  0.00    +0.000 HD
BRANCH  18  27
ATOM     26  C   UNL     1      51.537   2.760  17.725  0.00  0.00    +0.000 C 
ATOM     27  O   UNL     1      50.998   3.943  18.306  0.00  0.00    +0.000 OA
ENDBRANCH  18  27
ENDBRANCH  17  22
ENDBRANCH   1  17
TORSDOF 6
ENDMDL
MODEL 9
REMARK VINA RESULT:    -5.849      2.894      4.750
REMARK INTER + INTRA:          -8.888
REMARK INTER:                  -8.006
REMARK INTRA:                  -0.882
REMARK UNBOUND:                -0.987
REMARK  Name = 
REMARK  10 active torsions:
REMARK  status: ('A' for Active; 'I' for Inactive)
REMARK    1  A    between atoms: C_1  and  O_2
REMARK    2  A    between atoms: O_2  and  C_3
REMARK    3  A    between atoms: N_7  and  C_8
REMARK    4  A    between atoms: C_8  and  C_9
REMARK    5  A    between atoms: C_9  and  C_10
REMARK    6  A    between atoms: C_9  and  C_11
REMARK    7  A    between atoms: C_9  and  C_12
REMARK    8  A    between atoms: C_17  and  O_18
REMARK    9  A    between atoms: O_18  and  C_19
REMARK   10  A    between atoms: N_21  and  C_22
REMARK                            x       y       z     vdW  Elec       q    Type
REMARK                         _______ _______ _______ _____ _____    ______ ____
ROOT
ATOM      1  C   UNL     1      47.756   8.522  12.653  0.00  0.00    +0.000 C 
ATOM      2  C   UNL     1      48.438   7.438  11.780  0.00  0.00    +0.000 C 
ATOM      3  C   UNL     1      48.095   9.908  12.047  0.00  0.00    +0.000 C 
ENDROOT
BRANCH   1   4
ATOM      4  C   UNL     1      48.313   8.412  14.089  0.00  0.00    +0.000 A 
ATOM      5  C   UNL     1      48.294   9.528  14.937  0.00  0.00    +0.000 A 
ATOM      6  C   UNL     1      48.770   9.450  16.250  0.00  0.00    +0.000 A 
ATOM      7  C   UNL     1      49.278   8.252  16.764  0.00  0.00    +0.000 A 
ATOM      8 CL   UNL     1      49.730   8.279  18.426  0.00  0.00    +0.000 Cl
ATOM      9  C   UNL     1      49.338   7.128  15.941  0.00  0.00    +0.000 A 
ATOM     10  C   UNL     1      48.855   7.224  14.617  0.00  0.00    +0.000 A 
BRANCH   9  11
ATOM     11  O   UNL     1      49.736   5.850  16.260  0.00  0.00    +0.000 OA
BRANCH  11  12
ATOM     12  C   UNL     1      48.927   4.982  17.086  0.00  0.00    +0.000 C 
ATOM     13  C   UNL     1      49.351   3.511  17.271  0.00  0.00    +0.000 C 
ATOM     14  N   UNL     1      48.060   3.043  16.735  0.00  0.00    +0.000 NA
ATOM     15  C   UNL     1      47.201   2.539  17.804  0.00  0.00    +0.000 C 
ATOM     16  C   UNL     1      47.677   4.418  16.374  0.00  0.00    +0.000 C 
ENDBRANCH  11  12
ENDBRANCH   9  11
ENDBRANCH   1   4
BRANCH   1  17
ATOM     17  C   UNL     1      46.219   8.286  12.521  0.00  0.00    +0.000 C 
BRANCH  17  22
ATOM     18  C   UNL     1      44.507   3.683  11.016  0.00  0.00    +0.000 A 
ATOM     19  C   UNL     1      44.661   4.873  10.321  0.00  0.00    +0.000 A 
ATOM     20  C   UNL     1      45.098   6.012  10.999  0.00  0.00    +0.000 A 
ATOM     21  C   UNL     1      45.390   5.943  12.355  0.00  0.00    +0.000 A 
ATOM     22  N   UNL     1      45.784   7.028  13.098  0.00  0.00    +0.000 N 
ATOM     23  N   UNL     1      45.264   4.793  13.041  0.00  0.00    +0.000 NA
ATOM     24  C   UNL     1      44.824   3.698  12.366  0.00  0.00    +0.000 A 
ATOM     25  H   UNL     1      46.093   6.756  14.026  0.00  0.00    +0.000 HD
BRANCH  18  27
ATOM     26  C   UNL     1      44.601   2.133   9.228  0.00  0.00    +0.000 C 
ATOM     27  O   UNL     1      44.072   2.496  10.499  0.00  0.00    +0.000 OA
ENDBRANCH  18  27
ENDBRANCH  17  22
ENDBRANCH   1  17
TORSDOF 6
ENDMDL
