MODEL 1
REMARK VINA RESULT:    -7.166      0.000      0.000
REMARK INTER + INTRA:          -9.956
REMARK INTER:                  -9.260
REMARK INTRA:                  -0.696
REMARK UNBOUND:                -0.696
REMARK  Name = 
REMARK  7 active torsions:
REMARK  status: ('A' for Active; 'I' for Inactive)
REMARK    1  A    between atoms: C_1  and  O_2
REMARK    2  A    between atoms: O_2  and  C_3
REMARK    3  A    between atoms: C_3  and  C_5
REMARK    4  A    between atoms: C_8  and  C_9
REMARK    5  A    between atoms: C_9  and  N_10
REMARK    6  A    between atoms: C_15  and  O_16
REMARK    7  A    between atoms: O_16  and  C_17
REMARK                            x       y       z     vdW  Elec       q    Type
REMARK                         _______ _______ _______ _____ _____    ______ ____
ROOT
ATOM      1  C   UNL     1      43.332   5.210  11.065  0.00  0.00    +0.000 C 
ENDROOT
BRANCH   1   2
ATOM      2  N   UNL     1      44.131   6.293  11.626  0.00  0.00    +0.000 N 
ATOM      3  C   UNL     1      44.260   7.527  11.038  0.00  0.00    +0.000 A 
ATOM      4  C   UNL     1      44.910   8.306  11.968  0.00  0.00    +0.000 A 
ATOM      5  C   UNL     1      45.833   7.390  12.521  0.00  0.00    +0.000 A 
ATOM      6  C   UNL     1      47.150   7.467  13.015  0.00  0.00    +0.000 A 
ATOM      7  C   UNL     1      47.718   6.323  13.582  0.00  0.00    +0.000 A 
ATOM      8  C   UNL     1      46.920   5.203  13.828  0.00  0.00    +0.000 A 
ATOM      9  C   UNL     1      45.620   5.100  13.319  0.00  0.00    +0.000 A 
ATOM     10  C   UNL     1      45.163   6.164  12.539  0.00  0.00    +0.000 A 
BRANCH   7  11
ATOM     11  O   UNL     1      49.032   6.201  13.953  0.00  0.00    +0.000 OA
ATOM     12  C   UNL     1      49.675   7.413  14.345  0.00  0.00    +0.000 C 
ENDBRANCH   7  11
ENDBRANCH   1   2
BRANCH   1  16
ATOM     13  C   UNL     1      45.619   2.572   8.521  0.00  0.00    +0.000 A 
ATOM     14  C   UNL     1      45.690   3.954   8.319  0.00  0.00    +0.000 A 
ATOM     15  C   UNL     1      44.939   4.807   9.133  0.00  0.00    +0.000 A 
ATOM     16  C   UNL     1      44.107   4.294  10.148  0.00  0.00    +0.000 A 
ATOM     17  C   UNL     1      44.042   2.909  10.330  0.00  0.00    +0.000 A 
ATOM     18  C   UNL     1      44.796   2.033   9.518  0.00  0.00    +0.000 A 
BRANCH  13  19
ATOM     19  C   UNL     1      46.384   1.589   7.723  0.00  0.00    +0.000 C 
ATOM     20  O   UNL     1      46.542   0.410   8.020  0.00  0.00    +0.000 OA
BRANCH  19  22
ATOM     21  C   UNL     1      48.235   2.117   6.384  0.00  0.00    +0.000 C 
ATOM     22  O   UNL     1      46.818   2.156   6.552  0.00  0.00    +0.000 OA
ENDBRANCH  19  22
ENDBRANCH  13  19
ENDBRANCH   1  16
TORSDOF 5
ENDMDL
MODEL 2
REMARK VINA RESULT:    -6.736      1.095      6.613
REMARK INTER + INTRA:          -9.401
REMARK INTER:                  -8.649
REMARK INTRA:                  -0.753
REMARK UNBOUND:                -0.696
REMARK  Name = 
REMARK  7 active torsions:
REMARK  status: ('A' for Active; 'I' for Inactive)
REMARK    1  A    between atoms: C_1  and  O_2
REMARK    2  A    between atoms: O_2  and  C_3
REMARK    3  A    between atoms: C_3  and  C_5
REMARK    4  A    between atoms: C_8  and  C_9
REMARK    5  A    between atoms: C_9  and  N_10
REMARK    6  A    between atoms: C_15  and  O_16
REMARK    7  A    between atoms: O_16  and  C_17
REMARK                            x       y       z     vdW  Elec       q    Type
REMARK                         _______ _______ _______ _____ _____    ______ ____
ROOT
ATOM      1  C   UNL     1      44.169   5.851  11.499  0.00  0.00    +0.000 C 
ENDROOT
BRANCH   1   2
ATOM      2  N   UNL     1      44.014   4.484  11.016  0.00  0.00    +0.000 N 
ATOM      3  C   UNL     1      43.718   3.418  11.830  0.00  0.00    +0.000 A 
ATOM      4  C   UNL     1      43.458   2.370  10.975  0.00  0.00    +0.000 A 
ATOM      5  C   UNL     1      44.415   2.581   9.958  0.00  0.00    +0.000 A 
ATOM      6  C   UNL     1      45.195   1.754   9.126  0.00  0.00    +0.000 A 
ATOM      7  C   UNL     1      45.989   2.352   8.145  0.00  0.00    +0.000 A 
ATOM      8  C   UNL     1      45.848   3.715   7.877  0.00  0.00    +0.000 A 
ATOM      9  C   UNL     1      45.100   4.556   8.710  0.00  0.00    +0.000 A 
ATOM     10  C   UNL     1      44.515   3.970   9.833  0.00  0.00    +0.000 A 
BRANCH   7  11
ATOM     11  O   UNL     1      46.915   1.695   7.377  0.00  0.00    +0.000 OA
ATOM     12  C   UNL     1      47.838   2.529   6.677  0.00  0.00    +0.000 C 
ENDBRANCH   7  11
ENDBRANCH   1   2
BRANCH   1  16
ATOM     13  C   UNL     1      48.060   6.776  13.130  0.00  0.00    +0.000 A 
ATOM     14  C   UNL     1      47.688   7.312  11.893  0.00  0.00    +0.000 A 
ATOM     15  C   UNL     1      46.435   7.002  11.359  0.00  0.00    +0.000 A 
ATOM     16  C   UNL     1      45.545   6.151  12.044  0.00  0.00    +0.000 A 
ATOM     17  C   UNL     1      45.938   5.617  13.276  0.00  0.00    +0.000 A 
ATOM     18  C   UNL     1      47.199   5.921  13.831  0.00  0.00    +0.000 A 
BRANCH  13  19
ATOM     19  C   UNL     1      49.357   7.055  13.785  0.00  0.00    +0.000 C 
ATOM     20  O   UNL     1      50.207   7.832  13.363  0.00  0.00    +0.000 OA
BRANCH  19  22
ATOM     21  C   UNL     1      50.183   7.102  15.979  0.00  0.00    +0.000 C 
ATOM     22  O   UNL     1      49.441   6.396  14.985  0.00  0.00    +0.000 OA
ENDBRANCH  19  22
ENDBRANCH  13  19
ENDBRANCH   1  16
TORSDOF 5
ENDMDL
MODEL 3
REMARK VINA RESULT:    -6.073      1.853      7.079
REMARK INTER + INTRA:          -8.544
REMARK INTER:                  -8.882
REMARK INTRA:                   0.337
REMARK UNBOUND:                -0.696
REMARK  Name = 
REMARK  7 active torsions:
REMARK  status: ('A' for Active; 'I' for Inactive)
REMARK    1  A    between atoms: C_1  and  O_2
REMARK    2  A    between atoms: O_2  and  C_3
REMARK    3  A    between atoms: C_3  and  C_5
REMARK    4  A    between atoms: C_8  and  C_9
REMARK    5  A    between atoms: C_9  and  N_10
REMARK    6  A    between atoms: C_15  and  O_16
REMARK    7  A    between atoms: O_16  and  C_17
REMARK                            x       y       z     vdW  Elec       q    Type
REMARK                         _______ _______ _______ _____ _____    ______ ____
ROOT
ATOM      1  C   UNL     1      45.508   6.193  11.604  0.00  0.00    +0.000 C 
ENDROOT
BRANCH   1   2
ATOM      2  N   UNL     1      44.910   4.960  11.103  0.00  0.00    +0.000 N 
ATOM      3  C   UNL     1      44.374   3.991  11.914  0.00  0.00    +0.000 A 
ATOM      4  C   UNL     1      43.742   3.114  11.062  0.00  0.00    +0.000 A 
ATOM      5  C   UNL     1      44.633   3.082   9.966  0.00  0.00    +0.000 A 
ATOM      6  C   UNL     1      45.056   2.104   9.045  0.00  0.00    +0.000 A 
ATOM      7  C   UNL     1      45.912   2.488   8.009  0.00  0.00    +0.000 A 
ATOM      8  C   UNL     1      46.167   3.843   7.789  0.00  0.00    +0.000 A 
ATOM      9  C   UNL     1      45.777   4.825   8.709  0.00  0.00    +0.000 A 
ATOM     10  C   UNL     1      45.136   4.382   9.867  0.00  0.00    +0.000 A 
BRANCH   7  11
ATOM     11  O   UNL     1      46.531   1.625   7.143  0.00  0.00    +0.000 OA
ATOM     12  C   UNL     1      47.866   1.973   6.778  0.00  0.00    +0.000 C 
ENDBRANCH   7  11
ENDBRANCH   1   2
BRANCH   1  16
ATOM     13  C   UNL     1      47.950   5.660  15.126  0.00  0.00    +0.000 A 
ATOM     14  C   UNL     1      48.232   6.712  14.247  0.00  0.00    +0.000 A 
ATOM     15  C   UNL     1      47.451   6.876  13.100  0.00  0.00    +0.000 A 
ATOM     16  C   UNL     1      46.390   5.994  12.813  0.00  0.00    +0.000 A 
ATOM     17  C   UNL     1      46.129   4.943  13.699  0.00  0.00    +0.000 A 
ATOM     18  C   UNL     1      46.906   4.764  14.864  0.00  0.00    +0.000 A 
BRANCH  13  19
ATOM     19  C   UNL     1      48.709   5.412  16.372  0.00  0.00    +0.000 C 
ATOM     20  O   UNL     1      49.902   5.648  16.530  0.00  0.00    +0.000 OA
BRANCH  19  22
ATOM     21  C   UNL     1      48.553   4.366  18.465  0.00  0.00    +0.000 C 
ATOM     22  O   UNL     1      47.872   4.967  17.363  0.00  0.00    +0.000 OA
ENDBRANCH  19  22
ENDBRANCH  13  19
ENDBRANCH   1  16
TORSDOF 5
ENDMDL
MODEL 4
REMARK VINA RESULT:    -6.003      1.460      1.748
REMARK INTER + INTRA:          -8.453
REMARK INTER:                  -7.868
REMARK INTRA:                  -0.585
REMARK UNBOUND:                -0.696
REMARK  Name = 
REMARK  7 active torsions:
REMARK  status: ('A' for Active; 'I' for Inactive)
REMARK    1  A    between atoms: C_1  and  O_2
REMARK    2  A    between atoms: O_2  and  C_3
REMARK    3  A    between atoms: C_3  and  C_5
REMARK    4  A    between atoms: C_8  and  C_9
REMARK    5  A    between atoms: C_9  and  N_10
REMARK    6  A    between atoms: C_15  and  O_16
REMARK    7  A    between atoms: O_16  and  C_17
REMARK                            x       y       z     vdW  Elec       q    Type
REMARK                         _______ _______ _______ _____ _____    ______ ____
ROOT
ATOM      1  C   UNL     1      44.317   6.065  12.321  0.00  0.00    +0.000 C 
ENDROOT
BRANCH   1   2
ATOM      2  N   UNL     1      45.148   7.262  12.368  0.00  0.00    +0.000 N 
ATOM      3  C   UNL     1      44.807   8.450  11.771  0.00  0.00    +0.000 A 
ATOM      4  C   UNL     1      45.736   9.362  12.218  0.00  0.00    +0.000 A 
ATOM      5  C   UNL     1      46.918   8.587  12.237  0.00  0.00    +0.000 A 
ATOM      6  C   UNL     1      48.281   8.829  11.983  0.00  0.00    +0.000 A 
ATOM      7  C   UNL     1      49.195   7.795  12.201  0.00  0.00    +0.000 A 
ATOM      8  C   UNL     1      48.779   6.628  12.846  0.00  0.00    +0.000 A 
ATOM      9  C   UNL     1      47.425   6.360  13.081  0.00  0.00    +0.000 A 
ATOM     10  C   UNL     1      46.507   7.307  12.624  0.00  0.00    +0.000 A 
BRANCH   7  11
ATOM     11  O   UNL     1      50.519   7.830  11.847  0.00  0.00    +0.000 OA
ATOM     12  C   UNL     1      51.353   8.651  12.664  0.00  0.00    +0.000 C 
ENDBRANCH   7  11
ENDBRANCH   1   2
BRANCH   1  16
ATOM     13  C   UNL     1      45.452   3.310   9.194  0.00  0.00    +0.000 A 
ATOM     14  C   UNL     1      45.650   4.682   9.007  0.00  0.00    +0.000 A 
ATOM     15  C   UNL     1      45.270   5.575  10.013  0.00  0.00    +0.000 A 
ATOM     16  C   UNL     1      44.684   5.113  11.208  0.00  0.00    +0.000 A 
ATOM     17  C   UNL     1      44.485   3.738  11.373  0.00  0.00    +0.000 A 
ATOM     18  C   UNL     1      44.865   2.822  10.369  0.00  0.00    +0.000 A 
BRANCH  13  19
ATOM     19  C   UNL     1      45.833   2.286   8.197  0.00  0.00    +0.000 C 
ATOM     20  O   UNL     1      45.961   1.089   8.429  0.00  0.00    +0.000 OA
BRANCH  19  22
ATOM     21  C   UNL     1      47.095   2.439   6.227  0.00  0.00    +0.000 C 
ATOM     22  O   UNL     1      45.933   2.845   6.948  0.00  0.00    +0.000 OA
ENDBRANCH  19  22
ENDBRANCH  13  19
ENDBRANCH   1  16
TORSDOF 5
ENDMDL
MODEL 5
REMARK VINA RESULT:    -5.589      4.484      8.033
REMARK INTER + INTRA:          -7.918
REMARK INTER:                  -7.418
REMARK INTRA:                  -0.500
REMARK UNBOUND:                -0.696
REMARK  Name = 
REMARK  7 active torsions:
REMARK  status: ('A' for Active; 'I' for Inactive)
REMARK    1  A    between atoms: C_1  and  O_2
REMARK    2  A    between atoms: O_2  and  C_3
REMARK    3  A    between atoms: C_3  and  C_5
REMARK    4  A    between atoms: C_8  and  C_9
REMARK    5  A    between atoms: C_9  and  N_10
REMARK    6  A    between atoms: C_15  and  O_16
REMARK    7  A    between atoms: O_16  and  C_17
REMARK                            x       y       z     vdW  Elec       q    Type
REMARK                         _______ _______ _______ _____ _____    ______ ____
ROOT
ATOM      1  C   UNL     1      47.370   4.394  16.207  0.00  0.00    +0.000 C 
ENDROOT
BRANCH   1   2
ATOM      2  N   UNL     1      47.510   5.060  14.917  0.00  0.00    +0.000 N 
ATOM      3  C   UNL     1      47.961   6.349  14.770  0.00  0.00    +0.000 A 
ATOM      4  C   UNL     1      48.140   6.519  13.416  0.00  0.00    +0.000 A 
ATOM      5  C   UNL     1      47.041   5.806  12.886  0.00  0.00    +0.000 A 
ATOM      6  C   UNL     1      46.186   5.958  11.777  0.00  0.00    +0.000 A 
ATOM      7  C   UNL     1      45.239   4.964  11.523  0.00  0.00    +0.000 A 
ATOM      8  C   UNL     1      45.285   3.764  12.237  0.00  0.00    +0.000 A 
ATOM      9  C   UNL     1      46.109   3.607  13.358  0.00  0.00    +0.000 A 
ATOM     10  C   UNL     1      46.869   4.713  13.741  0.00  0.00    +0.000 A 
BRANCH   7  11
ATOM     11  O   UNL     1      44.241   5.051  10.586  0.00  0.00    +0.000 OA
ATOM     12  C   UNL     1      42.949   5.384  11.093  0.00  0.00    +0.000 C 
ENDBRANCH   7  11
ENDBRANCH   1   2
BRANCH   1  16
ATOM     13  C   UNL     1      51.107   2.752  17.619  0.00  0.00    +0.000 A 
ATOM     14  C   UNL     1      50.152   1.900  17.056  0.00  0.00    +0.000 A 
ATOM     15  C   UNL     1      48.937   2.429  16.611  0.00  0.00    +0.000 A 
ATOM     16  C   UNL     1      48.659   3.806  16.730  0.00  0.00    +0.000 A 
ATOM     17  C   UNL     1      49.623   4.640  17.304  0.00  0.00    +0.000 A 
ATOM     18  C   UNL     1      50.856   4.124  17.756  0.00  0.00    +0.000 A 
BRANCH  13  19
ATOM     19  C   UNL     1      52.427   2.292  18.105  0.00  0.00    +0.000 C 
ATOM     20  O   UNL     1      53.315   3.021  18.531  0.00  0.00    +0.000 OA
BRANCH  19  22
ATOM     21  C   UNL     1      53.606   0.397  17.386  0.00  0.00    +0.000 C 
ATOM     22  O   UNL     1      52.488   0.921  18.102  0.00  0.00    +0.000 OA
ENDBRANCH  19  22
ENDBRANCH  13  19
ENDBRANCH   1  16
TORSDOF 5
ENDMDL
MODEL 6
REMARK VINA RESULT:    -5.520      2.785      4.657
REMARK INTER + INTRA:          -7.829
REMARK INTER:                  -7.076
REMARK INTRA:                  -0.753
REMARK UNBOUND:                -0.696
REMARK  Name = 
REMARK  7 active torsions:
REMARK  status: ('A' for Active; 'I' for Inactive)
REMARK    1  A    between atoms: C_1  and  O_2
REMARK    2  A    between atoms: O_2  and  C_3
REMARK    3  A    between atoms: C_3  and  C_5
REMARK    4  A    between atoms: C_8  and  C_9
REMARK    5  A    between atoms: C_9  and  N_10
REMARK    6  A    between atoms: C_15  and  O_16
REMARK    7  A    between atoms: O_16  and  C_17
REMARK                            x       y       z     vdW  Elec       q    Type
REMARK                         _______ _______ _______ _____ _____    ______ ____
ROOT
ATOM      1  C   UNL     1      46.517   7.860  13.109  0.00  0.00    +0.000 C 
ENDROOT
BRANCH   1   2
ATOM      2  N   UNL     1      47.864   7.640  13.624  0.00  0.00    +0.000 N 
ATOM      3  C   UNL     1      48.204   7.774  14.947  0.00  0.00    +0.000 A 
ATOM      4  C   UNL     1      49.488   7.286  15.043  0.00  0.00    +0.000 A 
ATOM      5  C   UNL     1      50.065   7.746  13.838  0.00  0.00    +0.000 A 
ATOM      6  C   UNL     1      51.338   8.201  13.444  0.00  0.00    +0.000 A 
ATOM      7  C   UNL     1      51.555   8.495  12.096  0.00  0.00    +0.000 A 
ATOM      8  C   UNL     1      50.588   8.150  11.148  0.00  0.00    +0.000 A 
ATOM      9  C   UNL     1      49.308   7.723  11.524  0.00  0.00    +0.000 A 
ATOM     10  C   UNL     1      49.037   7.676  12.892  0.00  0.00    +0.000 A 
BRANCH   7  11
ATOM     11  O   UNL     1      52.680   9.095  11.595  0.00  0.00    +0.000 OA
ATOM     12  C   UNL     1      52.511   9.783  10.356  0.00  0.00    +0.000 C 
ENDBRANCH   7  11
ENDBRANCH   1   2
BRANCH   1  16
ATOM     13  C   UNL     1      44.529   4.317  11.641  0.00  0.00    +0.000 A 
ATOM     14  C   UNL     1      45.324   4.233  12.789  0.00  0.00    +0.000 A 
ATOM     15  C   UNL     1      45.978   5.376  13.257  0.00  0.00    +0.000 A 
ATOM     16  C   UNL     1      45.855   6.608  12.583  0.00  0.00    +0.000 A 
ATOM     17  C   UNL     1      45.064   6.670  11.432  0.00  0.00    +0.000 A 
ATOM     18  C   UNL     1      44.394   5.526  10.947  0.00  0.00    +0.000 A 
BRANCH  13  19
ATOM     19  C   UNL     1      43.786   3.168  11.076  0.00  0.00    +0.000 C 
ATOM     20  O   UNL     1      43.083   2.399  11.721  0.00  0.00    +0.000 OA
BRANCH  19  22
ATOM     21  C   UNL     1      44.871   2.183   9.246  0.00  0.00    +0.000 C 
ATOM     22  O   UNL     1      43.916   3.137   9.711  0.00  0.00    +0.000 OA
ENDBRANCH  19  22
ENDBRANCH  13  19
ENDBRANCH   1  16
TORSDOF 5
ENDMDL
MODEL 7
REMARK VINA RESULT:    -5.324      1.544      2.435
REMARK INTER + INTRA:          -7.576
REMARK INTER:                  -7.022
REMARK INTRA:                  -0.554
REMARK UNBOUND:                -0.696
REMARK  Name = 
REMARK  7 active torsions:
REMARK  status: ('A' for Active; 'I' for Inactive)
REMARK    1  A    between atoms: C_1  and  O_2
REMARK    2  A    between atoms: O_2  and  C_3
REMARK    3  A    between atoms: C_3  and  C_5
REMARK    4  A    between atoms: C_8  and  C_9
REMARK    5  A    between atoms: C_9  and  N_10
REMARK    6  A    between atoms: C_15  and  O_16
REMARK    7  A    between atoms: O_16  and  C_17
REMARK                            x       y       z     vdW  Elec       q    Type
REMARK                         _______ _______ _______ _____ _____    ______ ____
ROOT
ATOM      1  C   UNL     1      44.651   4.675  11.605  0.00  0.00    +0.000 C 
ENDROOT
BRANCH   1   2
ATOM      2  N   UNL     1      45.766   4.835  12.532  0.00  0.00    +0.000 N 
ATOM      3  C   UNL     1      45.852   4.183  13.738  0.00  0.00    +0.000 A 
ATOM      4  C   UNL     1      47.124   4.440  14.199  0.00  0.00    +0.000 A 
ATOM      5  C   UNL     1      47.310   5.784  13.803  0.00  0.00    +0.000 A 
ATOM      6  C   UNL     1      47.969   6.907  14.340  0.00  0.00    +0.000 A 
ATOM      7  C   UNL     1      48.008   8.082  13.587  0.00  0.00    +0.000 A 
ATOM      8  C   UNL     1      47.579   8.067  12.258  0.00  0.00    +0.000 A 
ATOM      9  C   UNL     1      46.897   6.970  11.717  0.00  0.00    +0.000 A 
ATOM     10  C   UNL     1      46.651   5.897  12.575  0.00  0.00    +0.000 A 
BRANCH   7  11
ATOM     11  O   UNL     1      48.467   9.291  14.042  0.00  0.00    +0.000 OA
ATOM     12  C   UNL     1      48.912  10.199  13.035  0.00  0.00    +0.000 C 
ENDBRANCH   7  11
ENDBRANCH   1   2
BRANCH   1  16
ATOM     13  C   UNL     1      45.916   3.208   7.744  0.00  0.00    +0.000 A 
ATOM     14  C   UNL     1      46.017   4.574   8.027  0.00  0.00    +0.000 A 
ATOM     15  C   UNL     1      45.594   5.051   9.271  0.00  0.00    +0.000 A 
ATOM     16  C   UNL     1      45.062   4.177  10.240  0.00  0.00    +0.000 A 
ATOM     17  C   UNL     1      44.961   2.816   9.936  0.00  0.00    +0.000 A 
ATOM     18  C   UNL     1      45.385   2.316   8.686  0.00  0.00    +0.000 A 
BRANCH  13  19
ATOM     19  C   UNL     1      46.348   2.604   6.465  0.00  0.00    +0.000 C 
ATOM     20  O   UNL     1      46.199   3.114   5.360  0.00  0.00    +0.000 OA
BRANCH  19  22
ATOM     21  C   UNL     1      48.447   1.586   6.701  0.00  0.00    +0.000 C 
ATOM     22  O   UNL     1      47.027   1.434   6.690  0.00  0.00    +0.000 OA
ENDBRANCH  19  22
ENDBRANCH  13  19
ENDBRANCH   1  16
TORSDOF 5
ENDMDL
MODEL 8
REMARK VINA RESULT:    -5.207      2.703      6.979
REMARK INTER + INTRA:          -7.425
REMARK INTER:                  -6.893
REMARK INTRA:                  -0.532
REMARK UNBOUND:                -0.696
REMARK  Name = 
REMARK  7 active torsions:
REMARK  status: ('A' for Active; 'I' for Inactive)
REMARK    1  A    between atoms: C_1  and  O_2
REMARK    2  A    between atoms: O_2  and  C_3
REMARK    3  A    between atoms: C_3  and  C_5
REMARK    4  A    between atoms: C_8  and  C_9
REMARK    5  A    between atoms: C_9  and  N_10
REMARK    6  A    between atoms: C_15  and  O_16
REMARK    7  A    between atoms: O_16  and  C_17
REMARK                            x       y       z     vdW  Elec       q    Type
REMARK                         _______ _______ _______ _____ _____    ______ ____
ROOT
ATOM      1  C   UNL     1      46.683   7.800  12.966  0.00  0.00    +0.000 C 
ENDROOT
BRANCH   1   2
ATOM      2  N   UNL     1      46.326   6.413  13.240  0.00  0.00    +0.000 N 
ATOM      3  C   UNL     1      47.158   5.524  13.874  0.00  0.00    +0.000 A 
ATOM      4  C   UNL     1      46.383   4.412  14.118  0.00  0.00    +0.000 A 
ATOM      5  C   UNL     1      45.597   4.343  12.946  0.00  0.00    +0.000 A 
ATOM      6  C   UNL     1      45.059   3.308  12.157  0.00  0.00    +0.000 A 
ATOM      7  C   UNL     1      44.229   3.646  11.086  0.00  0.00    +0.000 A 
ATOM      8  C   UNL     1      43.792   4.965  10.939  0.00  0.00    +0.000 A 
ATOM      9  C   UNL     1      44.336   6.010  11.696  0.00  0.00    +0.000 A 
ATOM     10  C   UNL     1      45.351   5.674  12.593  0.00  0.00    +0.000 A 
BRANCH   7  11
ATOM     11  O   UNL     1      43.769   2.766  10.141  0.00  0.00    +0.000 OA
ATOM     12  C   UNL     1      44.709   2.400   9.132  0.00  0.00    +0.000 C 
ENDBRANCH   7  11
ENDBRANCH   1   2
BRANCH   1  16
ATOM     13  C   UNL     1      50.899   8.529  12.376  0.00  0.00    +0.000 A 
ATOM     14  C   UNL     1      50.167   7.882  11.375  0.00  0.00    +0.000 A 
ATOM     15  C   UNL     1      48.805   7.634  11.571  0.00  0.00    +0.000 A 
ATOM     16  C   UNL     1      48.163   8.019  12.765  0.00  0.00    +0.000 A 
ATOM     17  C   UNL     1      48.914   8.656  13.759  0.00  0.00    +0.000 A 
ATOM     18  C   UNL     1      50.289   8.917  13.576  0.00  0.00    +0.000 A 
BRANCH  13  19
ATOM     19  C   UNL     1      52.339   8.849  12.257  0.00  0.00    +0.000 C 
ATOM     20  O   UNL     1      53.056   9.222  13.178  0.00  0.00    +0.000 OA
BRANCH  19  22
ATOM     21  C   UNL     1      53.918   7.710  10.951  0.00  0.00    +0.000 C 
ATOM     22  O   UNL     1      52.787   8.581  10.989  0.00  0.00    +0.000 OA
ENDBRANCH  19  22
ENDBRANCH  13  19
ENDBRANCH   1  16
TORSDOF 5
ENDMDL
MODEL 9
REMARK VINA RESULT:    -5.174      3.440      5.280
REMARK INTER + INTRA:          -7.382
REMARK INTER:                  -6.720
REMARK INTRA:                  -0.662
REMARK UNBOUND:                -0.696
REMARK  Name = 
REMARK  7 active torsions:
REMARK  status: ('A' for Active; 'I' for Inactive)
REMARK    1  A    between atoms: C_1  and  O_2
REMARK    2  A    between atoms: O_2  and  C_3
REMARK    3  A    between atoms: C_3  and  C_5
REMARK    4  A    between atoms: C_8  and  C_9
REMARK    5  A    between atoms: C_9  and  N_10
REMARK    6  A    between atoms: C_15  and  O_16
REMARK    7  A    between atoms: O_16  and  C_17
REMARK                            x       y       z     vdW  Elec       q    Type
REMARK                         _______ _______ _______ _____ _____    ______ ____
ROOT
ATOM      1  C   UNL     1      48.693   6.638  13.344  0.00  0.00    +0.000 C 
ENDROOT
BRANCH   1   2
ATOM      2  N   UNL     1      48.532   7.390  14.584  0.00  0.00    +0.000 N 
ATOM      3  C   UNL     1      48.621   8.757  14.661  0.00  0.00    +0.000 A 
ATOM      4  C   UNL     1      48.210   9.076  15.936  0.00  0.00    +0.000 A 
ATOM      5  C   UNL     1      48.766   8.020  16.693  0.00  0.00    +0.000 A 
ATOM      6  C   UNL     1      49.319   7.891  17.982  0.00  0.00    +0.000 A 
ATOM      7  C   UNL     1      49.693   6.620  18.424  0.00  0.00    +0.000 A 
ATOM      8  C   UNL     1      49.336   5.495  17.678  0.00  0.00    +0.000 A 
ATOM      9  C   UNL     1      48.812   5.605  16.384  0.00  0.00    +0.000 A 
ATOM     10  C   UNL     1      48.679   6.895  15.867  0.00  0.00    +0.000 A 
BRANCH   7  11
ATOM     11  O   UNL     1      50.387   6.364  19.578  0.00  0.00    +0.000 OA
ATOM     12  C   UNL     1      49.861   5.318  20.393  0.00  0.00    +0.000 C 
ENDBRANCH   7  11
ENDBRANCH   1   2
BRANCH   1  16
ATOM     13  C   UNL     1      44.940   5.150  11.807  0.00  0.00    +0.000 A 
ATOM     14  C   UNL     1      45.474   4.594  12.975  0.00  0.00    +0.000 A 
ATOM     15  C   UNL     1      46.695   5.066  13.465  0.00  0.00    +0.000 A 
ATOM     16  C   UNL     1      47.399   6.087  12.795  0.00  0.00    +0.000 A 
ATOM     17  C   UNL     1      46.854   6.624  11.624  0.00  0.00    +0.000 A 
ATOM     18  C   UNL     1      45.621   6.161  11.116  0.00  0.00    +0.000 A 
BRANCH  13  19
ATOM     19  C   UNL     1      43.650   4.730  11.218  0.00  0.00    +0.000 C 
ATOM     20  O   UNL     1      42.764   5.491  10.845  0.00  0.00    +0.000 OA
BRANCH  19  22
ATOM     21  C   UNL     1      44.294   2.910   9.888  0.00  0.00    +0.000 C 
ATOM     22  O   UNL     1      43.616   3.368  11.057  0.00  0.00    +0.000 OA
ENDBRANCH  19  22
ENDBRANCH  13  19
ENDBRANCH   1  16
TORSDOF 5
ENDMDL
