MODEL 1
REMARK VINA RESULT:    -8.529      0.000      0.000
REMARK INTER + INTRA:         -12.345
REMARK INTER:                 -11.272
REMARK INTRA:                  -1.073
REMARK UNBOUND:                -1.073
REMARK  Name = 
REMARK  7 active torsions:
REMARK  status: ('A' for Active; 'I' for Inactive)
REMARK    1  A    between atoms: C_1  and  C_2
REMARK    2  A    between atoms: C_2  and  C_3
REMARK    3  A    between atoms: C_7  and  C_8
REMARK    4  A    between atoms: C_8  and  C_9
REMARK    5  A    between atoms: C_9  and  N_10
REMARK    6  A    between atoms: C_14  and  C_15
REMARK    7  A    between atoms: C_23  and  O_24
REMARK                            x       y       z     vdW  Elec       q    Type
REMARK                         _______ _______ _______ _____ _____    ______ ____
ROOT
ATOM      1  C   UNL     1      46.876   6.572  12.901  0.00  0.00    +0.000 A 
ATOM      2  C   UNL     1      47.460   5.440  13.490  0.00  0.00    +0.000 A 
ATOM      3  C   UNL     1      46.737   4.254  13.649  0.00  0.00    +0.000 A 
ATOM      4  C   UNL     1      45.406   4.173  13.234  0.00  0.00    +0.000 A 
ATOM      5  C   UNL     1      44.790   5.274  12.635  0.00  0.00    +0.000 A 
ATOM      6  C   UNL     1      45.553   6.442  12.453  0.00  0.00    +0.000 A 
ENDROOT
BRANCH   1   8
ATOM      7  C   UNL     1      47.987   8.285  14.308  0.00  0.00    +0.000 C 
ATOM      8  C   UNL     1      47.615   7.930  12.846  0.00  0.00    +0.000 C 
ATOM      9  C   UNL     1      48.885   7.816  11.963  0.00  0.00    +0.000 C 
ATOM     10  C   UNL     1      49.628   9.144  11.785  0.00  0.00    +0.000 C 
ATOM     11  C   UNL     1      48.720  10.250  11.253  0.00  0.00    +0.000 C 
ATOM     12  C   UNL     1      47.465  10.411  12.099  0.00  0.00    +0.000 C 
ATOM     13  C   UNL     1      46.734   9.084  12.266  0.00  0.00    +0.000 C 
BRANCH  11  14
ATOM     14  O   UNL     1      49.430  11.484  11.227  0.00  0.00    +0.000 OA
ATOM     15  H   UNL     1      49.024  12.049  10.545  0.00  0.00    +0.000 HD
ENDBRANCH  11  14
ENDBRANCH   1   8
BRANCH   5  16
ATOM     16  C   UNL     1      43.317   5.210  12.254  0.00  0.00    +0.000 C 
BRANCH  16  17
ATOM     17  C   UNL     1      43.059   4.491  10.924  0.00  0.00    +0.000 C 
BRANCH  17  18
ATOM     18  N   UNL     1      43.833   5.025   9.804  0.00  0.00    +0.000 N 
ATOM     19  C   UNL     1      44.622   4.008   9.214  0.00  0.00    +0.000 A 
ATOM     20  C   UNL     1      45.437   4.334   8.136  0.00  0.00    +0.000 A 
ATOM     21  C   UNL     1      46.217   3.337   7.540  0.00  0.00    +0.000 A 
ATOM     22  C   UNL     1      46.173   2.031   8.030  0.00  0.00    +0.000 A 
ATOM     23  C   UNL     1      45.328   1.792   9.096  0.00  0.00    +0.000 A 
ATOM     24  N   UNL     1      44.560   2.743   9.684  0.00  0.00    +0.000 NA
ATOM     25  H   UNL     1      44.454   5.778  10.092  0.00  0.00    +0.000 HD
BRANCH  22  26
ATOM     26  C   UNL     1      47.017   0.985   7.406  0.00  0.00    +0.000 C 
ATOM     27  N   UNL     1      46.738  -0.333   7.653  0.00  0.00    +0.000 N 
ATOM     28  O   UNL     1      47.958   1.281   6.683  0.00  0.00    +0.000 OA
ATOM     29  H   UNL     1      45.988  -0.690   8.225  0.00  0.00    +0.000 HD
ATOM     30  H   UNL     1      47.341  -1.011   7.201  0.00  0.00    +0.000 HD
ENDBRANCH  22  26
ENDBRANCH  17  18
ENDBRANCH  16  17
ENDBRANCH   5  16
TORSDOF 6
ENDMDL
MODEL 2
REMARK VINA RESULT:    -8.045      3.683      7.613
REMARK INTER + INTRA:         -11.704
REMARK INTER:                 -10.971
REMARK INTRA:                  -0.733
REMARK UNBOUND:                -1.073
REMARK  Name = 
REMARK  7 active torsions:
REMARK  status: ('A' for Active; 'I' for Inactive)
REMARK    1  A    between atoms: C_1  and  C_2
REMARK    2  A    between atoms: C_2  and  C_3
REMARK    3  A    between atoms: C_7  and  C_8
REMARK    4  A    between atoms: C_8  and  C_9
REMARK    5  A    between atoms: C_9  and  N_10
REMARK    6  A    between atoms: C_14  and  C_15
REMARK    7  A    between atoms: C_23  and  O_24
REMARK                            x       y       z     vdW  Elec       q    Type
REMARK                         _______ _______ _______ _____ _____    ______ ____
ROOT
ATOM      1  C   UNL     1      44.948   4.306   9.563  0.00  0.00    +0.000 A 
ATOM      2  C   UNL     1      43.775   3.922  10.229  0.00  0.00    +0.000 A 
ATOM      3  C   UNL     1      43.362   4.570  11.398  0.00  0.00    +0.000 A 
ATOM      4  C   UNL     1      44.120   5.611  11.937  0.00  0.00    +0.000 A 
ATOM      5  C   UNL     1      45.290   6.030  11.300  0.00  0.00    +0.000 A 
ATOM      6  C   UNL     1      45.661   5.386  10.105  0.00  0.00    +0.000 A 
ENDROOT
BRANCH   1   8
ATOM      7  C   UNL     1      44.289   3.290   7.399  0.00  0.00    +0.000 C 
ATOM      8  C   UNL     1      45.491   3.511   8.352  0.00  0.00    +0.000 C 
ATOM      9  C   UNL     1      46.618   4.308   7.646  0.00  0.00    +0.000 C 
ATOM     10  C   UNL     1      47.272   3.549   6.487  0.00  0.00    +0.000 C 
ATOM     11  C   UNL     1      47.789   2.177   6.909  0.00  0.00    +0.000 C 
ATOM     12  C   UNL     1      46.710   1.348   7.594  0.00  0.00    +0.000 C 
ATOM     13  C   UNL     1      46.071   2.114   8.747  0.00  0.00    +0.000 C 
BRANCH  11  14
ATOM     14  O   UNL     1      48.270   1.472   5.770  0.00  0.00    +0.000 OA
ATOM     15  H   UNL     1      47.663   1.649   5.029  0.00  0.00    +0.000 HD
ENDBRANCH  11  14
ENDBRANCH   1   8
BRANCH   5  16
ATOM     16  C   UNL     1      46.156   7.112  11.930  0.00  0.00    +0.000 C 
BRANCH  16  17
ATOM     17  C   UNL     1      47.630   6.712  12.072  0.00  0.00    +0.000 C 
BRANCH  17  18
ATOM     18  N   UNL     1      48.260   7.203  13.297  0.00  0.00    +0.000 N 
ATOM     19  C   UNL     1      48.056   6.290  14.361  0.00  0.00    +0.000 A 
ATOM     20  C   UNL     1      48.577   6.595  15.613  0.00  0.00    +0.000 A 
ATOM     21  C   UNL     1      48.388   5.700  16.671  0.00  0.00    +0.000 A 
ATOM     22  C   UNL     1      47.680   4.515  16.464  0.00  0.00    +0.000 A 
ATOM     23  C   UNL     1      47.207   4.286  15.186  0.00  0.00    +0.000 A 
ATOM     24  N   UNL     1      47.385   5.138  14.147  0.00  0.00    +0.000 NA
ATOM     25  H   UNL     1      47.891   8.107  13.582  0.00  0.00    +0.000 HD
BRANCH  22  26
ATOM     26  C   UNL     1      47.466   3.581  17.595  0.00  0.00    +0.000 C 
ATOM     27  N   UNL     1      48.200   3.742  18.741  0.00  0.00    +0.000 N 
ATOM     28  O   UNL     1      46.655   2.670  17.515  0.00  0.00    +0.000 OA
ATOM     29  H   UNL     1      48.888   4.457  18.916  0.00  0.00    +0.000 HD
ATOM     30  H   UNL     1      48.016   3.081  19.487  0.00  0.00    +0.000 HD
ENDBRANCH  22  26
ENDBRANCH  17  18
ENDBRANCH  16  17
ENDBRANCH   5  16
TORSDOF 6
ENDMDL
MODEL 3
REMARK VINA RESULT:    -7.746      1.432      2.009
REMARK INTER + INTRA:         -11.310
REMARK INTER:                 -10.361
REMARK INTRA:                  -0.949
REMARK UNBOUND:                -1.073
REMARK  Name = 
REMARK  7 active torsions:
REMARK  status: ('A' for Active; 'I' for Inactive)
REMARK    1  A    between atoms: C_1  and  C_2
REMARK    2  A    between atoms: C_2  and  C_3
REMARK    3  A    between atoms: C_7  and  C_8
REMARK    4  A    between atoms: C_8  and  C_9
REMARK    5  A    between atoms: C_9  and  N_10
REMARK    6  A    between atoms: C_14  and  C_15
REMARK    7  A    between atoms: C_23  and  O_24
REMARK                            x       y       z     vdW  Elec       q    Type
REMARK                         _______ _______ _______ _____ _____    ______ ____
ROOT
ATOM      1  C   UNL     1      47.242   6.617  12.932  0.00  0.00    +0.000 A 
ATOM      2  C   UNL     1      47.529   5.550  13.797  0.00  0.00    +0.000 A 
ATOM      3  C   UNL     1      46.599   4.529  14.019  0.00  0.00    +0.000 A 
ATOM      4  C   UNL     1      45.352   4.556  13.391  0.00  0.00    +0.000 A 
ATOM      5  C   UNL     1      45.031   5.595  12.516  0.00  0.00    +0.000 A 
ATOM      6  C   UNL     1      46.000   6.588  12.282  0.00  0.00    +0.000 A 
ENDROOT
BRANCH   1   8
ATOM      7  C   UNL     1      48.900   7.659  11.412  0.00  0.00    +0.000 C 
ATOM      8  C   UNL     1      48.200   7.822  12.785  0.00  0.00    +0.000 C 
ATOM      9  C   UNL     1      47.405   9.152  12.846  0.00  0.00    +0.000 C 
ATOM     10  C   UNL     1      48.293  10.399  12.797  0.00  0.00    +0.000 C 
ATOM     11  C   UNL     1      49.373  10.387  13.875  0.00  0.00    +0.000 C 
ATOM     12  C   UNL     1      50.193   9.104  13.844  0.00  0.00    +0.000 C 
ATOM     13  C   UNL     1      49.298   7.872  13.897  0.00  0.00    +0.000 C 
BRANCH  11  14
ATOM     14  O   UNL     1      50.239  11.503  13.702  0.00  0.00    +0.000 OA
ATOM     15  H   UNL     1      50.771  11.348  12.902  0.00  0.00    +0.000 HD
ENDBRANCH  11  14
ENDBRANCH   1   8
BRANCH   5  16
ATOM     16  C   UNL     1      43.643   5.664  11.892  0.00  0.00    +0.000 C 
BRANCH  16  17
ATOM     17  C   UNL     1      43.585   5.106  10.465  0.00  0.00    +0.000 C 
BRANCH  17  18
ATOM     18  N   UNL     1      43.808   3.662  10.386  0.00  0.00    +0.000 N 
ATOM     19  C   UNL     1      44.754   3.360   9.376  0.00  0.00    +0.000 A 
ATOM     20  C   UNL     1      45.086   2.029   9.147  0.00  0.00    +0.000 A 
ATOM     21  C   UNL     1      46.023   1.717   8.157  0.00  0.00    +0.000 A 
ATOM     22  C   UNL     1      46.612   2.737   7.407  0.00  0.00    +0.000 A 
ATOM     23  C   UNL     1      46.233   4.031   7.708  0.00  0.00    +0.000 A 
ATOM     24  N   UNL     1      45.332   4.354   8.668  0.00  0.00    +0.000 NA
ATOM     25  H   UNL     1      42.952   3.153  10.180  0.00  0.00    +0.000 HD
BRANCH  22  26
ATOM     26  C   UNL     1      47.588   2.396   6.346  0.00  0.00    +0.000 C 
ATOM     27  N   UNL     1      47.379   2.859   5.073  0.00  0.00    +0.000 N 
ATOM     28  O   UNL     1      48.569   1.706   6.588  0.00  0.00    +0.000 OA
ATOM     29  H   UNL     1      46.613   3.436   4.764  0.00  0.00    +0.000 HD
ATOM     30  H   UNL     1      48.076   2.603   4.383  0.00  0.00    +0.000 HD
ENDBRANCH  22  26
ENDBRANCH  17  18
ENDBRANCH  16  17
ENDBRANCH   5  16
TORSDOF 6
ENDMDL
MODEL 4
REMARK VINA RESULT:    -7.589      4.347      7.728
REMARK INTER + INTRA:         -11.102
REMARK INTER:                  -9.910
REMARK INTRA:                  -1.192
REMARK UNBOUND:                -1.073
REMARK  Name = 
REMARK  7 active torsions:
REMARK  status: ('A' for Active; 'I' for Inactive)
REMARK    1  A    between atoms: C_1  and  C_2
REMARK    2  A    between atoms: C_2  and  C_3
REMARK    3  A    between atoms: C_7  and  C_8
REMARK    4  A    between atoms: C_8  and  C_9
REMARK    5  A    between atoms: C_9  and  N_10
REMARK    6  A    between atoms: C_14  and  C_15
REMARK    7  A    between atoms: C_23  and  O_24
REMARK                            x       y       z     vdW  Elec       q    Type
REMARK                         _______ _______ _______ _____ _____    ______ ____
ROOT
ATOM      1  C   UNL     1      45.466   7.159  11.602  0.00  0.00    +0.000 A 
ATOM      2  C   UNL     1      44.583   8.228  11.388  0.00  0.00    +0.000 A 
ATOM      3  C   UNL     1      44.944   9.539  11.713  0.00  0.00    +0.000 A 
ATOM      4  C   UNL     1      46.193   9.814  12.272  0.00  0.00    +0.000 A 
ATOM      5  C   UNL     1      47.105   8.779  12.493  0.00  0.00    +0.000 A 
ATOM      6  C   UNL     1      46.729   7.475  12.122  0.00  0.00    +0.000 A 
ENDROOT
BRANCH   1   8
ATOM      7  C   UNL     1      45.491   5.309   9.951  0.00  0.00    +0.000 C 
ATOM      8  C   UNL     1      45.031   5.691  11.381  0.00  0.00    +0.000 C 
ATOM      9  C   UNL     1      45.690   4.769  12.439  0.00  0.00    +0.000 C 
ATOM     10  C   UNL     1      45.240   3.308  12.344  0.00  0.00    +0.000 C 
ATOM     11  C   UNL     1      43.722   3.163  12.399  0.00  0.00    +0.000 C 
ATOM     12  C   UNL     1      43.029   4.039  11.364  0.00  0.00    +0.000 C 
ATOM     13  C   UNL     1      43.483   5.490  11.472  0.00  0.00    +0.000 C 
BRANCH  11  14
ATOM     14  O   UNL     1      43.360   1.803  12.182  0.00  0.00    +0.000 OA
ATOM     15  H   UNL     1      44.139   1.251  12.372  0.00  0.00    +0.000 HD
ENDBRANCH  11  14
ENDBRANCH   1   8
BRANCH   5  16
ATOM     16  C   UNL     1      48.436   9.068  13.174  0.00  0.00    +0.000 C 
BRANCH  16  17
ATOM     17  C   UNL     1      49.266   7.810  13.454  0.00  0.00    +0.000 C 
BRANCH  17  18
ATOM     18  N   UNL     1      49.824   7.759  14.806  0.00  0.00    +0.000 N 
ATOM     19  C   UNL     1      49.251   6.693  15.541  0.00  0.00    +0.000 A 
ATOM     20  C   UNL     1      49.653   6.495  16.856  0.00  0.00    +0.000 A 
ATOM     21  C   UNL     1      49.099   5.442  17.592  0.00  0.00    +0.000 A 
ATOM     22  C   UNL     1      48.150   4.604  17.004  0.00  0.00    +0.000 A 
ATOM     23  C   UNL     1      47.816   4.865  15.689  0.00  0.00    +0.000 A 
ATOM     24  N   UNL     1      48.346   5.877  14.958  0.00  0.00    +0.000 NA
ATOM     25  H   UNL     1      49.660   8.621  15.320  0.00  0.00    +0.000 HD
BRANCH  22  26
ATOM     26  C   UNL     1      47.553   3.503  17.796  0.00  0.00    +0.000 C 
ATOM     27  N   UNL     1      48.181   3.086  18.940  0.00  0.00    +0.000 N 
ATOM     28  O   UNL     1      46.517   2.960  17.440  0.00  0.00    +0.000 OA
ATOM     29  H   UNL     1      49.032   3.464  19.328  0.00  0.00    +0.000 HD
ATOM     30  H   UNL     1      47.733   2.333  19.449  0.00  0.00    +0.000 HD
ENDBRANCH  22  26
ENDBRANCH  17  18
ENDBRANCH  16  17
ENDBRANCH   5  16
TORSDOF 6
ENDMDL
MODEL 5
REMARK VINA RESULT:    -7.467      1.418      2.239
REMARK INTER + INTRA:         -10.941
REMARK INTER:                 -10.250
REMARK INTRA:                  -0.691
REMARK UNBOUND:                -1.073
REMARK  Name = 
REMARK  7 active torsions:
REMARK  status: ('A' for Active; 'I' for Inactive)
REMARK    1  A    between atoms: C_1  and  C_2
REMARK    2  A    between atoms: C_2  and  C_3
REMARK    3  A    between atoms: C_7  and  C_8
REMARK    4  A    between atoms: C_8  and  C_9
REMARK    5  A    between atoms: C_9  and  N_10
REMARK    6  A    between atoms: C_14  and  C_15
REMARK    7  A    between atoms: C_23  and  O_24
REMARK                            x       y       z     vdW  Elec       q    Type
REMARK                         _______ _______ _______ _____ _____    ______ ____
ROOT
ATOM      1  C   UNL     1      46.183   7.628  12.505  0.00  0.00    +0.000 A 
ATOM      2  C   UNL     1      45.732   8.769  11.825  0.00  0.00    +0.000 A 
ATOM      3  C   UNL     1      44.440   8.832  11.295  0.00  0.00    +0.000 A 
ATOM      4  C   UNL     1      43.568   7.748  11.420  0.00  0.00    +0.000 A 
ATOM      5  C   UNL     1      43.974   6.597  12.097  0.00  0.00    +0.000 A 
ATOM      6  C   UNL     1      45.267   6.576  12.653  0.00  0.00    +0.000 A 
ENDROOT
BRANCH   1   8
ATOM      7  C   UNL     1      47.788   6.062  13.563  0.00  0.00    +0.000 C 
ATOM      8  C   UNL     1      47.651   7.488  12.972  0.00  0.00    +0.000 C 
ATOM      9  C   UNL     1      48.617   7.687  11.776  0.00  0.00    +0.000 C 
ATOM     10  C   UNL     1      50.097   7.652  12.171  0.00  0.00    +0.000 C 
ATOM     11  C   UNL     1      50.425   8.649  13.279  0.00  0.00    +0.000 C 
ATOM     12  C   UNL     1      49.511   8.482  14.485  0.00  0.00    +0.000 C 
ATOM     13  C   UNL     1      48.043   8.522  14.077  0.00  0.00    +0.000 C 
BRANCH  11  14
ATOM     14  O   UNL     1      51.778   8.485  13.689  0.00  0.00    +0.000 OA
ATOM     15  H   UNL     1      51.777   8.185  14.615  0.00  0.00    +0.000 HD
ENDBRANCH  11  14
ENDBRANCH   1   8
BRANCH   5  16
ATOM     16  C   UNL     1      43.052   5.387  12.166  0.00  0.00    +0.000 C 
BRANCH  16  17
ATOM     17  C   UNL     1      43.137   4.481  10.931  0.00  0.00    +0.000 C 
BRANCH  17  18
ATOM     18  N   UNL     1      43.958   5.029   9.852  0.00  0.00    +0.000 N 
ATOM     19  C   UNL     1      44.722   4.006   9.240  0.00  0.00    +0.000 A 
ATOM     20  C   UNL     1      45.575   4.342   8.195  0.00  0.00    +0.000 A 
ATOM     21  C   UNL     1      46.332   3.341   7.578  0.00  0.00    +0.000 A 
ATOM     22  C   UNL     1      46.227   2.019   8.014  0.00  0.00    +0.000 A 
ATOM     23  C   UNL     1      45.347   1.771   9.050  0.00  0.00    +0.000 A 
ATOM     24  N   UNL     1      44.602   2.727   9.657  0.00  0.00    +0.000 NA
ATOM     25  H   UNL     1      44.599   5.746  10.184  0.00  0.00    +0.000 HD
BRANCH  22  26
ATOM     26  C   UNL     1      47.047   0.967   7.368  0.00  0.00    +0.000 C 
ATOM     27  N   UNL     1      46.760  -0.350   7.618  0.00  0.00    +0.000 N 
ATOM     28  O   UNL     1      47.974   1.256   6.625  0.00  0.00    +0.000 OA
ATOM     29  H   UNL     1      46.020  -0.701   8.206  0.00  0.00    +0.000 HD
ATOM     30  H   UNL     1      47.346  -1.032   7.151  0.00  0.00    +0.000 HD
ENDBRANCH  22  26
ENDBRANCH  17  18
ENDBRANCH  16  17
ENDBRANCH   5  16
TORSDOF 6
ENDMDL
MODEL 6
REMARK VINA RESULT:    -7.447      1.736      2.814
REMARK INTER + INTRA:         -10.914
REMARK INTER:                 -10.148
REMARK INTRA:                  -0.767
REMARK UNBOUND:                -1.073
REMARK  Name = 
REMARK  7 active torsions:
REMARK  status: ('A' for Active; 'I' for Inactive)
REMARK    1  A    between atoms: C_1  and  C_2
REMARK    2  A    between atoms: C_2  and  C_3
REMARK    3  A    between atoms: C_7  and  C_8
REMARK    4  A    between atoms: C_8  and  C_9
REMARK    5  A    between atoms: C_9  and  N_10
REMARK    6  A    between atoms: C_14  and  C_15
REMARK    7  A    between atoms: C_23  and  O_24
REMARK                            x       y       z     vdW  Elec       q    Type
REMARK                         _______ _______ _______ _____ _____    ______ ____
ROOT
ATOM      1  C   UNL     1      45.657   8.485  12.036  0.00  0.00    +0.000 A 
ATOM      2  C   UNL     1      45.066   9.584  11.394  0.00  0.00    +0.000 A 
ATOM      3  C   UNL     1      43.773   9.504  10.867  0.00  0.00    +0.000 A 
ATOM      4  C   UNL     1      43.043   8.317  10.956  0.00  0.00    +0.000 A 
ATOM      5  C   UNL     1      43.592   7.202  11.595  0.00  0.00    +0.000 A 
ATOM      6  C   UNL     1      44.879   7.324  12.149  0.00  0.00    +0.000 A 
ENDROOT
BRANCH   1   8
ATOM      7  C   UNL     1      47.741   9.827  11.942  0.00  0.00    +0.000 C 
ATOM      8  C   UNL     1      47.133   8.514  12.498  0.00  0.00    +0.000 C 
ATOM      9  C   UNL     1      47.213   8.479  14.046  0.00  0.00    +0.000 C 
ATOM     10  C   UNL     1      48.646   8.415  14.584  0.00  0.00    +0.000 C 
ATOM     11  C   UNL     1      49.437   7.250  13.994  0.00  0.00    +0.000 C 
ATOM     12  C   UNL     1      49.401   7.251  12.472  0.00  0.00    +0.000 C 
ATOM     13  C   UNL     1      47.970   7.312  11.950  0.00  0.00    +0.000 C 
BRANCH  11  14
ATOM     14  O   UNL     1      50.789   7.315  14.433  0.00  0.00    +0.000 OA
ATOM     15  H   UNL     1      51.205   8.087  14.009  0.00  0.00    +0.000 HD
ENDBRANCH  11  14
ENDBRANCH   1   8
BRANCH   5  16
ATOM     16  C   UNL     1      42.826   5.886  11.623  0.00  0.00    +0.000 C 
BRANCH  16  17
ATOM     17  C   UNL     1      43.525   4.755  10.860  0.00  0.00    +0.000 C 
BRANCH  17  18
ATOM     18  N   UNL     1      44.307   5.212   9.711  0.00  0.00    +0.000 N 
ATOM     19  C   UNL     1      44.990   4.127   9.110  0.00  0.00    +0.000 A 
ATOM     20  C   UNL     1      45.796   4.373   8.005  0.00  0.00    +0.000 A 
ATOM     21  C   UNL     1      46.472   3.309   7.399  0.00  0.00    +0.000 A 
ATOM     22  C   UNL     1      46.335   2.016   7.906  0.00  0.00    +0.000 A 
ATOM     23  C   UNL     1      45.505   1.859   8.999  0.00  0.00    +0.000 A 
ATOM     24  N   UNL     1      44.837   2.876   9.597  0.00  0.00    +0.000 NA
ATOM     25  H   UNL     1      44.997   5.913   9.972  0.00  0.00    +0.000 HD
BRANCH  22  26
ATOM     26  C   UNL     1      47.070   0.897   7.270  0.00  0.00    +0.000 C 
ATOM     27  N   UNL     1      46.752  -0.391   7.613  0.00  0.00    +0.000 N 
ATOM     28  O   UNL     1      47.955   1.107   6.453  0.00  0.00    +0.000 OA
ATOM     29  H   UNL     1      46.041  -0.679   8.268  0.00  0.00    +0.000 HD
ATOM     30  H   UNL     1      47.279  -1.121   7.149  0.00  0.00    +0.000 HD
ENDBRANCH  22  26
ENDBRANCH  17  18
ENDBRANCH  16  17
ENDBRANCH   5  16
TORSDOF 6
ENDMDL
MODEL 7
REMARK VINA RESULT:    -7.064      5.170      8.109
REMARK INTER + INTRA:         -10.409
REMARK INTER:                  -9.634
REMARK INTRA:                  -0.775
REMARK UNBOUND:                -1.073
REMARK  Name = 
REMARK  7 active torsions:
REMARK  status: ('A' for Active; 'I' for Inactive)
REMARK    1  A    between atoms: C_1  and  C_2
REMARK    2  A    between atoms: C_2  and  C_3
REMARK    3  A    between atoms: C_7  and  C_8
REMARK    4  A    between atoms: C_8  and  C_9
REMARK    5  A    between atoms: C_9  and  N_10
REMARK    6  A    between atoms: C_14  and  C_15
REMARK    7  A    between atoms: C_23  and  O_24
REMARK                            x       y       z     vdW  Elec       q    Type
REMARK                         _______ _______ _______ _____ _____    ______ ____
ROOT
ATOM      1  C   UNL     1      46.177   6.824  12.436  0.00  0.00    +0.000 A 
ATOM      2  C   UNL     1      45.701   8.143  12.415  0.00  0.00    +0.000 A 
ATOM      3  C   UNL     1      46.367   9.163  13.103  0.00  0.00    +0.000 A 
ATOM      4  C   UNL     1      47.520   8.886  13.840  0.00  0.00    +0.000 A 
ATOM      5  C   UNL     1      48.032   7.588  13.879  0.00  0.00    +0.000 A 
ATOM      6  C   UNL     1      47.363   6.590  13.147  0.00  0.00    +0.000 A 
ENDROOT
BRANCH   1   8
ATOM      7  C   UNL     1      45.770   5.632  10.300  0.00  0.00    +0.000 C 
ATOM      8  C   UNL     1      45.377   5.663  11.799  0.00  0.00    +0.000 C 
ATOM      9  C   UNL     1      45.732   4.322  12.492  0.00  0.00    +0.000 C 
ATOM     10  C   UNL     1      44.916   3.132  11.979  0.00  0.00    +0.000 C 
ATOM     11  C   UNL     1      43.412   3.381  12.061  0.00  0.00    +0.000 C 
ATOM     12  C   UNL     1      43.012   4.681  11.379  0.00  0.00    +0.000 C 
ATOM     13  C   UNL     1      43.830   5.857  11.901  0.00  0.00    +0.000 C 
BRANCH  11  14
ATOM     14  O   UNL     1      42.711   2.299  11.458  0.00  0.00    +0.000 OA
ATOM     15  H   UNL     1      42.877   1.500  11.990  0.00  0.00    +0.000 HD
ENDBRANCH  11  14
ENDBRANCH   1   8
BRANCH   5  16
ATOM     16  C   UNL     1      49.244   7.272  14.745  0.00  0.00    +0.000 C 
BRANCH  16  17
ATOM     17  C   UNL     1      48.905   7.089  16.230  0.00  0.00    +0.000 C 
BRANCH  17  18
ATOM     18  N   UNL     1      48.225   5.829  16.529  0.00  0.00    +0.000 N 
ATOM     19  C   UNL     1      49.160   4.840  16.919  0.00  0.00    +0.000 A 
ATOM     20  C   UNL     1      48.697   3.567  17.234  0.00  0.00    +0.000 A 
ATOM     21  C   UNL     1      49.609   2.583  17.626  0.00  0.00    +0.000 A 
ATOM     22  C   UNL     1      50.971   2.881  17.697  0.00  0.00    +0.000 A 
ATOM     23  C   UNL     1      51.343   4.173  17.379  0.00  0.00    +0.000 A 
ATOM     24  N   UNL     1      50.474   5.143  17.002  0.00  0.00    +0.000 NA
ATOM     25  H   UNL     1      47.706   5.474  15.729  0.00  0.00    +0.000 HD
BRANCH  22  26
ATOM     26  C   UNL     1      51.933   1.827  18.094  0.00  0.00    +0.000 C 
ATOM     27  N   UNL     1      51.627   0.515  17.845  0.00  0.00    +0.000 N 
ATOM     28  O   UNL     1      52.987   2.111  18.645  0.00  0.00    +0.000 OA
ATOM     29  H   UNL     1      50.793   0.169  17.395  0.00  0.00    +0.000 HD
ATOM     30  H   UNL     1      52.318  -0.169  18.132  0.00  0.00    +0.000 HD
ENDBRANCH  22  26
ENDBRANCH  17  18
ENDBRANCH  16  17
ENDBRANCH   5  16
TORSDOF 6
ENDMDL
MODEL 8
REMARK VINA RESULT:    -6.717      2.486      3.569
REMARK INTER + INTRA:          -9.949
REMARK INTER:                  -9.221
REMARK INTRA:                  -0.728
REMARK UNBOUND:                -1.073
REMARK  Name = 
REMARK  7 active torsions:
REMARK  status: ('A' for Active; 'I' for Inactive)
REMARK    1  A    between atoms: C_1  and  C_2
REMARK    2  A    between atoms: C_2  and  C_3
REMARK    3  A    between atoms: C_7  and  C_8
REMARK    4  A    between atoms: C_8  and  C_9
REMARK    5  A    between atoms: C_9  and  N_10
REMARK    6  A    between atoms: C_14  and  C_15
REMARK    7  A    between atoms: C_23  and  O_24
REMARK                            x       y       z     vdW  Elec       q    Type
REMARK                         _______ _______ _______ _____ _____    ______ ____
ROOT
ATOM      1  C   UNL     1      47.811   7.142  13.482  0.00  0.00    +0.000 A 
ATOM      2  C   UNL     1      48.369   7.417  12.224  0.00  0.00    +0.000 A 
ATOM      3  C   UNL     1      47.674   7.124  11.046  0.00  0.00    +0.000 A 
ATOM      4  C   UNL     1      46.407   6.537  11.097  0.00  0.00    +0.000 A 
ATOM      5  C   UNL     1      45.813   6.256  12.329  0.00  0.00    +0.000 A 
ATOM      6  C   UNL     1      46.519   6.596  13.498  0.00  0.00    +0.000 A 
ENDROOT
BRANCH   1   8
ATOM      7  C   UNL     1      50.107   7.458  14.364  0.00  0.00    +0.000 C 
ATOM      8  C   UNL     1      48.622   7.329  14.787  0.00  0.00    +0.000 C 
ATOM      9  C   UNL     1      48.148   8.601  15.537  0.00  0.00    +0.000 C 
ATOM     10  C   UNL     1      48.841   8.810  16.887  0.00  0.00    +0.000 C 
ATOM     11  C   UNL     1      48.720   7.590  17.797  0.00  0.00    +0.000 C 
ATOM     12  C   UNL     1      49.191   6.317  17.108  0.00  0.00    +0.000 C 
ATOM     13  C   UNL     1      48.490   6.120  15.768  0.00  0.00    +0.000 C 
BRANCH  11  14
ATOM     14  O   UNL     1      49.485   7.795  18.980  0.00  0.00    +0.000 OA
ATOM     15  H   UNL     1      49.442   6.980  19.510  0.00  0.00    +0.000 HD
ENDBRANCH  11  14
ENDBRANCH   1   8
BRANCH   5  16
ATOM     16  C   UNL     1      44.467   5.546  12.382  0.00  0.00    +0.000 C 
BRANCH  16  17
ATOM     17  C   UNL     1      43.945   5.120  11.005  0.00  0.00    +0.000 C 
BRANCH  17  18
ATOM     18  N   UNL     1      43.983   3.675  10.781  0.00  0.00    +0.000 N 
ATOM     19  C   UNL     1      44.822   3.363   9.683  0.00  0.00    +0.000 A 
ATOM     20  C   UNL     1      44.973   2.032   9.312  0.00  0.00    +0.000 A 
ATOM     21  C   UNL     1      45.803   1.711   8.233  0.00  0.00    +0.000 A 
ATOM     22  C   UNL     1      46.468   2.722   7.539  0.00  0.00    +0.000 A 
ATOM     23  C   UNL     1      46.271   4.016   7.981  0.00  0.00    +0.000 A 
ATOM     24  N   UNL     1      45.475   4.348   9.028  0.00  0.00    +0.000 NA
ATOM     25  H   UNL     1      43.060   3.292  10.590  0.00  0.00    +0.000 HD
BRANCH  22  26
ATOM     26  C   UNL     1      47.330   2.375   6.384  0.00  0.00    +0.000 C 
ATOM     27  N   UNL     1      47.102   2.979   5.176  0.00  0.00    +0.000 N 
ATOM     28  O   UNL     1      48.232   1.557   6.494  0.00  0.00    +0.000 OA
ATOM     29  H   UNL     1      46.393   3.667   4.974  0.00  0.00    +0.000 HD
ATOM     30  H   UNL     1      47.719   2.712   4.418  0.00  0.00    +0.000 HD
ENDBRANCH  22  26
ENDBRANCH  17  18
ENDBRANCH  16  17
ENDBRANCH   5  16
TORSDOF 6
ENDMDL
MODEL 9
REMARK VINA RESULT:    -6.679      4.532      6.915
REMARK INTER + INTRA:          -9.900
REMARK INTER:                  -8.858
REMARK INTRA:                  -1.042
REMARK UNBOUND:                -1.073
REMARK  Name = 
REMARK  7 active torsions:
REMARK  status: ('A' for Active; 'I' for Inactive)
REMARK    1  A    between atoms: C_1  and  C_2
REMARK    2  A    between atoms: C_2  and  C_3
REMARK    3  A    between atoms: C_7  and  C_8
REMARK    4  A    between atoms: C_8  and  C_9
REMARK    5  A    between atoms: C_9  and  N_10
REMARK    6  A    between atoms: C_14  and  C_15
REMARK    7  A    between atoms: C_23  and  O_24
REMARK                            x       y       z     vdW  Elec       q    Type
REMARK                         _______ _______ _______ _____ _____    ______ ____
ROOT
ATOM      1  C   UNL     1      49.086   6.392  17.165  0.00  0.00    +0.000 A 
ATOM      2  C   UNL     1      48.588   7.386  18.020  0.00  0.00    +0.000 A 
ATOM      3  C   UNL     1      48.304   8.671  17.547  0.00  0.00    +0.000 A 
ATOM      4  C   UNL     1      48.523   8.999  16.207  0.00  0.00    +0.000 A 
ATOM      5  C   UNL     1      49.010   8.036  15.321  0.00  0.00    +0.000 A 
ATOM      6  C   UNL     1      49.251   6.741  15.816  0.00  0.00    +0.000 A 
ENDROOT
BRANCH   1   8
ATOM      7  C   UNL     1      49.281   5.032  19.229  0.00  0.00    +0.000 C 
ATOM      8  C   UNL     1      49.537   5.013  17.700  0.00  0.00    +0.000 C 
ATOM      9  C   UNL     1      48.727   3.880  17.019  0.00  0.00    +0.000 C 
ATOM     10  C   UNL     1      49.175   2.474  17.430  0.00  0.00    +0.000 C 
ATOM     11  C   UNL     1      50.669   2.253  17.210  0.00  0.00    +0.000 C 
ATOM     12  C   UNL     1      51.508   3.334  17.877  0.00  0.00    +0.000 C 
ATOM     13  C   UNL     1      51.055   4.727  17.457  0.00  0.00    +0.000 C 
BRANCH  11  14
ATOM     14  O   UNL     1      51.048   0.980  17.723  0.00  0.00    +0.000 OA
ATOM     15  H   UNL     1      50.819   0.308  17.058  0.00  0.00    +0.000 HD
ENDBRANCH  11  14
ENDBRANCH   1   8
BRANCH   5  16
ATOM     16  C   UNL     1      49.322   8.414  13.879  0.00  0.00    +0.000 C 
BRANCH  16  17
ATOM     17  C   UNL     1      49.249   7.231  12.906  0.00  0.00    +0.000 C 
BRANCH  17  18
ATOM     18  N   UNL     1      48.234   7.386  11.864  0.00  0.00    +0.000 N 
ATOM     19  C   UNL     1      47.129   6.538  12.117  0.00  0.00    +0.000 A 
ATOM     20  C   UNL     1      46.065   6.540  11.223  0.00  0.00    +0.000 A 
ATOM     21  C   UNL     1      44.964   5.712  11.464  0.00  0.00    +0.000 A 
ATOM     22  C   UNL     1      44.942   4.892  12.594  0.00  0.00    +0.000 A 
ATOM     23  C   UNL     1      46.035   4.961  13.436  0.00  0.00    +0.000 A 
ATOM     24  N   UNL     1      47.109   5.761  13.222  0.00  0.00    +0.000 NA
ATOM     25  H   UNL     1      48.597   7.163  10.940  0.00  0.00    +0.000 HD
BRANCH  22  26
ATOM     26  C   UNL     1      43.781   4.002  12.832  0.00  0.00    +0.000 C 
ATOM     27  N   UNL     1      43.902   2.662  12.574  0.00  0.00    +0.000 N 
ATOM     28  O   UNL     1      42.720   4.448  13.247  0.00  0.00    +0.000 OA
ATOM     29  H   UNL     1      44.727   2.189  12.237  0.00  0.00    +0.000 HD
ATOM     30  H   UNL     1      43.083   2.095  12.756  0.00  0.00    +0.000 HD
ENDBRANCH  22  26
ENDBRANCH  17  18
ENDBRANCH  16  17
ENDBRANCH   5  16
TORSDOF 6
ENDMDL
