MODEL 1
REMARK VINA RESULT:    -8.554      0.000      0.000
REMARK INTER + INTRA:         -10.371
REMARK INTER:                 -10.555
REMARK INTRA:                   0.184
REMARK UNBOUND:                 0.184
REMARK  Name = 
REMARK  4 active torsions:
REMARK  status: ('A' for Active; 'I' for Inactive)
REMARK    1  A    between atoms: C_2  and  C_3
REMARK    2  A    between atoms: C_6  and  C_7
REMARK    3  A    between atoms: C_7  and  N_8
REMARK    4  A    between atoms: C_12  and  C_13
REMARK                            x       y       z     vdW  Elec       q    Type
REMARK                         _______ _______ _______ _____ _____    ______ ____
ROOT
ATOM      1  N   UNL     1      44.350   5.189   9.793  0.00  0.00    +0.000 N 
ATOM      2  C   UNL     1      45.047   4.186   9.128  0.00  0.00    +0.000 A 
ATOM      3  C   UNL     1      45.079   2.859   9.538  0.00  0.00    +0.000 A 
ATOM      4  C   UNL     1      45.788   1.921   8.779  0.00  0.00    +0.000 A 
ATOM      5  C   UNL     1      46.448   2.335   7.624  0.00  0.00    +0.000 A 
ATOM      6  C   UNL     1      46.371   3.677   7.289  0.00  0.00    +0.000 A 
ATOM      7  N   UNL     1      45.681   4.596   8.009  0.00  0.00    +0.000 NA
ATOM      8  H   UNL     1      44.556   6.070   9.333  0.00  0.00    +0.000 HD
ENDROOT
BRANCH   5   9
ATOM      9  C   UNL     1      47.245   1.435   6.763  0.00  0.00    +0.000 C 
ATOM     10  N   UNL     1      48.243   1.995   6.016  0.00  0.00    +0.000 N 
ATOM     11  O   UNL     1      47.040   0.229   6.738  0.00  0.00    +0.000 OA
ATOM     12  H   UNL     1      48.602   2.924   6.183  0.00  0.00    +0.000 HD
ATOM     13  H   UNL     1      48.836   1.350   5.508  0.00  0.00    +0.000 HD
ENDBRANCH   5   9
BRANCH   1  14
ATOM     14  C   UNL     1      43.944   5.185  11.200  0.00  0.00    +0.000 C 
ATOM     15  C   UNL     1      42.517   5.491  11.612  0.00  0.00    +0.000 C 
ATOM     16  C   UNL     1      42.972   4.070  11.588  0.00  0.00    +0.000 C 
BRANCH  14  20
ATOM     17  C   UNL     1      47.278   5.928  13.912  0.00  0.00    +0.000 A 
ATOM     18  C   UNL     1      46.726   4.650  13.827  0.00  0.00    +0.000 A 
ATOM     19  C   UNL     1      45.639   4.411  12.977  0.00  0.00    +0.000 A 
ATOM     20  C   UNL     1      45.084   5.434  12.187  0.00  0.00    +0.000 A 
ATOM     21  C   UNL     1      45.640   6.718  12.318  0.00  0.00    +0.000 A 
ATOM     22  C   UNL     1      46.725   6.969  13.165  0.00  0.00    +0.000 A 
BRANCH  17  24
ATOM     23  N   UNL     1      49.333   6.360  15.433  0.00  0.00    +0.000 NA
ATOM     24  C   UNL     1      48.414   6.166  14.750  0.00  0.00    +0.000 C 
ENDBRANCH  17  24
ENDBRANCH  14  20
ENDBRANCH   1  14
TORSDOF 4
ENDMDL
MODEL 2
REMARK VINA RESULT:    -7.934      2.988      6.979
REMARK INTER + INTRA:          -9.606
REMARK INTER:                  -9.211
REMARK INTRA:                  -0.395
REMARK UNBOUND:                 0.184
REMARK  Name = 
REMARK  4 active torsions:
REMARK  status: ('A' for Active; 'I' for Inactive)
REMARK    1  A    between atoms: C_2  and  C_3
REMARK    2  A    between atoms: C_6  and  C_7
REMARK    3  A    between atoms: C_7  and  N_8
REMARK    4  A    between atoms: C_12  and  C_13
REMARK                            x       y       z     vdW  Elec       q    Type
REMARK                         _______ _______ _______ _____ _____    ______ ____
ROOT
ATOM      1  N   UNL     1      44.441   5.668  10.985  0.00  0.00    +0.000 N 
ATOM      2  C   UNL     1      45.344   6.396  11.750  0.00  0.00    +0.000 A 
ATOM      3  C   UNL     1      46.600   5.932  12.121  0.00  0.00    +0.000 A 
ATOM      4  C   UNL     1      47.447   6.759  12.869  0.00  0.00    +0.000 A 
ATOM      5  C   UNL     1      47.014   8.034  13.227  0.00  0.00    +0.000 A 
ATOM      6  C   UNL     1      45.747   8.418  12.822  0.00  0.00    +0.000 A 
ATOM      7  N   UNL     1      44.918   7.632  12.090  0.00  0.00    +0.000 NA
ATOM      8  H   UNL     1      43.579   6.202  10.926  0.00  0.00    +0.000 HD
ENDROOT
BRANCH   5   9
ATOM      9  C   UNL     1      47.816   8.979  14.034  0.00  0.00    +0.000 C 
ATOM     10  N   UNL     1      47.472   9.137  15.348  0.00  0.00    +0.000 N 
ATOM     11  O   UNL     1      48.769   9.578  13.557  0.00  0.00    +0.000 OA
ATOM     12  H   UNL     1      46.863   8.498  15.839  0.00  0.00    +0.000 HD
ATOM     13  H   UNL     1      48.090   9.714  15.905  0.00  0.00    +0.000 HD
ENDBRANCH   5   9
BRANCH   1  14
ATOM     14  C   UNL     1      44.402   4.212  10.831  0.00  0.00    +0.000 C 
ATOM     15  C   UNL     1      44.163   3.298  12.017  0.00  0.00    +0.000 C 
ATOM     16  C   UNL     1      43.036   3.573  11.081  0.00  0.00    +0.000 C 
BRANCH  14  20
ATOM     17  C   UNL     1      46.654   2.653   7.437  0.00  0.00    +0.000 A 
ATOM     18  C   UNL     1      46.500   4.030   7.592  0.00  0.00    +0.000 A 
ATOM     19  C   UNL     1      45.756   4.536   8.665  0.00  0.00    +0.000 A 
ATOM     20  C   UNL     1      45.159   3.685   9.612  0.00  0.00    +0.000 A 
ATOM     21  C   UNL     1      45.305   2.301   9.413  0.00  0.00    +0.000 A 
ATOM     22  C   UNL     1      46.045   1.784   8.344  0.00  0.00    +0.000 A 
BRANCH  17  24
ATOM     23  N   UNL     1      48.088   1.715   5.491  0.00  0.00    +0.000 NA
ATOM     24  C   UNL     1      47.447   2.135   6.364  0.00  0.00    +0.000 C 
ENDBRANCH  17  24
ENDBRANCH  14  20
ENDBRANCH   1  14
TORSDOF 4
ENDMDL
MODEL 3
REMARK VINA RESULT:    -7.680      1.657      2.286
REMARK INTER + INTRA:          -9.292
REMARK INTER:                  -8.714
REMARK INTRA:                  -0.578
REMARK UNBOUND:                 0.184
REMARK  Name = 
REMARK  4 active torsions:
REMARK  status: ('A' for Active; 'I' for Inactive)
REMARK    1  A    between atoms: C_2  and  C_3
REMARK    2  A    between atoms: C_6  and  C_7
REMARK    3  A    between atoms: C_7  and  N_8
REMARK    4  A    between atoms: C_12  and  C_13
REMARK                            x       y       z     vdW  Elec       q    Type
REMARK                         _______ _______ _______ _____ _____    ______ ____
ROOT
ATOM      1  N   UNL     1      44.532   3.936  11.322  0.00  0.00    +0.000 N 
ATOM      2  C   UNL     1      45.098   3.676  10.079  0.00  0.00    +0.000 A 
ATOM      3  C   UNL     1      45.621   4.655   9.243  0.00  0.00    +0.000 A 
ATOM      4  C   UNL     1      46.196   4.282   8.023  0.00  0.00    +0.000 A 
ATOM      5  C   UNL     1      46.237   2.935   7.669  0.00  0.00    +0.000 A 
ATOM      6  C   UNL     1      45.689   2.024   8.557  0.00  0.00    +0.000 A 
ATOM      7  N   UNL     1      45.136   2.368   9.747  0.00  0.00    +0.000 NA
ATOM      8  H   UNL     1      44.162   3.063  11.686  0.00  0.00    +0.000 HD
ENDROOT
BRANCH   5   9
ATOM      9  C   UNL     1      46.798   2.434   6.397  0.00  0.00    +0.000 C 
ATOM     10  N   UNL     1      46.959   3.332   5.379  0.00  0.00    +0.000 N 
ATOM     11  O   UNL     1      47.135   1.266   6.264  0.00  0.00    +0.000 OA
ATOM     12  H   UNL     1      46.925   4.332   5.516  0.00  0.00    +0.000 HD
ATOM     13  H   UNL     1      47.432   2.990   4.552  0.00  0.00    +0.000 HD
ENDBRANCH   5   9
BRANCH   1  14
ATOM     14  C   UNL     1      43.962   5.207  11.773  0.00  0.00    +0.000 C 
ATOM     15  C   UNL     1      42.544   5.609  11.412  0.00  0.00    +0.000 C 
ATOM     16  C   UNL     1      42.818   5.081  12.780  0.00  0.00    +0.000 C 
BRANCH  14  20
ATOM     17  C   UNL     1      46.890   8.271  12.803  0.00  0.00    +0.000 A 
ATOM     18  C   UNL     1      45.750   8.618  12.077  0.00  0.00    +0.000 A 
ATOM     19  C   UNL     1      44.820   7.635  11.721  0.00  0.00    +0.000 A 
ATOM     20  C   UNL     1      44.996   6.288  12.087  0.00  0.00    +0.000 A 
ATOM     21  C   UNL     1      46.169   5.963  12.791  0.00  0.00    +0.000 A 
ATOM     22  C   UNL     1      47.107   6.938  13.150  0.00  0.00    +0.000 A 
BRANCH  17  24
ATOM     23  N   UNL     1      48.579  10.099  13.528  0.00  0.00    +0.000 NA
ATOM     24  C   UNL     1      47.822   9.281  13.201  0.00  0.00    +0.000 C 
ENDBRANCH  17  24
ENDBRANCH  14  20
ENDBRANCH   1  14
TORSDOF 4
ENDMDL
MODEL 4
REMARK VINA RESULT:    -7.527      2.735      6.903
REMARK INTER + INTRA:          -9.104
REMARK INTER:                  -8.537
REMARK INTRA:                  -0.568
REMARK UNBOUND:                 0.184
REMARK  Name = 
REMARK  4 active torsions:
REMARK  status: ('A' for Active; 'I' for Inactive)
REMARK    1  A    between atoms: C_2  and  C_3
REMARK    2  A    between atoms: C_6  and  C_7
REMARK    3  A    between atoms: C_7  and  N_8
REMARK    4  A    between atoms: C_12  and  C_13
REMARK                            x       y       z     vdW  Elec       q    Type
REMARK                         _______ _______ _______ _____ _____    ______ ____
ROOT
ATOM      1  N   UNL     1      45.352   5.245  11.568  0.00  0.00    +0.000 N 
ATOM      2  C   UNL     1      46.005   4.919  12.750  0.00  0.00    +0.000 A 
ATOM      3  C   UNL     1      46.367   3.625  13.107  0.00  0.00    +0.000 A 
ATOM      4  C   UNL     1      47.050   3.408  14.309  0.00  0.00    +0.000 A 
ATOM      5  C   UNL     1      47.357   4.494  15.126  0.00  0.00    +0.000 A 
ATOM      6  C   UNL     1      46.957   5.750  14.700  0.00  0.00    +0.000 A 
ATOM      7  N   UNL     1      46.302   5.978  13.534  0.00  0.00    +0.000 NA
ATOM      8  H   UNL     1      45.138   6.238  11.593  0.00  0.00    +0.000 HD
ENDROOT
BRANCH   5   9
ATOM      9  C   UNL     1      48.053   4.376  16.425  0.00  0.00    +0.000 C 
ATOM     10  N   UNL     1      47.774   5.315  17.379  0.00  0.00    +0.000 N 
ATOM     11  O   UNL     1      48.830   3.459  16.653  0.00  0.00    +0.000 OA
ATOM     12  H   UNL     1      46.977   5.933  17.327  0.00  0.00    +0.000 HD
ATOM     13  H   UNL     1      48.187   5.161  18.291  0.00  0.00    +0.000 HD
ENDBRANCH   5   9
BRANCH   1  14
ATOM     14  C   UNL     1      44.534   4.350  10.746  0.00  0.00    +0.000 C 
ATOM     15  C   UNL     1      43.340   3.615  11.325  0.00  0.00    +0.000 C 
ATOM     16  C   UNL     1      43.105   4.831  10.494  0.00  0.00    +0.000 C 
BRANCH  14  20
ATOM     17  C   UNL     1      46.688   2.650   7.356  0.00  0.00    +0.000 A 
ATOM     18  C   UNL     1      46.576   4.034   7.482  0.00  0.00    +0.000 A 
ATOM     19  C   UNL     1      45.864   4.585   8.553  0.00  0.00    +0.000 A 
ATOM     20  C   UNL     1      45.257   3.774   9.529  0.00  0.00    +0.000 A 
ATOM     21  C   UNL     1      45.360   2.382   9.359  0.00  0.00    +0.000 A 
ATOM     22  C   UNL     1      46.068   1.820   8.291  0.00  0.00    +0.000 A 
BRANCH  17  24
ATOM     23  N   UNL     1      48.068   1.630   5.412  0.00  0.00    +0.000 NA
ATOM     24  C   UNL     1      47.449   2.085   6.283  0.00  0.00    +0.000 C 
ENDBRANCH  17  24
ENDBRANCH  14  20
ENDBRANCH   1  14
TORSDOF 4
ENDMDL
MODEL 5
REMARK VINA RESULT:    -6.682      2.838      6.554
REMARK INTER + INTRA:          -8.061
REMARK INTER:                  -8.254
REMARK INTRA:                   0.193
REMARK UNBOUND:                 0.184
REMARK  Name = 
REMARK  4 active torsions:
REMARK  status: ('A' for Active; 'I' for Inactive)
REMARK    1  A    between atoms: C_2  and  C_3
REMARK    2  A    between atoms: C_6  and  C_7
REMARK    3  A    between atoms: C_7  and  N_8
REMARK    4  A    between atoms: C_12  and  C_13
REMARK                            x       y       z     vdW  Elec       q    Type
REMARK                         _______ _______ _______ _____ _____    ______ ____
ROOT
ATOM      1  N   UNL     1      45.021   5.019  12.734  0.00  0.00    +0.000 N 
ATOM      2  C   UNL     1      46.171   5.795  12.815  0.00  0.00    +0.000 A 
ATOM      3  C   UNL     1      46.418   6.904  12.015  0.00  0.00    +0.000 A 
ATOM      4  C   UNL     1      47.597   7.636  12.198  0.00  0.00    +0.000 A 
ATOM      5  C   UNL     1      48.501   7.240  13.182  0.00  0.00    +0.000 A 
ATOM      6  C   UNL     1      48.181   6.121  13.933  0.00  0.00    +0.000 A 
ATOM      7  N   UNL     1      47.039   5.406  13.774  0.00  0.00    +0.000 NA
ATOM      8  H   UNL     1      45.128   4.234  13.370  0.00  0.00    +0.000 HD
ENDROOT
BRANCH   5   9
ATOM      9  C   UNL     1      49.784   7.925  13.445  0.00  0.00    +0.000 C 
ATOM     10  N   UNL     1      50.583   7.415  14.430  0.00  0.00    +0.000 N 
ATOM     11  O   UNL     1      50.136   8.896  12.788  0.00  0.00    +0.000 OA
ATOM     12  H   UNL     1      50.453   6.494  14.823  0.00  0.00    +0.000 HD
ATOM     13  H   UNL     1      51.497   7.840  14.528  0.00  0.00    +0.000 HD
ENDBRANCH   5   9
BRANCH   1  14
ATOM     14  C   UNL     1      44.129   4.897  11.579  0.00  0.00    +0.000 C 
ATOM     15  C   UNL     1      42.624   4.800  11.749  0.00  0.00    +0.000 C 
ATOM     16  C   UNL     1      43.220   6.103  11.335  0.00  0.00    +0.000 C 
BRANCH  14  20
ATOM     17  C   UNL     1      45.923   3.295   7.942  0.00  0.00    +0.000 A 
ATOM     18  C   UNL     1      45.261   2.439   8.822  0.00  0.00    +0.000 A 
ATOM     19  C   UNL     1      44.706   2.944  10.004  0.00  0.00    +0.000 A 
ATOM     20  C   UNL     1      44.787   4.309  10.331  0.00  0.00    +0.000 A 
ATOM     21  C   UNL     1      45.487   5.141   9.440  0.00  0.00    +0.000 A 
ATOM     22  C   UNL     1      46.048   4.648   8.257  0.00  0.00    +0.000 A 
BRANCH  17  24
ATOM     23  N   UNL     1      46.888   2.376   5.717  0.00  0.00    +0.000 NA
ATOM     24  C   UNL     1      46.458   2.788   6.714  0.00  0.00    +0.000 C 
ENDBRANCH  17  24
ENDBRANCH  14  20
ENDBRANCH   1  14
TORSDOF 4
ENDMDL
MODEL 6
REMARK VINA RESULT:    -6.583      4.143      6.830
REMARK INTER + INTRA:          -7.939
REMARK INTER:                  -7.659
REMARK INTRA:                  -0.280
REMARK UNBOUND:                 0.184
REMARK  Name = 
REMARK  4 active torsions:
REMARK  status: ('A' for Active; 'I' for Inactive)
REMARK    1  A    between atoms: C_2  and  C_3
REMARK    2  A    between atoms: C_6  and  C_7
REMARK    3  A    between atoms: C_7  and  N_8
REMARK    4  A    between atoms: C_12  and  C_13
REMARK                            x       y       z     vdW  Elec       q    Type
REMARK                         _______ _______ _______ _____ _____    ______ ____
ROOT
ATOM      1  N   UNL     1      47.230   3.962  15.835  0.00  0.00    +0.000 N 
ATOM      2  C   UNL     1      46.882   4.581  14.640  0.00  0.00    +0.000 A 
ATOM      3  C   UNL     1      47.598   5.624  14.067  0.00  0.00    +0.000 A 
ATOM      4  C   UNL     1      47.178   6.157  12.843  0.00  0.00    +0.000 A 
ATOM      5  C   UNL     1      46.049   5.631  12.220  0.00  0.00    +0.000 A 
ATOM      6  C   UNL     1      45.389   4.595  12.861  0.00  0.00    +0.000 A 
ATOM      7  N   UNL     1      45.788   4.061  14.042  0.00  0.00    +0.000 NA
ATOM      8  H   UNL     1      46.502   3.292  16.064  0.00  0.00    +0.000 HD
ENDROOT
BRANCH   5   9
ATOM      9  C   UNL     1      45.504   6.133  10.941  0.00  0.00    +0.000 C 
ATOM     10  N   UNL     1      44.670   7.214  10.990  0.00  0.00    +0.000 N 
ATOM     11  O   UNL     1      45.809   5.621   9.872  0.00  0.00    +0.000 OA
ATOM     12  H   UNL     1      44.585   7.809  11.803  0.00  0.00    +0.000 HD
ATOM     13  H   UNL     1      44.385   7.600  10.098  0.00  0.00    +0.000 HD
ENDBRANCH   5   9
BRANCH   1  14
ATOM     14  C   UNL     1      48.052   4.531  16.906  0.00  0.00    +0.000 C 
ATOM     15  C   UNL     1      47.930   5.989  17.306  0.00  0.00    +0.000 C 
ATOM     16  C   UNL     1      47.281   4.950  18.158  0.00  0.00    +0.000 C 
BRANCH  14  20
ATOM     17  C   UNL     1      51.728   2.335  17.734  0.00  0.00    +0.000 A 
ATOM     18  C   UNL     1      51.694   3.719  17.905  0.00  0.00    +0.000 A 
ATOM     19  C   UNL     1      50.525   4.432  17.616  0.00  0.00    +0.000 A 
ATOM     20  C   UNL     1      49.362   3.786  17.161  0.00  0.00    +0.000 A 
ATOM     21  C   UNL     1      49.435   2.395  16.968  0.00  0.00    +0.000 A 
ATOM     22  C   UNL     1      50.599   1.672  17.251  0.00  0.00    +0.000 A 
BRANCH  17  24
ATOM     23  N   UNL     1      53.869   1.001  18.332  0.00  0.00    +0.000 NA
ATOM     24  C   UNL     1      52.909   1.598  18.066  0.00  0.00    +0.000 C 
ENDBRANCH  17  24
ENDBRANCH  14  20
ENDBRANCH   1  14
TORSDOF 4
ENDMDL
MODEL 7
REMARK VINA RESULT:    -6.212      3.989      5.640
REMARK INTER + INTRA:          -7.480
REMARK INTER:                  -7.128
REMARK INTRA:                  -0.353
REMARK UNBOUND:                 0.184
REMARK  Name = 
REMARK  4 active torsions:
REMARK  status: ('A' for Active; 'I' for Inactive)
REMARK    1  A    between atoms: C_2  and  C_3
REMARK    2  A    between atoms: C_6  and  C_7
REMARK    3  A    between atoms: C_7  and  N_8
REMARK    4  A    between atoms: C_12  and  C_13
REMARK                            x       y       z     vdW  Elec       q    Type
REMARK                         _______ _______ _______ _____ _____    ______ ____
ROOT
ATOM      1  N   UNL     1      47.584   6.612  13.195  0.00  0.00    +0.000 N 
ATOM      2  C   UNL     1      46.682   5.777  12.546  0.00  0.00    +0.000 A 
ATOM      3  C   UNL     1      46.094   6.070  11.322  0.00  0.00    +0.000 A 
ATOM      4  C   UNL     1      45.220   5.145  10.739  0.00  0.00    +0.000 A 
ATOM      5  C   UNL     1      44.958   3.945  11.396  0.00  0.00    +0.000 A 
ATOM      6  C   UNL     1      45.582   3.732  12.615  0.00  0.00    +0.000 A 
ATOM      7  N   UNL     1      46.437   4.615  13.188  0.00  0.00    +0.000 NA
ATOM      8  H   UNL     1      47.798   6.200  14.098  0.00  0.00    +0.000 HD
ENDROOT
BRANCH   5   9
ATOM      9  C   UNL     1      44.036   2.909  10.883  0.00  0.00    +0.000 C 
ATOM     10  N   UNL     1      44.462   2.147   9.832  0.00  0.00    +0.000 N 
ATOM     11  O   UNL     1      42.942   2.719  11.396  0.00  0.00    +0.000 OA
ATOM     12  H   UNL     1      45.428   2.102   9.540  0.00  0.00    +0.000 HD
ATOM     13  H   UNL     1      43.856   1.383   9.559  0.00  0.00    +0.000 HD
ENDBRANCH   5   9
BRANCH   1  14
ATOM     14  C   UNL     1      47.725   8.058  13.008  0.00  0.00    +0.000 C 
ATOM     15  C   UNL     1      46.531   8.988  13.107  0.00  0.00    +0.000 C 
ATOM     16  C   UNL     1      47.472   8.898  14.260  0.00  0.00    +0.000 C 
BRANCH  14  20
ATOM     17  C   UNL     1      51.264   9.204  10.732  0.00  0.00    +0.000 A 
ATOM     18  C   UNL     1      50.313  10.168  11.066  0.00  0.00    +0.000 A 
ATOM     19  C   UNL     1      49.163   9.802  11.773  0.00  0.00    +0.000 A 
ATOM     20  C   UNL     1      48.937   8.473  12.174  0.00  0.00    +0.000 A 
ATOM     21  C   UNL     1      49.897   7.518  11.796  0.00  0.00    +0.000 A 
ATOM     22  C   UNL     1      51.050   7.872  11.087  0.00  0.00    +0.000 A 
BRANCH  17  24
ATOM     23  N   UNL     1      53.430   9.894   9.484  0.00  0.00    +0.000 NA
ATOM     24  C   UNL     1      52.460   9.583  10.042  0.00  0.00    +0.000 C 
ENDBRANCH  17  24
ENDBRANCH  14  20
ENDBRANCH   1  14
TORSDOF 4
ENDMDL
MODEL 8
REMARK VINA RESULT:    -6.026      5.349      8.993
REMARK INTER + INTRA:          -7.252
REMARK INTER:                  -6.681
REMARK INTRA:                  -0.571
REMARK UNBOUND:                 0.184
REMARK  Name = 
REMARK  4 active torsions:
REMARK  status: ('A' for Active; 'I' for Inactive)
REMARK    1  A    between atoms: C_2  and  C_3
REMARK    2  A    between atoms: C_6  and  C_7
REMARK    3  A    between atoms: C_7  and  N_8
REMARK    4  A    between atoms: C_12  and  C_13
REMARK                            x       y       z     vdW  Elec       q    Type
REMARK                         _______ _______ _______ _____ _____    ______ ____
ROOT
ATOM      1  N   UNL     1      50.418   4.991  17.641  0.00  0.00    +0.000 N 
ATOM      2  C   UNL     1      51.074   3.766  17.677  0.00  0.00    +0.000 A 
ATOM      3  C   UNL     1      50.500   2.565  17.280  0.00  0.00    +0.000 A 
ATOM      4  C   UNL     1      51.259   1.390  17.326  0.00  0.00    +0.000 A 
ATOM      5  C   UNL     1      52.579   1.447  17.768  0.00  0.00    +0.000 A 
ATOM      6  C   UNL     1      53.074   2.683  18.151  0.00  0.00    +0.000 A 
ATOM      7  N   UNL     1      52.354   3.832  18.103  0.00  0.00    +0.000 NA
ATOM      8  H   UNL     1      51.032   5.686  18.055  0.00  0.00    +0.000 HD
ENDROOT
BRANCH   5   9
ATOM      9  C   UNL     1      53.462   0.266  17.880  0.00  0.00    +0.000 C 
ATOM     10  N   UNL     1      53.849  -0.346  16.721  0.00  0.00    +0.000 N 
ATOM     11  O   UNL     1      53.858  -0.134  18.966  0.00  0.00    +0.000 OA
ATOM     12  H   UNL     1      53.751   0.083  15.812  0.00  0.00    +0.000 HD
ATOM     13  H   UNL     1      54.528  -1.091  16.814  0.00  0.00    +0.000 HD
ENDBRANCH   5   9
BRANCH   1  14
ATOM     14  C   UNL     1      48.969   5.206  17.653  0.00  0.00    +0.000 C 
ATOM     15  C   UNL     1      48.120   4.800  18.842  0.00  0.00    +0.000 C 
ATOM     16  C   UNL     1      48.478   6.237  18.670  0.00  0.00    +0.000 C 
BRANCH  14  20
ATOM     17  C   UNL     1      47.094   5.583  13.734  0.00  0.00    +0.000 A 
ATOM     18  C   UNL     1      46.767   4.506  14.558  0.00  0.00    +0.000 A 
ATOM     19  C   UNL     1      47.385   4.365  15.806  0.00  0.00    +0.000 A 
ATOM     20  C   UNL     1      48.333   5.297  16.267  0.00  0.00    +0.000 A 
ATOM     21  C   UNL     1      48.666   6.354  15.402  0.00  0.00    +0.000 A 
ATOM     22  C   UNL     1      48.056   6.503  14.151  0.00  0.00    +0.000 A 
BRANCH  17  24
ATOM     23  N   UNL     1      45.899   5.888  11.453  0.00  0.00    +0.000 NA
ATOM     24  C   UNL     1      46.435   5.750  12.474  0.00  0.00    +0.000 C 
ENDBRANCH  17  24
ENDBRANCH  14  20
ENDBRANCH   1  14
TORSDOF 4
ENDMDL
MODEL 9
REMARK VINA RESULT:    -5.992      3.530      5.462
REMARK INTER + INTRA:          -7.210
REMARK INTER:                  -6.591
REMARK INTRA:                  -0.619
REMARK UNBOUND:                 0.184
REMARK  Name = 
REMARK  4 active torsions:
REMARK  status: ('A' for Active; 'I' for Inactive)
REMARK    1  A    between atoms: C_2  and  C_3
REMARK    2  A    between atoms: C_6  and  C_7
REMARK    3  A    between atoms: C_7  and  N_8
REMARK    4  A    between atoms: C_12  and  C_13
REMARK                            x       y       z     vdW  Elec       q    Type
REMARK                         _______ _______ _______ _____ _____    ______ ____
ROOT
ATOM      1  N   UNL     1      47.119   7.904  12.425  0.00  0.00    +0.000 N 
ATOM      2  C   UNL     1      46.410   6.718  12.276  0.00  0.00    +0.000 A 
ATOM      3  C   UNL     1      46.728   5.535  12.931  0.00  0.00    +0.000 A 
ATOM      4  C   UNL     1      45.929   4.403  12.734  0.00  0.00    +0.000 A 
ATOM      5  C   UNL     1      44.827   4.484  11.884  0.00  0.00    +0.000 A 
ATOM      6  C   UNL     1      44.583   5.699  11.266  0.00  0.00    +0.000 A 
ATOM      7  N   UNL     1      45.343   6.807  11.453  0.00  0.00    +0.000 NA
ATOM      8  H   UNL     1      46.728   8.585  11.780  0.00  0.00    +0.000 HD
ENDROOT
BRANCH   5   9
ATOM      9  C   UNL     1      43.932   3.345  11.586  0.00  0.00    +0.000 C 
ATOM     10  N   UNL     1      43.726   2.427  12.577  0.00  0.00    +0.000 N 
ATOM     11  O   UNL     1      43.372   3.240  10.504  0.00  0.00    +0.000 OA
ATOM     12  H   UNL     1      43.965   2.596  13.544  0.00  0.00    +0.000 HD
ATOM     13  H   UNL     1      43.037   1.710  12.385  0.00  0.00    +0.000 HD
ENDBRANCH   5   9
BRANCH   1  14
ATOM     14  C   UNL     1      48.509   8.041  12.867  0.00  0.00    +0.000 C 
ATOM     15  C   UNL     1      49.665   7.605  11.986  0.00  0.00    +0.000 C 
ATOM     16  C   UNL     1      49.339   9.057  12.081  0.00  0.00    +0.000 C 
BRANCH  14  20
ATOM     17  C   UNL     1      48.948   8.038  17.205  0.00  0.00    +0.000 A 
ATOM     18  C   UNL     1      48.292   9.096  16.576  0.00  0.00    +0.000 A 
ATOM     19  C   UNL     1      48.171   9.116  15.182  0.00  0.00    +0.000 A 
ATOM     20  C   UNL     1      48.689   8.080  14.383  0.00  0.00    +0.000 A 
ATOM     21  C   UNL     1      49.372   7.043  15.043  0.00  0.00    +0.000 A 
ATOM     22  C   UNL     1      49.501   7.014  16.436  0.00  0.00    +0.000 A 
BRANCH  17  24
ATOM     23  N   UNL     1      49.113   7.959  19.792  0.00  0.00    +0.000 NA
ATOM     24  C   UNL     1      49.039   7.996  18.633  0.00  0.00    +0.000 C 
ENDBRANCH  17  24
ENDBRANCH  14  20
ENDBRANCH   1  14
TORSDOF 4
ENDMDL
