MODEL 1
REMARK VINA RESULT:    -7.613      0.000      0.000
REMARK INTER + INTRA:         -12.419
REMARK INTER:                 -10.951
REMARK INTRA:                  -1.468
REMARK UNBOUND:                -1.468
REMARK  Name = 
REMARK  8 active torsions:
REMARK  status: ('A' for Active; 'I' for Inactive)
REMARK    1  A    between atoms: N_1  and  C_2
REMARK    2  A    between atoms: C_2  and  C_3
REMARK    3  A    between atoms: C_3  and  N_4
REMARK    4  A    between atoms: C_3  and  C_17
REMARK    5  A    between atoms: C_5  and  C_7
REMARK    6  A    between atoms: C_20  and  C_21
REMARK    7  A    between atoms: C_21  and  N_22
REMARK    8  A    between atoms: C_23  and  C_25
REMARK                            x       y       z     vdW  Elec       q    Type
REMARK                         _______ _______ _______ _____ _____    ______ ____
ROOT
ATOM      1  C   UNL     1      48.278   7.106  14.258  0.00  0.00    +0.000 C 
ENDROOT
BRANCH   1   2
ATOM      2  C   UNL     1      47.281   6.291  13.423  0.00  0.00    +0.000 A 
ATOM      3  C   UNL     1      46.949   4.982  13.797  0.00  0.00    +0.000 A 
ATOM      4  C   UNL     1      46.037   4.223  13.046  0.00  0.00    +0.000 A 
ATOM      5  C   UNL     1      45.438   4.752  11.894  0.00  0.00    +0.000 A 
ATOM      6  C   UNL     1      45.746   6.068  11.531  0.00  0.00    +0.000 A 
ATOM      7  C   UNL     1      46.658   6.826  12.281  0.00  0.00    +0.000 A 
BRANCH   5   8
ATOM      8  C   UNL     1      44.479   3.927  11.067  0.00  0.00    +0.000 C 
BRANCH   8   9
ATOM      9  N   UNL     1      45.162   3.085  10.113  0.00  0.00    +0.000 N 
ATOM     10  C   UNL     1      45.350   3.485   8.811  0.00  0.00    +0.000 C 
ATOM     11  O   UNL     1      44.928   4.559   8.383  0.00  0.00    +0.000 OA
ATOM     12  H   UNL     1      45.600   2.239  10.444  0.00  0.00    +0.000 HD
BRANCH  10  13
ATOM     13  C   UNL     1      46.080   2.556   7.971  0.00  0.00    +0.000 A 
ATOM     14  C   UNL     1      46.812   2.737   6.804  0.00  0.00    +0.000 A 
ATOM     15  C   UNL     1      47.335   1.480   6.410  0.00  0.00    +0.000 A 
ATOM     16  C   UNL     1      46.915   0.555   7.336  0.00  0.00    +0.000 A 
ATOM     17  N   UNL     1      46.159   1.211   8.271  0.00  0.00    +0.000 N 
ATOM     18  H   UNL     1      45.716   0.788   9.079  0.00  0.00    +0.000 HD
ENDBRANCH  10  13
ENDBRANCH   8   9
ENDBRANCH   5   8
ENDBRANCH   1   2
BRANCH   1  19
ATOM     19  N   UNL     1      48.211   6.650  15.641  0.00  0.00    +0.000 N 
ATOM     20  C   UNL     1      49.304   6.297  16.394  0.00  0.00    +0.000 C 
ATOM     21  O   UNL     1      50.441   6.258  15.938  0.00  0.00    +0.000 OA
ATOM     22  H   UNL     1      47.308   6.728  16.090  0.00  0.00    +0.000 HD
BRANCH  20  23
ATOM     23  C   UNL     1      49.017   5.903  17.778  0.00  0.00    +0.000 A 
ATOM     24  C   UNL     1      49.284   4.613  18.213  0.00  0.00    +0.000 A 
ATOM     25  S   UNL     1      48.766   4.316  19.814  0.00  0.00    +0.000 S 
ATOM     26  C   UNL     1      48.216   5.917  19.993  0.00  0.00    +0.000 A 
ATOM     27  N   UNL     1      47.613   6.333  21.139  0.00  0.00    +0.000 NA
ATOM     28  C   UNL     1      47.266   7.577  21.139  0.00  0.00    +0.000 A 
ATOM     29  N   UNL     1      47.492   8.452  20.107  0.00  0.00    +0.000 N 
ATOM     30  C   UNL     1      48.119   8.082  18.944  0.00  0.00    +0.000 A 
ATOM     31  O   UNL     1      48.338   8.897  18.055  0.00  0.00    +0.000 OA
ATOM     32  C   UNL     1      48.465   6.676  18.865  0.00  0.00    +0.000 A 
ATOM     33  H   UNL     1      47.221   9.420  20.179  0.00  0.00    +0.000 HD
ENDBRANCH  20  23
ENDBRANCH   1  19
BRANCH   1  34
ATOM     34  C   UNL     1      48.046   8.643  14.135  0.00  0.00    +0.000 C 
BRANCH  34  35
ATOM     35  N   UNL     1      47.418   9.258  15.312  0.00  0.00    +0.000 NA
ATOM     36  H   UNL     1      46.451   9.487  15.086  0.00  0.00    +0.000 HD
ATOM     37  H   UNL     1      47.883  10.141  15.524  0.00  0.00    +0.000 HD
ENDBRANCH  34  35
ENDBRANCH   1  34
TORSDOF 8
ENDMDL
MODEL 2
REMARK VINA RESULT:    -7.277      2.881      4.530
REMARK INTER + INTRA:         -11.936
REMARK INTER:                 -10.731
REMARK INTRA:                  -1.204
REMARK UNBOUND:                -1.468
REMARK  Name = 
REMARK  8 active torsions:
REMARK  status: ('A' for Active; 'I' for Inactive)
REMARK    1  A    between atoms: N_1  and  C_2
REMARK    2  A    between atoms: C_2  and  C_3
REMARK    3  A    between atoms: C_3  and  N_4
REMARK    4  A    between atoms: C_3  and  C_17
REMARK    5  A    between atoms: C_5  and  C_7
REMARK    6  A    between atoms: C_20  and  C_21
REMARK    7  A    between atoms: C_21  and  N_22
REMARK    8  A    between atoms: C_23  and  C_25
REMARK                            x       y       z     vdW  Elec       q    Type
REMARK                         _______ _______ _______ _____ _____    ______ ____
ROOT
ATOM      1  C   UNL     1      47.109   5.091  15.107  0.00  0.00    +0.000 C 
ENDROOT
BRANCH   1   2
ATOM      2  C   UNL     1      46.261   4.836  13.853  0.00  0.00    +0.000 A 
ATOM      3  C   UNL     1      46.188   3.551  13.297  0.00  0.00    +0.000 A 
ATOM      4  C   UNL     1      45.415   3.299  12.152  0.00  0.00    +0.000 A 
ATOM      5  C   UNL     1      44.700   4.330  11.527  0.00  0.00    +0.000 A 
ATOM      6  C   UNL     1      44.749   5.609  12.093  0.00  0.00    +0.000 A 
ATOM      7  C   UNL     1      45.521   5.860  13.236  0.00  0.00    +0.000 A 
BRANCH   5   8
ATOM      8  C   UNL     1      43.891   4.069  10.277  0.00  0.00    +0.000 C 
BRANCH   8   9
ATOM      9  N   UNL     1      44.634   3.322   9.289  0.00  0.00    +0.000 N 
ATOM     10  C   UNL     1      45.551   3.937   8.468  0.00  0.00    +0.000 C 
ATOM     11  O   UNL     1      45.767   5.148   8.511  0.00  0.00    +0.000 OA
ATOM     12  H   UNL     1      44.552   2.317   9.283  0.00  0.00    +0.000 HD
BRANCH  10  13
ATOM     13  C   UNL     1      46.248   3.062   7.547  0.00  0.00    +0.000 A 
ATOM     14  C   UNL     1      46.726   3.263   6.258  0.00  0.00    +0.000 A 
ATOM     15  C   UNL     1      47.350   2.065   5.825  0.00  0.00    +0.000 A 
ATOM     16  C   UNL     1      47.242   1.156   6.850  0.00  0.00    +0.000 A 
ATOM     17  N   UNL     1      46.577   1.764   7.882  0.00  0.00    +0.000 N 
ATOM     18  H   UNL     1      46.351   1.339   8.774  0.00  0.00    +0.000 HD
ENDBRANCH  10  13
ENDBRANCH   8   9
ENDBRANCH   5   8
ENDBRANCH   1   2
BRANCH   1  19
ATOM     19  N   UNL     1      48.302   5.834  14.719  0.00  0.00    +0.000 N 
ATOM     20  C   UNL     1      48.965   6.715  15.537  0.00  0.00    +0.000 C 
ATOM     21  O   UNL     1      48.561   7.019  16.654  0.00  0.00    +0.000 OA
ATOM     22  H   UNL     1      48.720   5.574  13.836  0.00  0.00    +0.000 HD
BRANCH  20  23
ATOM     23  C   UNL     1      50.169   7.328  14.963  0.00  0.00    +0.000 A 
ATOM     24  C   UNL     1      51.374   7.294  15.650  0.00  0.00    +0.000 A 
ATOM     25  S   UNL     1      52.621   8.167  14.876  0.00  0.00    +0.000 S 
ATOM     26  C   UNL     1      51.604   8.575  13.573  0.00  0.00    +0.000 A 
ATOM     27  N   UNL     1      52.043   9.363  12.555  0.00  0.00    +0.000 NA
ATOM     28  C   UNL     1      51.169   9.572  11.627  0.00  0.00    +0.000 A 
ATOM     29  N   UNL     1      49.904   9.043  11.611  0.00  0.00    +0.000 N 
ATOM     30  C   UNL     1      49.428   8.225  12.605  0.00  0.00    +0.000 A 
ATOM     31  O   UNL     1      48.304   7.739  12.543  0.00  0.00    +0.000 OA
ATOM     32  C   UNL     1      50.347   8.016  13.707  0.00  0.00    +0.000 A 
ATOM     33  H   UNL     1      49.275   9.223  10.843  0.00  0.00    +0.000 HD
ENDBRANCH  20  23
ENDBRANCH   1  19
BRANCH   1  34
ATOM     34  C   UNL     1      47.459   3.777  15.871  0.00  0.00    +0.000 C 
BRANCH  34  35
ATOM     35  N   UNL     1      46.665   3.554  17.087  0.00  0.00    +0.000 NA
ATOM     36  H   UNL     1      46.253   2.624  17.044  0.00  0.00    +0.000 HD
ATOM     37  H   UNL     1      45.887   4.214  17.111  0.00  0.00    +0.000 HD
ENDBRANCH  34  35
ENDBRANCH   1  34
TORSDOF 8
ENDMDL
MODEL 3
REMARK VINA RESULT:    -7.155      1.361      1.989
REMARK INTER + INTRA:         -11.760
REMARK INTER:                 -10.718
REMARK INTRA:                  -1.042
REMARK UNBOUND:                -1.468
REMARK  Name = 
REMARK  8 active torsions:
REMARK  status: ('A' for Active; 'I' for Inactive)
REMARK    1  A    between atoms: N_1  and  C_2
REMARK    2  A    between atoms: C_2  and  C_3
REMARK    3  A    between atoms: C_3  and  N_4
REMARK    4  A    between atoms: C_3  and  C_17
REMARK    5  A    between atoms: C_5  and  C_7
REMARK    6  A    between atoms: C_20  and  C_21
REMARK    7  A    between atoms: C_21  and  N_22
REMARK    8  A    between atoms: C_23  and  C_25
REMARK                            x       y       z     vdW  Elec       q    Type
REMARK                         _______ _______ _______ _____ _____    ______ ____
ROOT
ATOM      1  C   UNL     1      48.386   7.605  13.735  0.00  0.00    +0.000 C 
ENDROOT
BRANCH   1   2
ATOM      2  C   UNL     1      47.348   6.732  13.016  0.00  0.00    +0.000 A 
ATOM      3  C   UNL     1      47.073   5.436  13.475  0.00  0.00    +0.000 A 
ATOM      4  C   UNL     1      46.126   4.625  12.831  0.00  0.00    +0.000 A 
ATOM      5  C   UNL     1      45.433   5.085  11.703  0.00  0.00    +0.000 A 
ATOM      6  C   UNL     1      45.685   6.387  11.256  0.00  0.00    +0.000 A 
ATOM      7  C   UNL     1      46.631   7.198  11.899  0.00  0.00    +0.000 A 
BRANCH   5   8
ATOM      8  C   UNL     1      44.434   4.203  10.989  0.00  0.00    +0.000 C 
BRANCH   8   9
ATOM      9  N   UNL     1      45.071   3.273  10.087  0.00  0.00    +0.000 N 
ATOM     10  C   UNL     1      45.389   3.630   8.798  0.00  0.00    +0.000 C 
ATOM     11  O   UNL     1      45.128   4.742   8.338  0.00  0.00    +0.000 OA
ATOM     12  H   UNL     1      45.382   2.385  10.450  0.00  0.00    +0.000 HD
BRANCH  10  13
ATOM     13  C   UNL     1      46.055   2.610   8.013  0.00  0.00    +0.000 A 
ATOM     14  C   UNL     1      46.782   2.674   6.831  0.00  0.00    +0.000 A 
ATOM     15  C   UNL     1      47.228   1.366   6.513  0.00  0.00    +0.000 A 
ATOM     16  C   UNL     1      46.767   0.528   7.499  0.00  0.00    +0.000 A 
ATOM     17  N   UNL     1      46.061   1.284   8.397  0.00  0.00    +0.000 N 
ATOM     18  H   UNL     1      45.604   0.939   9.234  0.00  0.00    +0.000 HD
ENDBRANCH  10  13
ENDBRANCH   8   9
ENDBRANCH   5   8
ENDBRANCH   1   2
BRANCH   1  19
ATOM     19  N   UNL     1      48.250   7.403  15.172  0.00  0.00    +0.000 N 
ATOM     20  C   UNL     1      49.280   7.035  16.002  0.00  0.00    +0.000 C 
ATOM     21  O   UNL     1      50.403   6.763  15.590  0.00  0.00    +0.000 OA
ATOM     22  H   UNL     1      47.366   7.678  15.578  0.00  0.00    +0.000 HD
BRANCH  20  23
ATOM     23  C   UNL     1      48.937   6.923  17.425  0.00  0.00    +0.000 A 
ATOM     24  C   UNL     1      48.649   8.057  18.171  0.00  0.00    +0.000 A 
ATOM     25  S   UNL     1      48.397   7.732  19.829  0.00  0.00    +0.000 S 
ATOM     26  C   UNL     1      48.614   6.059  19.592  0.00  0.00    +0.000 A 
ATOM     27  N   UNL     1      48.567   5.187  20.634  0.00  0.00    +0.000 NA
ATOM     28  C   UNL     1      48.730   3.949  20.301  0.00  0.00    +0.000 A 
ATOM     29  N   UNL     1      48.907   3.501  19.017  0.00  0.00    +0.000 N 
ATOM     30  C   UNL     1      48.938   4.344  17.934  0.00  0.00    +0.000 A 
ATOM     31  O   UNL     1      49.063   3.908  16.795  0.00  0.00    +0.000 OA
ATOM     32  C   UNL     1      48.831   5.752  18.261  0.00  0.00    +0.000 A 
ATOM     33  H   UNL     1      49.002   2.517  18.819  0.00  0.00    +0.000 HD
ENDBRANCH  20  23
ENDBRANCH   1  19
BRANCH   1  34
ATOM     34  C   UNL     1      48.277   9.110  13.341  0.00  0.00    +0.000 C 
BRANCH  34  35
ATOM     35  N   UNL     1      48.090  10.022  14.478  0.00  0.00    +0.000 NA
ATOM     36  H   UNL     1      47.092  10.154  14.632  0.00  0.00    +0.000 HD
ATOM     37  H   UNL     1      48.471  10.940  14.244  0.00  0.00    +0.000 HD
ENDBRANCH  34  35
ENDBRANCH   1  34
TORSDOF 8
ENDMDL
MODEL 4
REMARK VINA RESULT:    -6.939      3.937      8.701
REMARK INTER + INTRA:         -11.449
REMARK INTER:                 -10.365
REMARK INTRA:                  -1.084
REMARK UNBOUND:                -1.468
REMARK  Name = 
REMARK  8 active torsions:
REMARK  status: ('A' for Active; 'I' for Inactive)
REMARK    1  A    between atoms: N_1  and  C_2
REMARK    2  A    between atoms: C_2  and  C_3
REMARK    3  A    between atoms: C_3  and  N_4
REMARK    4  A    between atoms: C_3  and  C_17
REMARK    5  A    between atoms: C_5  and  C_7
REMARK    6  A    between atoms: C_20  and  C_21
REMARK    7  A    between atoms: C_21  and  N_22
REMARK    8  A    between atoms: C_23  and  C_25
REMARK                            x       y       z     vdW  Elec       q    Type
REMARK                         _______ _______ _______ _____ _____    ______ ____
ROOT
ATOM      1  C   UNL     1      47.891   7.086  13.744  0.00  0.00    +0.000 C 
ENDROOT
BRANCH   1   2
ATOM      2  C   UNL     1      48.283   6.273  14.985  0.00  0.00    +0.000 A 
ATOM      3  C   UNL     1      47.555   5.131  15.344  0.00  0.00    +0.000 A 
ATOM      4  C   UNL     1      47.901   4.375  16.475  0.00  0.00    +0.000 A 
ATOM      5  C   UNL     1      48.984   4.747  17.284  0.00  0.00    +0.000 A 
ATOM      6  C   UNL     1      49.731   5.872  16.917  0.00  0.00    +0.000 A 
ATOM      7  C   UNL     1      49.384   6.627  15.787  0.00  0.00    +0.000 A 
BRANCH   5   8
ATOM      8  C   UNL     1      49.341   3.953  18.520  0.00  0.00    +0.000 C 
BRANCH   8   9
ATOM      9  N   UNL     1      50.638   3.328  18.415  0.00  0.00    +0.000 N 
ATOM     10  C   UNL     1      50.847   2.246  17.591  0.00  0.00    +0.000 C 
ATOM     11  O   UNL     1      49.943   1.740  16.925  0.00  0.00    +0.000 OA
ATOM     12  H   UNL     1      51.423   3.765  18.873  0.00  0.00    +0.000 HD
BRANCH  10  13
ATOM     13  C   UNL     1      52.204   1.740  17.557  0.00  0.00    +0.000 A 
ATOM     14  C   UNL     1      53.429   2.347  17.804  0.00  0.00    +0.000 A 
ATOM     15  C   UNL     1      54.447   1.373  17.643  0.00  0.00    +0.000 A 
ATOM     16  C   UNL     1      53.832   0.193  17.300  0.00  0.00    +0.000 A 
ATOM     17  N   UNL     1      52.482   0.423  17.249  0.00  0.00    +0.000 N 
ATOM     18  H   UNL     1      51.771  -0.264  17.024  0.00  0.00    +0.000 HD
ENDBRANCH  10  13
ENDBRANCH   8   9
ENDBRANCH   5   8
ENDBRANCH   1   2
BRANCH   1  19
ATOM     19  N   UNL     1      47.225   6.198  12.798  0.00  0.00    +0.000 N 
ATOM     20  C   UNL     1      46.227   6.590  11.940  0.00  0.00    +0.000 C 
ATOM     21  O   UNL     1      45.746   7.718  11.949  0.00  0.00    +0.000 OA
ATOM     22  H   UNL     1      47.626   5.276  12.697  0.00  0.00    +0.000 HD
BRANCH  20  23
ATOM     23  C   UNL     1      45.720   5.546  11.041  0.00  0.00    +0.000 A 
ATOM     24  C   UNL     1      45.928   5.633   9.672  0.00  0.00    +0.000 A 
ATOM     25  S   UNL     1      45.156   4.392   8.788  0.00  0.00    +0.000 S 
ATOM     26  C   UNL     1      44.563   3.670  10.212  0.00  0.00    +0.000 A 
ATOM     27  N   UNL     1      43.772   2.565  10.166  0.00  0.00    +0.000 NA
ATOM     28  C   UNL     1      43.414   2.117  11.323  0.00  0.00    +0.000 A 
ATOM     29  N   UNL     1      43.797   2.658  12.524  0.00  0.00    +0.000 N 
ATOM     30  C   UNL     1      44.612   3.757  12.617  0.00  0.00    +0.000 A 
ATOM     31  O   UNL     1      44.965   4.195  13.707  0.00  0.00    +0.000 OA
ATOM     32  C   UNL     1      44.985   4.342  11.344  0.00  0.00    +0.000 A 
ATOM     33  H   UNL     1      43.504   2.245  13.397  0.00  0.00    +0.000 HD
ENDBRANCH  20  23
ENDBRANCH   1  19
BRANCH   1  34
ATOM     34  C   UNL     1      49.106   7.824  13.102  0.00  0.00    +0.000 C 
BRANCH  34  35
ATOM     35  N   UNL     1      49.887   7.004  12.168  0.00  0.00    +0.000 NA
ATOM     36  H   UNL     1      49.814   7.408  11.235  0.00  0.00    +0.000 HD
ATOM     37  H   UNL     1      49.480   6.070  12.111  0.00  0.00    +0.000 HD
ENDBRANCH  34  35
ENDBRANCH   1  34
TORSDOF 8
ENDMDL
MODEL 5
REMARK VINA RESULT:    -6.555      3.293      4.322
REMARK INTER + INTRA:         -10.897
REMARK INTER:                 -10.204
REMARK INTRA:                  -0.693
REMARK UNBOUND:                -1.468
REMARK  Name = 
REMARK  8 active torsions:
REMARK  status: ('A' for Active; 'I' for Inactive)
REMARK    1  A    between atoms: N_1  and  C_2
REMARK    2  A    between atoms: C_2  and  C_3
REMARK    3  A    between atoms: C_3  and  N_4
REMARK    4  A    between atoms: C_3  and  C_17
REMARK    5  A    between atoms: C_5  and  C_7
REMARK    6  A    between atoms: C_20  and  C_21
REMARK    7  A    between atoms: C_21  and  N_22
REMARK    8  A    between atoms: C_23  and  C_25
REMARK                            x       y       z     vdW  Elec       q    Type
REMARK                         _______ _______ _______ _____ _____    ______ ____
ROOT
ATOM      1  C   UNL     1      46.766   5.328  14.946  0.00  0.00    +0.000 C 
ENDROOT
BRANCH   1   2
ATOM      2  C   UNL     1      45.985   5.097  13.645  0.00  0.00    +0.000 A 
ATOM      3  C   UNL     1      45.891   3.811  13.094  0.00  0.00    +0.000 A 
ATOM      4  C   UNL     1      45.180   3.582  11.906  0.00  0.00    +0.000 A 
ATOM      5  C   UNL     1      44.549   4.636  11.231  0.00  0.00    +0.000 A 
ATOM      6  C   UNL     1      44.618   5.917  11.790  0.00  0.00    +0.000 A 
ATOM      7  C   UNL     1      45.329   6.146  12.977  0.00  0.00    +0.000 A 
BRANCH   5   8
ATOM      8  C   UNL     1      43.808   4.397   9.935  0.00  0.00    +0.000 C 
BRANCH   8   9
ATOM      9  N   UNL     1      44.576   3.608   9.001  0.00  0.00    +0.000 N 
ATOM     10  C   UNL     1      45.663   4.135   8.344  0.00  0.00    +0.000 C 
ATOM     11  O   UNL     1      46.023   5.303   8.494  0.00  0.00    +0.000 OA
ATOM     12  H   UNL     1      44.370   2.625   8.918  0.00  0.00    +0.000 HD
BRANCH  10  13
ATOM     13  C   UNL     1      46.361   3.222   7.462  0.00  0.00    +0.000 A 
ATOM     14  C   UNL     1      46.702   1.881   7.592  0.00  0.00    +0.000 A 
ATOM     15  C   UNL     1      47.370   1.476   6.409  0.00  0.00    +0.000 A 
ATOM     16  C   UNL     1      47.430   2.571   5.580  0.00  0.00    +0.000 A 
ATOM     17  N   UNL     1      46.821   3.617   6.221  0.00  0.00    +0.000 N 
ATOM     18  H   UNL     1      46.711   4.555   5.853  0.00  0.00    +0.000 HD
ENDBRANCH  10  13
ENDBRANCH   8   9
ENDBRANCH   5   8
ENDBRANCH   1   2
BRANCH   1  19
ATOM     19  N   UNL     1      47.720   6.408  14.732  0.00  0.00    +0.000 N 
ATOM     20  C   UNL     1      48.577   6.482  13.661  0.00  0.00    +0.000 C 
ATOM     21  O   UNL     1      48.672   5.594  12.821  0.00  0.00    +0.000 OA
ATOM     22  H   UNL     1      47.640   7.201  15.353  0.00  0.00    +0.000 HD
BRANCH  20  23
ATOM     23  C   UNL     1      49.430   7.676  13.616  0.00  0.00    +0.000 A 
ATOM     24  C   UNL     1      49.162   8.700  12.719  0.00  0.00    +0.000 A 
ATOM     25  S   UNL     1      50.336   9.940  12.733  0.00  0.00    +0.000 S 
ATOM     26  C   UNL     1      51.213   9.172  13.974  0.00  0.00    +0.000 A 
ATOM     27  N   UNL     1      52.378   9.695  14.444  0.00  0.00    +0.000 NA
ATOM     28  C   UNL     1      52.922   9.015  15.398  0.00  0.00    +0.000 A 
ATOM     29  N   UNL     1      52.393   7.874  15.945  0.00  0.00    +0.000 N 
ATOM     30  C   UNL     1      51.209   7.326  15.519  0.00  0.00    +0.000 A 
ATOM     31  O   UNL     1      50.746   6.324  16.054  0.00  0.00    +0.000 OA
ATOM     32  C   UNL     1      50.594   8.012  14.400  0.00  0.00    +0.000 A 
ATOM     33  H   UNL     1      52.854   7.402  16.708  0.00  0.00    +0.000 HD
ENDBRANCH  20  23
ENDBRANCH   1  19
BRANCH   1  34
ATOM     34  C   UNL     1      47.455   4.030  15.469  0.00  0.00    +0.000 C 
BRANCH  34  35
ATOM     35  N   UNL     1      48.522   4.264  16.451  0.00  0.00    +0.000 NA
ATOM     36  H   UNL     1      48.104   4.601  17.317  0.00  0.00    +0.000 HD
ATOM     37  H   UNL     1      49.135   5.008  16.117  0.00  0.00    +0.000 HD
ENDBRANCH  34  35
ENDBRANCH   1  34
TORSDOF 8
ENDMDL
MODEL 6
REMARK VINA RESULT:    -6.274      2.893      4.098
REMARK INTER + INTRA:         -10.493
REMARK INTER:                  -9.118
REMARK INTRA:                  -1.374
REMARK UNBOUND:                -1.468
REMARK  Name = 
REMARK  8 active torsions:
REMARK  status: ('A' for Active; 'I' for Inactive)
REMARK    1  A    between atoms: N_1  and  C_2
REMARK    2  A    between atoms: C_2  and  C_3
REMARK    3  A    between atoms: C_3  and  N_4
REMARK    4  A    between atoms: C_3  and  C_17
REMARK    5  A    between atoms: C_5  and  C_7
REMARK    6  A    between atoms: C_20  and  C_21
REMARK    7  A    between atoms: C_21  and  N_22
REMARK    8  A    between atoms: C_23  and  C_25
REMARK                            x       y       z     vdW  Elec       q    Type
REMARK                         _______ _______ _______ _____ _____    ______ ____
ROOT
ATOM      1  C   UNL     1      47.557   5.275  15.603  0.00  0.00    +0.000 C 
ENDROOT
BRANCH   1   2
ATOM      2  C   UNL     1      46.889   5.370  14.224  0.00  0.00    +0.000 A 
ATOM      3  C   UNL     1      45.855   4.491  13.876  0.00  0.00    +0.000 A 
ATOM      4  C   UNL     1      45.232   4.565  12.620  0.00  0.00    +0.000 A 
ATOM      5  C   UNL     1      45.634   5.517  11.673  0.00  0.00    +0.000 A 
ATOM      6  C   UNL     1      46.648   6.414  12.025  0.00  0.00    +0.000 A 
ATOM      7  C   UNL     1      47.271   6.340  13.279  0.00  0.00    +0.000 A 
BRANCH   5   8
ATOM      8  C   UNL     1      44.986   5.580  10.309  0.00  0.00    +0.000 C 
BRANCH   8   9
ATOM      9  N   UNL     1      45.677   4.767   9.336  0.00  0.00    +0.000 N 
ATOM     10  C   UNL     1      45.255   3.493   9.039  0.00  0.00    +0.000 C 
ATOM     11  O   UNL     1      44.292   2.969   9.598  0.00  0.00    +0.000 OA
ATOM     12  H   UNL     1      46.414   5.190   8.792  0.00  0.00    +0.000 HD
BRANCH  10  13
ATOM     13  C   UNL     1      46.021   2.803   8.019  0.00  0.00    +0.000 A 
ATOM     14  C   UNL     1      46.482   1.496   7.929  0.00  0.00    +0.000 A 
ATOM     15  C   UNL     1      47.168   1.352   6.696  0.00  0.00    +0.000 A 
ATOM     16  C   UNL     1      47.119   2.568   6.058  0.00  0.00    +0.000 A 
ATOM     17  N   UNL     1      46.428   3.436   6.862  0.00  0.00    +0.000 N 
ATOM     18  H   UNL     1      46.229   4.408   6.652  0.00  0.00    +0.000 HD
ENDBRANCH  10  13
ENDBRANCH   8   9
ENDBRANCH   5   8
ENDBRANCH   1   2
BRANCH   1  19
ATOM     19  N   UNL     1      48.930   5.752  15.490  0.00  0.00    +0.000 N 
ATOM     20  C   UNL     1      49.387   6.931  16.026  0.00  0.00    +0.000 C 
ATOM     21  O   UNL     1      48.651   7.736  16.588  0.00  0.00    +0.000 OA
ATOM     22  H   UNL     1      49.595   5.100  15.098  0.00  0.00    +0.000 HD
BRANCH  20  23
ATOM     23  C   UNL     1      50.815   7.203  15.830  0.00  0.00    +0.000 A 
ATOM     24  C   UNL     1      51.228   8.273  15.049  0.00  0.00    +0.000 A 
ATOM     25  S   UNL     1      52.922   8.348  14.841  0.00  0.00    +0.000 S 
ATOM     26  C   UNL     1      53.160   6.982  15.829  0.00  0.00    +0.000 A 
ATOM     27  N   UNL     1      54.403   6.474  16.043  0.00  0.00    +0.000 NA
ATOM     28  C   UNL     1      54.433   5.449  16.829  0.00  0.00    +0.000 A 
ATOM     29  N   UNL     1      53.335   4.903  17.444  0.00  0.00    +0.000 N 
ATOM     30  C   UNL     1      52.067   5.398  17.275  0.00  0.00    +0.000 A 
ATOM     31  O   UNL     1      51.111   4.908  17.868  0.00  0.00    +0.000 OA
ATOM     32  C   UNL     1      51.969   6.506  16.345  0.00  0.00    +0.000 A 
ATOM     33  H   UNL     1      53.427   4.117  18.070  0.00  0.00    +0.000 HD
ENDBRANCH  20  23
ENDBRANCH   1  19
BRANCH   1  34
ATOM     34  C   UNL     1      47.481   3.840  16.207  0.00  0.00    +0.000 C 
BRANCH  34  35
ATOM     35  N   UNL     1      48.775   3.296  16.640  0.00  0.00    +0.000 NA
ATOM     36  H   UNL     1      48.918   2.392  16.192  0.00  0.00    +0.000 HD
ATOM     37  H   UNL     1      48.752   3.120  17.645  0.00  0.00    +0.000 HD
ENDBRANCH  34  35
ENDBRANCH   1  34
TORSDOF 8
ENDMDL
MODEL 7
REMARK VINA RESULT:    -6.246      2.221      3.228
REMARK INTER + INTRA:         -10.451
REMARK INTER:                  -9.488
REMARK INTRA:                  -0.964
REMARK UNBOUND:                -1.468
REMARK  Name = 
REMARK  8 active torsions:
REMARK  status: ('A' for Active; 'I' for Inactive)
REMARK    1  A    between atoms: N_1  and  C_2
REMARK    2  A    between atoms: C_2  and  C_3
REMARK    3  A    between atoms: C_3  and  N_4
REMARK    4  A    between atoms: C_3  and  C_17
REMARK    5  A    between atoms: C_5  and  C_7
REMARK    6  A    between atoms: C_20  and  C_21
REMARK    7  A    between atoms: C_21  and  N_22
REMARK    8  A    between atoms: C_23  and  C_25
REMARK                            x       y       z     vdW  Elec       q    Type
REMARK                         _______ _______ _______ _____ _____    ______ ____
ROOT
ATOM      1  C   UNL     1      46.217   8.725  12.561  0.00  0.00    +0.000 C 
ENDROOT
BRANCH   1   2
ATOM      2  C   UNL     1      45.683   7.338  12.178  0.00  0.00    +0.000 A 
ATOM      3  C   UNL     1      46.452   6.479  11.381  0.00  0.00    +0.000 A 
ATOM      4  C   UNL     1      45.980   5.206  11.023  0.00  0.00    +0.000 A 
ATOM      5  C   UNL     1      44.720   4.761  11.448  0.00  0.00    +0.000 A 
ATOM      6  C   UNL     1      43.960   5.604  12.265  0.00  0.00    +0.000 A 
ATOM      7  C   UNL     1      44.431   6.876  12.622  0.00  0.00    +0.000 A 
BRANCH   5   8
ATOM      8  C   UNL     1      44.196   3.403  11.039  0.00  0.00    +0.000 C 
BRANCH   8   9
ATOM      9  N   UNL     1      45.096   2.714  10.144  0.00  0.00    +0.000 N 
ATOM     10  C   UNL     1      45.086   2.959   8.791  0.00  0.00    +0.000 C 
ATOM     11  O   UNL     1      44.300   3.750   8.269  0.00  0.00    +0.000 OA
ATOM     12  H   UNL     1      45.813   2.127  10.540  0.00  0.00    +0.000 HD
BRANCH  10  13
ATOM     13  C   UNL     1      46.064   2.223   8.016  0.00  0.00    +0.000 A 
ATOM     14  C   UNL     1      46.318   0.862   7.892  0.00  0.00    +0.000 A 
ATOM     15  C   UNL     1      47.389   0.693   6.978  0.00  0.00    +0.000 A 
ATOM     16  C   UNL     1      47.771   1.946   6.561  0.00  0.00    +0.000 A 
ATOM     17  N   UNL     1      46.970   2.860   7.192  0.00  0.00    +0.000 N 
ATOM     18  H   UNL     1      47.016   3.867   7.080  0.00  0.00    +0.000 HD
ENDBRANCH  10  13
ENDBRANCH   8   9
ENDBRANCH   5   8
ENDBRANCH   1   2
BRANCH   1  19
ATOM     19  N   UNL     1      46.785   8.652  13.902  0.00  0.00    +0.000 N 
ATOM     20  C   UNL     1      47.923   9.310  14.298  0.00  0.00    +0.000 C 
ATOM     21  O   UNL     1      48.618   9.962  13.525  0.00  0.00    +0.000 OA
ATOM     22  H   UNL     1      46.219   8.186  14.599  0.00  0.00    +0.000 HD
BRANCH  20  23
ATOM     23  C   UNL     1      48.300   9.132  15.705  0.00  0.00    +0.000 A 
ATOM     24  C   UNL     1      48.250  10.200  16.589  0.00  0.00    +0.000 A 
ATOM     25  S   UNL     1      48.844   9.823  18.145  0.00  0.00    +0.000 S 
ATOM     26  C   UNL     1      49.139   8.205  17.701  0.00  0.00    +0.000 A 
ATOM     27  N   UNL     1      49.696   7.324  18.574  0.00  0.00    +0.000 NA
ATOM     28  C   UNL     1      49.842   6.129  18.106  0.00  0.00    +0.000 A 
ATOM     29  N   UNL     1      49.457   5.728  16.852  0.00  0.00    +0.000 N 
ATOM     30  C   UNL     1      48.870   6.577  15.948  0.00  0.00    +0.000 A 
ATOM     31  O   UNL     1      48.505   6.178  14.848  0.00  0.00    +0.000 OA
ATOM     32  C   UNL     1      48.748   7.949  16.400  0.00  0.00    +0.000 A 
ATOM     33  H   UNL     1      49.574   4.771  16.554  0.00  0.00    +0.000 HD
ENDBRANCH  20  23
ENDBRANCH   1  19
BRANCH   1  34
ATOM     34  C   UNL     1      45.132   9.838  12.443  0.00  0.00    +0.000 C 
BRANCH  34  35
ATOM     35  N   UNL     1      44.857  10.273  11.066  0.00  0.00    +0.000 NA
ATOM     36  H   UNL     1      44.630  11.266  11.074  0.00  0.00    +0.000 HD
ATOM     37  H   UNL     1      44.030   9.790  10.715  0.00  0.00    +0.000 HD
ENDBRANCH  34  35
ENDBRANCH   1  34
TORSDOF 8
ENDMDL
MODEL 8
REMARK VINA RESULT:    -6.225      4.212      8.774
REMARK INTER + INTRA:         -10.422
REMARK INTER:                  -9.426
REMARK INTRA:                  -0.996
REMARK UNBOUND:                -1.468
REMARK  Name = 
REMARK  8 active torsions:
REMARK  status: ('A' for Active; 'I' for Inactive)
REMARK    1  A    between atoms: N_1  and  C_2
REMARK    2  A    between atoms: C_2  and  C_3
REMARK    3  A    between atoms: C_3  and  N_4
REMARK    4  A    between atoms: C_3  and  C_17
REMARK    5  A    between atoms: C_5  and  C_7
REMARK    6  A    between atoms: C_20  and  C_21
REMARK    7  A    between atoms: C_21  and  N_22
REMARK    8  A    between atoms: C_23  and  C_25
REMARK                            x       y       z     vdW  Elec       q    Type
REMARK                         _______ _______ _______ _____ _____    ______ ____
ROOT
ATOM      1  C   UNL     1      47.903   4.262  16.493  0.00  0.00    +0.000 C 
ENDROOT
BRANCH   1   2
ATOM      2  C   UNL     1      49.242   4.978  16.721  0.00  0.00    +0.000 A 
ATOM      3  C   UNL     1      49.435   6.285  16.251  0.00  0.00    +0.000 A 
ATOM      4  C   UNL     1      50.652   6.954  16.453  0.00  0.00    +0.000 A 
ATOM      5  C   UNL     1      51.713   6.332  17.125  0.00  0.00    +0.000 A 
ATOM      6  C   UNL     1      51.517   5.037  17.619  0.00  0.00    +0.000 A 
ATOM      7  C   UNL     1      50.301   4.367  17.416  0.00  0.00    +0.000 A 
BRANCH   5   8
ATOM      8  C   UNL     1      53.035   7.039  17.317  0.00  0.00    +0.000 C 
BRANCH   8   9
ATOM      9  N   UNL     1      53.604   7.487  16.069  0.00  0.00    +0.000 N 
ATOM     10  C   UNL     1      54.409   6.667  15.314  0.00  0.00    +0.000 C 
ATOM     11  O   UNL     1      54.708   5.527  15.669  0.00  0.00    +0.000 OA
ATOM     12  H   UNL     1      53.313   8.379  15.699  0.00  0.00    +0.000 HD
BRANCH  10  13
ATOM     13  C   UNL     1      54.885   7.233  14.067  0.00  0.00    +0.000 A 
ATOM     14  C   UNL     1      55.505   8.441  13.773  0.00  0.00    +0.000 A 
ATOM     15  C   UNL     1      55.773   8.474  12.380  0.00  0.00    +0.000 A 
ATOM     16  C   UNL     1      55.312   7.293  11.849  0.00  0.00    +0.000 A 
ATOM     17  N   UNL     1      54.778   6.553  12.871  0.00  0.00    +0.000 N 
ATOM     18  H   UNL     1      54.362   5.633  12.782  0.00  0.00    +0.000 HD
ENDBRANCH  10  13
ENDBRANCH   8   9
ENDBRANCH   5   8
ENDBRANCH   1   2
BRANCH   1  19
ATOM     19  N   UNL     1      47.151   4.993  15.479  0.00  0.00    +0.000 N 
ATOM     20  C   UNL     1      46.991   4.572  14.182  0.00  0.00    +0.000 C 
ATOM     21  O   UNL     1      47.540   3.571  13.734  0.00  0.00    +0.000 OA
ATOM     22  H   UNL     1      46.620   5.788  15.808  0.00  0.00    +0.000 HD
BRANCH  20  23
ATOM     23  C   UNL     1      46.162   5.438  13.335  0.00  0.00    +0.000 A 
ATOM     24  C   UNL     1      46.533   6.754  13.096  0.00  0.00    +0.000 A 
ATOM     25  S   UNL     1      45.380   7.631  12.193  0.00  0.00    +0.000 S 
ATOM     26  C   UNL     1      44.372   6.266  12.048  0.00  0.00    +0.000 A 
ATOM     27  N   UNL     1      43.173   6.338  11.411  0.00  0.00    +0.000 NA
ATOM     28  C   UNL     1      42.526   5.221  11.362  0.00  0.00    +0.000 A 
ATOM     29  N   UNL     1      42.982   4.031  11.868  0.00  0.00    +0.000 N 
ATOM     30  C   UNL     1      44.196   3.908  12.498  0.00  0.00    +0.000 A 
ATOM     31  O   UNL     1      44.589   2.822  12.908  0.00  0.00    +0.000 OA
ATOM     32  C   UNL     1      44.930   5.149  12.642  0.00  0.00    +0.000 A 
ATOM     33  H   UNL     1      42.441   3.185  11.775  0.00  0.00    +0.000 HD
ENDBRANCH  20  23
ENDBRANCH   1  19
BRANCH   1  34
ATOM     34  C   UNL     1      47.089   4.080  17.810  0.00  0.00    +0.000 C 
BRANCH  34  35
ATOM     35  N   UNL     1      46.687   5.339  18.452  0.00  0.00    +0.000 NA
ATOM     36  H   UNL     1      46.230   5.929  17.760  0.00  0.00    +0.000 HD
ATOM     37  H   UNL     1      47.517   5.844  18.761  0.00  0.00    +0.000 HD
ENDBRANCH  34  35
ENDBRANCH   1  34
TORSDOF 8
ENDMDL
MODEL 9
REMARK VINA RESULT:    -6.049      3.134      9.092
REMARK INTER + INTRA:         -10.169
REMARK INTER:                  -9.169
REMARK INTRA:                  -1.000
REMARK UNBOUND:                -1.468
REMARK  Name = 
REMARK  8 active torsions:
REMARK  status: ('A' for Active; 'I' for Inactive)
REMARK    1  A    between atoms: N_1  and  C_2
REMARK    2  A    between atoms: C_2  and  C_3
REMARK    3  A    between atoms: C_3  and  N_4
REMARK    4  A    between atoms: C_3  and  C_17
REMARK    5  A    between atoms: C_5  and  C_7
REMARK    6  A    between atoms: C_20  and  C_21
REMARK    7  A    between atoms: C_21  and  N_22
REMARK    8  A    between atoms: C_23  and  C_25
REMARK                            x       y       z     vdW  Elec       q    Type
REMARK                         _______ _______ _______ _____ _____    ______ ____
ROOT
ATOM      1  C   UNL     1      47.109   7.679  12.893  0.00  0.00    +0.000 C 
ENDROOT
BRANCH   1   2
ATOM      2  C   UNL     1      47.851   7.364  14.199  0.00  0.00    +0.000 A 
ATOM      3  C   UNL     1      47.942   6.043  14.661  0.00  0.00    +0.000 A 
ATOM      4  C   UNL     1      48.619   5.736  15.852  0.00  0.00    +0.000 A 
ATOM      5  C   UNL     1      49.217   6.746  16.619  0.00  0.00    +0.000 A 
ATOM      6  C   UNL     1      49.152   8.062  16.150  0.00  0.00    +0.000 A 
ATOM      7  C   UNL     1      48.475   8.369  14.960  0.00  0.00    +0.000 A 
BRANCH   5   8
ATOM      8  C   UNL     1      49.920   6.422  17.918  0.00  0.00    +0.000 C 
BRANCH   8   9
ATOM      9  N   UNL     1      50.377   5.054  17.969  0.00  0.00    +0.000 N 
ATOM     10  C   UNL     1      51.646   4.707  17.567  0.00  0.00    +0.000 C 
ATOM     11  O   UNL     1      52.446   5.531  17.123  0.00  0.00    +0.000 OA
ATOM     12  H   UNL     1      49.787   4.365  18.409  0.00  0.00    +0.000 HD
BRANCH  10  13
ATOM     13  C   UNL     1      51.983   3.304  17.703  0.00  0.00    +0.000 A 
ATOM     14  C   UNL     1      53.170   2.661  18.029  0.00  0.00    +0.000 A 
ATOM     15  C   UNL     1      52.930   1.264  18.037  0.00  0.00    +0.000 A 
ATOM     16  C   UNL     1      51.607   1.076  17.715  0.00  0.00    +0.000 A 
ATOM     17  N   UNL     1      51.045   2.309  17.515  0.00  0.00    +0.000 N 
ATOM     18  H   UNL     1      50.078   2.487  17.268  0.00  0.00    +0.000 HD
ENDBRANCH  10  13
ENDBRANCH   8   9
ENDBRANCH   5   8
ENDBRANCH   1   2
BRANCH   1  19
ATOM     19  N   UNL     1      46.398   6.482  12.461  0.00  0.00    +0.000 N 
ATOM     20  C   UNL     1      45.239   6.495  11.723  0.00  0.00    +0.000 C 
ATOM     21  O   UNL     1      44.649   7.528  11.428  0.00  0.00    +0.000 OA
ATOM     22  H   UNL     1      46.873   5.603  12.616  0.00  0.00    +0.000 HD
BRANCH  20  23
ATOM     23  C   UNL     1      44.708   5.176  11.359  0.00  0.00    +0.000 A 
ATOM     24  C   UNL     1      43.827   4.514  12.203  0.00  0.00    +0.000 A 
ATOM     25  S   UNL     1      43.422   2.945  11.664  0.00  0.00    +0.000 S 
ATOM     26  C   UNL     1      44.370   3.120  10.260  0.00  0.00    +0.000 A 
ATOM     27  N   UNL     1      44.497   2.107   9.362  0.00  0.00    +0.000 NA
ATOM     28  C   UNL     1      45.231   2.391   8.338  0.00  0.00    +0.000 A 
ATOM     29  N   UNL     1      45.826   3.606   8.115  0.00  0.00    +0.000 N 
ATOM     30  C   UNL     1      45.705   4.663   8.981  0.00  0.00    +0.000 A 
ATOM     31  O   UNL     1      46.221   5.747   8.735  0.00  0.00    +0.000 OA
ATOM     32  C   UNL     1      44.949   4.374  10.184  0.00  0.00    +0.000 A 
ATOM     33  H   UNL     1      46.367   3.774   7.280  0.00  0.00    +0.000 HD
ENDBRANCH  20  23
ENDBRANCH   1  19
BRANCH   1  34
ATOM     34  C   UNL     1      48.056   8.232  11.785  0.00  0.00    +0.000 C 
BRANCH  34  35
ATOM     35  N   UNL     1      49.310   7.482  11.630  0.00  0.00    +0.000 NA
ATOM     36  H   UNL     1      49.657   7.614  10.682  0.00  0.00    +0.000 HD
ATOM     37  H   UNL     1      49.125   6.484  11.735  0.00  0.00    +0.000 HD
ENDBRANCH  34  35
ENDBRANCH   1  34
TORSDOF 8
ENDMDL
