MODEL 1
REMARK VINA RESULT:    -8.074      0.000      0.000
REMARK INTER + INTRA:         -11.262
REMARK INTER:                 -10.434
REMARK INTRA:                  -0.828
REMARK UNBOUND:                -0.828
REMARK  Name = 
REMARK  7 active torsions:
REMARK  status: ('A' for Active; 'I' for Inactive)
REMARK    1  A    between atoms: C_1  and  C_2
REMARK    2  A    between atoms: C_2  and  N_3
REMARK    3  A    between atoms: C_2  and  C_17
REMARK    4  A    between atoms: C_4  and  C_6
REMARK    5  A    between atoms: N_12  and  C_13
REMARK    6  A    between atoms: C_20  and  O_21
REMARK    7  A    between atoms: O_21  and  C_22
REMARK                            x       y       z     vdW  Elec       q    Type
REMARK                         _______ _______ _______ _____ _____    ______ ____
ROOT
ATOM      1  C   UNL     1      46.109   8.086  13.265  0.00  0.00    +0.000 C 
ATOM      2  C   UNL     1      46.889   6.784  13.070  0.00  0.00    +0.000 C 
ENDROOT
BRANCH   2   3
ATOM      3  C   UNL     1      46.220   5.909  12.026  0.00  0.00    +0.000 A 
ATOM      4  C   UNL     1      46.207   6.331  10.694  0.00  0.00    +0.000 A 
ATOM      5  C   UNL     1      45.654   5.524   9.701  0.00  0.00    +0.000 A 
ATOM      6  C   UNL     1      45.150   4.257  10.013  0.00  0.00    +0.000 A 
ATOM      7  C   UNL     1      45.110   3.845  11.344  0.00  0.00    +0.000 A 
ATOM      8  C   UNL     1      45.637   4.667  12.346  0.00  0.00    +0.000 A 
BRANCH   6   9
ATOM      9  O   UNL     1      44.631   3.397   9.067  0.00  0.00    +0.000 OA
BRANCH   9  10
ATOM     10  C   UNL     1      45.516   2.851   8.142  0.00  0.00    +0.000 A 
ATOM     11  C   UNL     1      45.999   1.576   8.399  0.00  0.00    +0.000 A 
ATOM     12  C   UNL     1      46.882   1.011   7.479  0.00  0.00    +0.000 A 
ATOM     13  C   UNL     1      47.236   1.729   6.340  0.00  0.00    +0.000 A 
ATOM     14  C   UNL     1      46.704   2.993   6.171  0.00  0.00    +0.000 A 
ATOM     15  N   UNL     1      45.878   3.575   7.059  0.00  0.00    +0.000 NA
ENDBRANCH   9  10
ENDBRANCH   6   9
ENDBRANCH   2   3
BRANCH   2  16
ATOM     16  N   UNL     1      47.037   6.034  14.296  0.00  0.00    +0.000 N 
ATOM     17  C   UNL     1      48.195   5.958  15.023  0.00  0.00    +0.000 C 
ATOM     18  O   UNL     1      49.257   6.440  14.638  0.00  0.00    +0.000 OA
ATOM     19  H   UNL     1      46.180   5.693  14.715  0.00  0.00    +0.000 HD
BRANCH  17  20
ATOM     20  C   UNL     1      48.099   5.222  16.283  0.00  0.00    +0.000 A 
ATOM     21  C   UNL     1      47.803   3.863  16.305  0.00  0.00    +0.000 A 
ATOM     22  S   UNL     1      47.793   3.198  17.877  0.00  0.00    +0.000 S 
ATOM     23  C   UNL     1      48.198   4.697  18.579  0.00  0.00    +0.000 A 
ATOM     24  N   UNL     1      48.386   4.820  19.915  0.00  0.00    +0.000 NA
ATOM     25  C   UNL     1      48.702   6.013  20.304  0.00  0.00    +0.000 A 
ATOM     26  N   UNL     1      48.849   7.111  19.482  0.00  0.00    +0.000 N 
ATOM     27  C   UNL     1      49.167   8.415  20.029  0.00  0.00    +0.000 C 
ATOM     28  C   UNL     1      48.623   7.032  18.114  0.00  0.00    +0.000 A 
ATOM     29  O   UNL     1      48.658   8.019  17.390  0.00  0.00    +0.000 OA
ATOM     30  C   UNL     1      48.303   5.701  17.633  0.00  0.00    +0.000 A 
ENDBRANCH  17  20
ENDBRANCH   2  16
TORSDOF 5
ENDMDL
MODEL 2
REMARK VINA RESULT:    -8.063      3.210      4.239
REMARK INTER + INTRA:         -11.248
REMARK INTER:                 -10.100
REMARK INTRA:                  -1.149
REMARK UNBOUND:                -0.828
REMARK  Name = 
REMARK  7 active torsions:
REMARK  status: ('A' for Active; 'I' for Inactive)
REMARK    1  A    between atoms: C_1  and  C_2
REMARK    2  A    between atoms: C_2  and  N_3
REMARK    3  A    between atoms: C_2  and  C_17
REMARK    4  A    between atoms: C_4  and  C_6
REMARK    5  A    between atoms: N_12  and  C_13
REMARK    6  A    between atoms: C_20  and  O_21
REMARK    7  A    between atoms: O_21  and  C_22
REMARK                            x       y       z     vdW  Elec       q    Type
REMARK                         _______ _______ _______ _____ _____    ______ ____
ROOT
ATOM      1  C   UNL     1      46.748   4.662  14.714  0.00  0.00    +0.000 C 
ATOM      2  C   UNL     1      46.402   5.709  13.653  0.00  0.00    +0.000 C 
ENDROOT
BRANCH   2   3
ATOM      3  C   UNL     1      45.836   5.046  12.410  0.00  0.00    +0.000 A 
ATOM      4  C   UNL     1      45.828   5.755  11.206  0.00  0.00    +0.000 A 
ATOM      5  C   UNL     1      45.370   5.155  10.035  0.00  0.00    +0.000 A 
ATOM      6  C   UNL     1      44.960   3.818  10.033  0.00  0.00    +0.000 A 
ATOM      7  C   UNL     1      44.914   3.115  11.236  0.00  0.00    +0.000 A 
ATOM      8  C   UNL     1      45.345   3.726  12.419  0.00  0.00    +0.000 A 
BRANCH   6   9
ATOM      9  O   UNL     1      44.539   3.159   8.896  0.00  0.00    +0.000 OA
BRANCH   9  10
ATOM     10  C   UNL     1      45.515   2.575   8.094  0.00  0.00    +0.000 A 
ATOM     11  C   UNL     1      45.969   3.308   7.007  0.00  0.00    +0.000 A 
ATOM     12  C   UNL     1      46.951   2.740   6.197  0.00  0.00    +0.000 A 
ATOM     13  C   UNL     1      47.449   1.478   6.507  0.00  0.00    +0.000 A 
ATOM     14  C   UNL     1      46.934   0.824   7.610  0.00  0.00    +0.000 A 
ATOM     15  N   UNL     1      45.962   1.333   8.388  0.00  0.00    +0.000 NA
ENDBRANCH   9  10
ENDBRANCH   6   9
ENDBRANCH   2   3
BRANCH   2  16
ATOM     16  N   UNL     1      47.537   6.523  13.283  0.00  0.00    +0.000 N 
ATOM     17  C   UNL     1      47.566   7.890  13.357  0.00  0.00    +0.000 C 
ATOM     18  O   UNL     1      46.581   8.564  13.648  0.00  0.00    +0.000 OA
ATOM     19  H   UNL     1      48.407   6.029  13.126  0.00  0.00    +0.000 HD
BRANCH  17  20
ATOM     20  C   UNL     1      48.848   8.511  13.024  0.00  0.00    +0.000 A 
ATOM     21  C   UNL     1      48.957   9.430  11.987  0.00  0.00    +0.000 A 
ATOM     22  S   UNL     1      50.532  10.066  11.809  0.00  0.00    +0.000 S 
ATOM     23  C   UNL     1      51.116   9.146  13.119  0.00  0.00    +0.000 A 
ATOM     24  N   UNL     1      52.402   9.249  13.532  0.00  0.00    +0.000 NA
ATOM     25  C   UNL     1      52.701   8.502  14.546  0.00  0.00    +0.000 A 
ATOM     26  N   UNL     1      51.832   7.650  15.196  0.00  0.00    +0.000 N 
ATOM     27  C   UNL     1      52.283   6.826  16.300  0.00  0.00    +0.000 C 
ATOM     28  C   UNL     1      50.519   7.488  14.775  0.00  0.00    +0.000 A 
ATOM     29  O   UNL     1      49.768   6.665  15.285  0.00  0.00    +0.000 OA
ATOM     30  C   UNL     1      50.135   8.336  13.663  0.00  0.00    +0.000 A 
ENDBRANCH  17  20
ENDBRANCH   2  16
TORSDOF 5
ENDMDL
MODEL 3
REMARK VINA RESULT:    -7.402      2.962      3.853
REMARK INTER + INTRA:         -10.394
REMARK INTER:                 -10.250
REMARK INTRA:                  -0.144
REMARK UNBOUND:                -0.828
REMARK  Name = 
REMARK  7 active torsions:
REMARK  status: ('A' for Active; 'I' for Inactive)
REMARK    1  A    between atoms: C_1  and  C_2
REMARK    2  A    between atoms: C_2  and  N_3
REMARK    3  A    between atoms: C_2  and  C_17
REMARK    4  A    between atoms: C_4  and  C_6
REMARK    5  A    between atoms: N_12  and  C_13
REMARK    6  A    between atoms: C_20  and  O_21
REMARK    7  A    between atoms: O_21  and  C_22
REMARK                            x       y       z     vdW  Elec       q    Type
REMARK                         _______ _______ _______ _____ _____    ______ ____
ROOT
ATOM      1  C   UNL     1      46.812   4.219  14.299  0.00  0.00    +0.000 C 
ATOM      2  C   UNL     1      45.897   5.251  13.636  0.00  0.00    +0.000 C 
ENDROOT
BRANCH   2   3
ATOM      3  C   UNL     1      45.497   4.796  12.244  0.00  0.00    +0.000 A 
ATOM      4  C   UNL     1      45.744   5.639  11.157  0.00  0.00    +0.000 A 
ATOM      5  C   UNL     1      45.443   5.228   9.860  0.00  0.00    +0.000 A 
ATOM      6  C   UNL     1      44.938   3.947   9.619  0.00  0.00    +0.000 A 
ATOM      7  C   UNL     1      44.639   3.115  10.697  0.00  0.00    +0.000 A 
ATOM      8  C   UNL     1      44.912   3.538  12.002  0.00  0.00    +0.000 A 
BRANCH   6   9
ATOM      9  O   UNL     1      44.663   3.469   8.354  0.00  0.00    +0.000 OA
BRANCH   9  10
ATOM     10  C   UNL     1      45.725   2.952   7.618  0.00  0.00    +0.000 A 
ATOM     11  C   UNL     1      46.253   1.736   8.028  0.00  0.00    +0.000 A 
ATOM     12  C   UNL     1      47.314   1.201   7.298  0.00  0.00    +0.000 A 
ATOM     13  C   UNL     1      47.795   1.888   6.186  0.00  0.00    +0.000 A 
ATOM     14  C   UNL     1      47.206   3.094   5.856  0.00  0.00    +0.000 A 
ATOM     15  N   UNL     1      46.206   3.649   6.563  0.00  0.00    +0.000 NA
ENDBRANCH   9  10
ENDBRANCH   6   9
ENDBRANCH   2   3
BRANCH   2  16
ATOM     16  N   UNL     1      46.501   6.561  13.554  0.00  0.00    +0.000 N 
ATOM     17  C   UNL     1      47.828   6.787  13.302  0.00  0.00    +0.000 C 
ATOM     18  O   UNL     1      48.657   5.884  13.227  0.00  0.00    +0.000 OA
ATOM     19  H   UNL     1      45.860   7.344  13.512  0.00  0.00    +0.000 HD
BRANCH  17  20
ATOM     20  C   UNL     1      48.211   8.193  13.166  0.00  0.00    +0.000 A 
ATOM     21  C   UNL     1      48.238   8.816  11.924  0.00  0.00    +0.000 A 
ATOM     22  S   UNL     1      48.661  10.468  12.006  0.00  0.00    +0.000 S 
ATOM     23  C   UNL     1      48.808  10.409  13.702  0.00  0.00    +0.000 A 
ATOM     24  N   UNL     1      49.115  11.516  14.420  0.00  0.00    +0.000 NA
ATOM     25  C   UNL     1      49.179  11.324  15.699  0.00  0.00    +0.000 A 
ATOM     26  N   UNL     1      48.967  10.121  16.340  0.00  0.00    +0.000 N 
ATOM     27  C   UNL     1      49.104  10.009  17.779  0.00  0.00    +0.000 C 
ATOM     28  C   UNL     1      48.692   8.958  15.633  0.00  0.00    +0.000 A 
ATOM     29  O   UNL     1      48.596   7.868  16.185  0.00  0.00    +0.000 OA
ATOM     30  C   UNL     1      48.575   9.139  14.199  0.00  0.00    +0.000 A 
ENDBRANCH  17  20
ENDBRANCH   2  16
TORSDOF 5
ENDMDL
MODEL 4
REMARK VINA RESULT:    -7.375      1.842      2.749
REMARK INTER + INTRA:         -10.359
REMARK INTER:                  -9.274
REMARK INTRA:                  -1.085
REMARK UNBOUND:                -0.828
REMARK  Name = 
REMARK  7 active torsions:
REMARK  status: ('A' for Active; 'I' for Inactive)
REMARK    1  A    between atoms: C_1  and  C_2
REMARK    2  A    between atoms: C_2  and  N_3
REMARK    3  A    between atoms: C_2  and  C_17
REMARK    4  A    between atoms: C_4  and  C_6
REMARK    5  A    between atoms: N_12  and  C_13
REMARK    6  A    between atoms: C_20  and  O_21
REMARK    7  A    between atoms: O_21  and  C_22
REMARK                            x       y       z     vdW  Elec       q    Type
REMARK                         _______ _______ _______ _____ _____    ______ ____
ROOT
ATOM      1  C   UNL     1      47.266  10.085  12.928  0.00  0.00    +0.000 C 
ATOM      2  C   UNL     1      47.756   8.654  13.157  0.00  0.00    +0.000 C 
ENDROOT
BRANCH   2   3
ATOM      3  C   UNL     1      46.803   7.654  12.529  0.00  0.00    +0.000 A 
ATOM      4  C   UNL     1      45.636   8.119  11.917  0.00  0.00    +0.000 A 
ATOM      5  C   UNL     1      44.770   7.233  11.280  0.00  0.00    +0.000 A 
ATOM      6  C   UNL     1      45.078   5.872  11.197  0.00  0.00    +0.000 A 
ATOM      7  C   UNL     1      46.212   5.386  11.847  0.00  0.00    +0.000 A 
ATOM      8  C   UNL     1      47.068   6.270  12.513  0.00  0.00    +0.000 A 
BRANCH   6   9
ATOM      9  O   UNL     1      44.281   4.955  10.541  0.00  0.00    +0.000 OA
BRANCH   9  10
ATOM     10  C   UNL     1      44.894   4.122   9.611  0.00  0.00    +0.000 A 
ATOM     11  C   UNL     1      44.765   2.753   9.798  0.00  0.00    +0.000 A 
ATOM     12  C   UNL     1      45.368   1.904   8.871  0.00  0.00    +0.000 A 
ATOM     13  C   UNL     1      46.059   2.448   7.792  0.00  0.00    +0.000 A 
ATOM     14  C   UNL     1      46.134   3.824   7.689  0.00  0.00    +0.000 A 
ATOM     15  N   UNL     1      45.592   4.666   8.588  0.00  0.00    +0.000 NA
ENDBRANCH   9  10
ENDBRANCH   6   9
ENDBRANCH   2   3
BRANCH   2  16
ATOM     16  N   UNL     1      47.922   8.339  14.557  0.00  0.00    +0.000 N 
ATOM     17  C   UNL     1      49.046   7.772  15.095  0.00  0.00    +0.000 C 
ATOM     18  O   UNL     1      49.986   7.376  14.411  0.00  0.00    +0.000 OA
ATOM     19  H   UNL     1      47.227   8.725  15.185  0.00  0.00    +0.000 HD
BRANCH  17  20
ATOM     20  C   UNL     1      49.042   7.626  16.551  0.00  0.00    +0.000 A 
ATOM     21  C   UNL     1      49.356   8.695  17.383  0.00  0.00    +0.000 A 
ATOM     22  S   UNL     1      49.236   8.315  19.044  0.00  0.00    +0.000 S 
ATOM     23  C   UNL     1      48.747   6.719  18.706  0.00  0.00    +0.000 A 
ATOM     24  N   UNL     1      48.439   5.853  19.701  0.00  0.00    +0.000 NA
ATOM     25  C   UNL     1      48.071   4.680  19.295  0.00  0.00    +0.000 A 
ATOM     26  N   UNL     1      47.980   4.280  17.978  0.00  0.00    +0.000 N 
ATOM     27  C   UNL     1      47.594   2.925  17.635  0.00  0.00    +0.000 C 
ATOM     28  C   UNL     1      48.328   5.127  16.935  0.00  0.00    +0.000 A 
ATOM     29  O   UNL     1      48.342   4.752  15.768  0.00  0.00    +0.000 OA
ATOM     30  C   UNL     1      48.711   6.464  17.347  0.00  0.00    +0.000 A 
ENDBRANCH  17  20
ENDBRANCH   2  16
TORSDOF 5
ENDMDL
MODEL 5
REMARK VINA RESULT:    -7.323      3.248      4.848
REMARK INTER + INTRA:         -10.292
REMARK INTER:                 -10.176
REMARK INTRA:                  -0.116
REMARK UNBOUND:                -0.828
REMARK  Name = 
REMARK  7 active torsions:
REMARK  status: ('A' for Active; 'I' for Inactive)
REMARK    1  A    between atoms: C_1  and  C_2
REMARK    2  A    between atoms: C_2  and  N_3
REMARK    3  A    between atoms: C_2  and  C_17
REMARK    4  A    between atoms: C_4  and  C_6
REMARK    5  A    between atoms: N_12  and  C_13
REMARK    6  A    between atoms: C_20  and  O_21
REMARK    7  A    between atoms: O_21  and  C_22
REMARK                            x       y       z     vdW  Elec       q    Type
REMARK                         _______ _______ _______ _____ _____    ______ ____
ROOT
ATOM      1  C   UNL     1      46.911   4.155  14.666  0.00  0.00    +0.000 C 
ATOM      2  C   UNL     1      46.215   5.249  13.854  0.00  0.00    +0.000 C 
ENDROOT
BRANCH   2   3
ATOM      3  C   UNL     1      45.691   4.693  12.542  0.00  0.00    +0.000 A 
ATOM      4  C   UNL     1      45.780   5.476  11.389  0.00  0.00    +0.000 A 
ATOM      5  C   UNL     1      45.363   4.972  10.158  0.00  0.00    +0.000 A 
ATOM      6  C   UNL     1      44.897   3.658  10.048  0.00  0.00    +0.000 A 
ATOM      7  C   UNL     1      44.755   2.884  11.198  0.00  0.00    +0.000 A 
ATOM      8  C   UNL     1      45.145   3.399  12.439  0.00  0.00    +0.000 A 
BRANCH   6   9
ATOM      9  O   UNL     1      44.512   3.092   8.850  0.00  0.00    +0.000 OA
BRANCH   9  10
ATOM     10  C   UNL     1      45.515   2.587   8.027  0.00  0.00    +0.000 A 
ATOM     11  C   UNL     1      45.881   3.349   6.926  0.00  0.00    +0.000 A 
ATOM     12  C   UNL     1      46.888   2.860   6.095  0.00  0.00    +0.000 A 
ATOM     13  C   UNL     1      47.497   1.645   6.399  0.00  0.00    +0.000 A 
ATOM     14  C   UNL     1      47.064   0.957   7.517  0.00  0.00    +0.000 A 
ATOM     15  N   UNL     1      46.072   1.388   8.315  0.00  0.00    +0.000 NA
ENDBRANCH   9  10
ENDBRANCH   6   9
ENDBRANCH   2   3
BRANCH   2  16
ATOM     16  N   UNL     1      47.079   6.376  13.582  0.00  0.00    +0.000 N 
ATOM     17  C   UNL     1      48.166   6.719  14.340  0.00  0.00    +0.000 C 
ATOM     18  O   UNL     1      48.448   6.156  15.394  0.00  0.00    +0.000 OA
ATOM     19  H   UNL     1      46.957   6.821  12.680  0.00  0.00    +0.000 HD
BRANCH  17  20
ATOM     20  C   UNL     1      48.958   7.838  13.832  0.00  0.00    +0.000 A 
ATOM     21  C   UNL     1      50.345   7.848  13.939  0.00  0.00    +0.000 A 
ATOM     22  S   UNL     1      51.067   9.225  13.234  0.00  0.00    +0.000 S 
ATOM     23  C   UNL     1      49.556   9.844  12.750  0.00  0.00    +0.000 A 
ATOM     24  N   UNL     1      49.463  11.001  12.050  0.00  0.00    +0.000 NA
ATOM     25  C   UNL     1      48.253  11.342  11.739  0.00  0.00    +0.000 A 
ATOM     26  N   UNL     1      47.113  10.636  12.063  0.00  0.00    +0.000 N 
ATOM     27  C   UNL     1      45.801  11.131  11.698  0.00  0.00    +0.000 C 
ATOM     28  C   UNL     1      47.168   9.470  12.815  0.00  0.00    +0.000 A 
ATOM     29  O   UNL     1      46.157   8.888  13.189  0.00  0.00    +0.000 OA
ATOM     30  C   UNL     1      48.510   9.034  13.152  0.00  0.00    +0.000 A 
ENDBRANCH  17  20
ENDBRANCH   2  16
TORSDOF 5
ENDMDL
MODEL 6
REMARK VINA RESULT:    -7.204      1.733      2.499
REMARK INTER + INTRA:         -10.138
REMARK INTER:                  -8.925
REMARK INTRA:                  -1.213
REMARK UNBOUND:                -0.828
REMARK  Name = 
REMARK  7 active torsions:
REMARK  status: ('A' for Active; 'I' for Inactive)
REMARK    1  A    between atoms: C_1  and  C_2
REMARK    2  A    between atoms: C_2  and  N_3
REMARK    3  A    between atoms: C_2  and  C_17
REMARK    4  A    between atoms: C_4  and  C_6
REMARK    5  A    between atoms: N_12  and  C_13
REMARK    6  A    between atoms: C_20  and  O_21
REMARK    7  A    between atoms: O_21  and  C_22
REMARK                            x       y       z     vdW  Elec       q    Type
REMARK                         _______ _______ _______ _____ _____    ______ ____
ROOT
ATOM      1  C   UNL     1      49.058   8.671  14.188  0.00  0.00    +0.000 C 
ATOM      2  C   UNL     1      48.921   7.150  14.292  0.00  0.00    +0.000 C 
ENDROOT
BRANCH   2   3
ATOM      3  C   UNL     1      47.839   6.644  13.355  0.00  0.00    +0.000 A 
ATOM      4  C   UNL     1      47.283   5.382  13.579  0.00  0.00    +0.000 A 
ATOM      5  C   UNL     1      46.247   4.913  12.774  0.00  0.00    +0.000 A 
ATOM      6  C   UNL     1      45.712   5.716  11.762  0.00  0.00    +0.000 A 
ATOM      7  C   UNL     1      46.290   6.956  11.495  0.00  0.00    +0.000 A 
ATOM      8  C   UNL     1      47.351   7.416  12.283  0.00  0.00    +0.000 A 
BRANCH   6   9
ATOM      9  O   UNL     1      44.657   5.322  10.964  0.00  0.00    +0.000 OA
BRANCH   9  10
ATOM     10  C   UNL     1      44.925   4.401   9.956  0.00  0.00    +0.000 A 
ATOM     11  C   UNL     1      44.481   3.100  10.146  0.00  0.00    +0.000 A 
ATOM     12  C   UNL     1      44.736   2.166   9.143  0.00  0.00    +0.000 A 
ATOM     13  C   UNL     1      45.407   2.565   7.990  0.00  0.00    +0.000 A 
ATOM     14  C   UNL     1      45.812   3.883   7.891  0.00  0.00    +0.000 A 
ATOM     15  N   UNL     1      45.611   4.795   8.858  0.00  0.00    +0.000 NA
ENDBRANCH   9  10
ENDBRANCH   6   9
ENDBRANCH   2   3
BRANCH   2  16
ATOM     16  N   UNL     1      48.632   6.707  15.637  0.00  0.00    +0.000 N 
ATOM     17  C   UNL     1      49.577   6.275  16.529  0.00  0.00    +0.000 C 
ATOM     18  O   UNL     1      50.758   6.123  16.229  0.00  0.00    +0.000 OA
ATOM     19  H   UNL     1      47.696   6.896  15.976  0.00  0.00    +0.000 HD
BRANCH  17  20
ATOM     20  C   UNL     1      49.079   5.963  17.869  0.00  0.00    +0.000 A 
ATOM     21  C   UNL     1      49.232   4.695  18.417  0.00  0.00    +0.000 A 
ATOM     22  S   UNL     1      48.625   4.569  20.008  0.00  0.00    +0.000 S 
ATOM     23  C   UNL     1      48.153   6.206  20.022  0.00  0.00    +0.000 A 
ATOM     24  N   UNL     1      47.592   6.766  21.121  0.00  0.00    +0.000 NA
ATOM     25  C   UNL     1      47.296   8.020  20.991  0.00  0.00    +0.000 A 
ATOM     26  N   UNL     1      47.506   8.779  19.858  0.00  0.00    +0.000 N 
ATOM     27  C   UNL     1      47.099  10.169  19.807  0.00  0.00    +0.000 C 
ATOM     28  C   UNL     1      48.039   8.228  18.701  0.00  0.00    +0.000 A 
ATOM     29  O   UNL     1      48.141   8.868  17.662  0.00  0.00    +0.000 OA
ATOM     30  C   UNL     1      48.418   6.833  18.818  0.00  0.00    +0.000 A 
ENDBRANCH  17  20
ENDBRANCH   2  16
TORSDOF 5
ENDMDL
MODEL 7
REMARK VINA RESULT:    -7.023      3.172      4.866
REMARK INTER + INTRA:          -9.905
REMARK INTER:                  -9.190
REMARK INTRA:                  -0.715
REMARK UNBOUND:                -0.828
REMARK  Name = 
REMARK  7 active torsions:
REMARK  status: ('A' for Active; 'I' for Inactive)
REMARK    1  A    between atoms: C_1  and  C_2
REMARK    2  A    between atoms: C_2  and  N_3
REMARK    3  A    between atoms: C_2  and  C_17
REMARK    4  A    between atoms: C_4  and  C_6
REMARK    5  A    between atoms: N_12  and  C_13
REMARK    6  A    between atoms: C_20  and  O_21
REMARK    7  A    between atoms: O_21  and  C_22
REMARK                            x       y       z     vdW  Elec       q    Type
REMARK                         _______ _______ _______ _____ _____    ______ ____
ROOT
ATOM      1  C   UNL     1      47.323   4.402  14.604  0.00  0.00    +0.000 C 
ATOM      2  C   UNL     1      46.459   5.515  14.006  0.00  0.00    +0.000 C 
ENDROOT
BRANCH   2   3
ATOM      3  C   UNL     1      45.895   5.092  12.662  0.00  0.00    +0.000 A 
ATOM      4  C   UNL     1      46.098   5.915  11.551  0.00  0.00    +0.000 A 
ATOM      5  C   UNL     1      45.646   5.528  10.291  0.00  0.00    +0.000 A 
ATOM      6  C   UNL     1      45.026   4.288  10.108  0.00  0.00    +0.000 A 
ATOM      7  C   UNL     1      44.770   3.480  11.215  0.00  0.00    +0.000 A 
ATOM      8  C   UNL     1      45.198   3.881  12.485  0.00  0.00    +0.000 A 
BRANCH   6   9
ATOM      9  O   UNL     1      44.597   3.833   8.877  0.00  0.00    +0.000 OA
BRANCH   9  10
ATOM     10  C   UNL     1      45.524   3.172   8.078  0.00  0.00    +0.000 A 
ATOM     11  C   UNL     1      45.855   1.871   8.427  0.00  0.00    +0.000 A 
ATOM     12  C   UNL     1      46.778   1.192   7.632  0.00  0.00    +0.000 A 
ATOM     13  C   UNL     1      47.324   1.829   6.521  0.00  0.00    +0.000 A 
ATOM     14  C   UNL     1      46.934   3.128   6.254  0.00  0.00    +0.000 A 
ATOM     15  N   UNL     1      46.073   3.817   7.022  0.00  0.00    +0.000 NA
ENDBRANCH   9  10
ENDBRANCH   6   9
ENDBRANCH   2   3
BRANCH   2  16
ATOM     16  N   UNL     1      47.180   6.758  13.851  0.00  0.00    +0.000 N 
ATOM     17  C   UNL     1      48.126   7.218  14.726  0.00  0.00    +0.000 C 
ATOM     18  O   UNL     1      48.377   6.662  15.792  0.00  0.00    +0.000 OA
ATOM     19  H   UNL     1      47.089   7.215  12.951  0.00  0.00    +0.000 HD
BRANCH  17  20
ATOM     20  C   UNL     1      48.802   8.453  14.328  0.00  0.00    +0.000 A 
ATOM     21  C   UNL     1      48.655   9.625  15.063  0.00  0.00    +0.000 A 
ATOM     22  S   UNL     1      49.572  10.927  14.449  0.00  0.00    +0.000 S 
ATOM     23  C   UNL     1      50.207   9.967  13.193  0.00  0.00    +0.000 A 
ATOM     24  N   UNL     1      51.105  10.468  12.311  0.00  0.00    +0.000 NA
ATOM     25  C   UNL     1      51.510   9.621  11.420  0.00  0.00    +0.000 A 
ATOM     26  N   UNL     1      51.100   8.307  11.318  0.00  0.00    +0.000 N 
ATOM     27  C   UNL     1      51.588   7.454  10.253  0.00  0.00    +0.000 C 
ATOM     28  C   UNL     1      50.150   7.773  12.178  0.00  0.00    +0.000 A 
ATOM     29  O   UNL     1      49.710   6.638  12.038  0.00  0.00    +0.000 OA
ATOM     30  C   UNL     1      49.699   8.681  13.216  0.00  0.00    +0.000 A 
ENDBRANCH  17  20
ENDBRANCH   2  16
TORSDOF 5
ENDMDL
MODEL 8
REMARK VINA RESULT:    -6.997      3.047      4.631
REMARK INTER + INTRA:          -9.870
REMARK INTER:                  -8.840
REMARK INTRA:                  -1.031
REMARK UNBOUND:                -0.828
REMARK  Name = 
REMARK  7 active torsions:
REMARK  status: ('A' for Active; 'I' for Inactive)
REMARK    1  A    between atoms: C_1  and  C_2
REMARK    2  A    between atoms: C_2  and  N_3
REMARK    3  A    between atoms: C_2  and  C_17
REMARK    4  A    between atoms: C_4  and  C_6
REMARK    5  A    between atoms: N_12  and  C_13
REMARK    6  A    between atoms: C_20  and  O_21
REMARK    7  A    between atoms: O_21  and  C_22
REMARK                            x       y       z     vdW  Elec       q    Type
REMARK                         _______ _______ _______ _____ _____    ______ ____
ROOT
ATOM      1  C   UNL     1      47.342   4.026  15.794  0.00  0.00    +0.000 C 
ATOM      2  C   UNL     1      47.111   5.282  14.951  0.00  0.00    +0.000 C 
ENDROOT
BRANCH   2   3
ATOM      3  C   UNL     1      46.491   4.923  13.612  0.00  0.00    +0.000 A 
ATOM      4  C   UNL     1      46.092   3.605  13.380  0.00  0.00    +0.000 A 
ATOM      5  C   UNL     1      45.466   3.255  12.186  0.00  0.00    +0.000 A 
ATOM      6  C   UNL     1      45.180   4.226  11.221  0.00  0.00    +0.000 A 
ATOM      7  C   UNL     1      45.619   5.534  11.417  0.00  0.00    +0.000 A 
ATOM      8  C   UNL     1      46.275   5.881  12.603  0.00  0.00    +0.000 A 
BRANCH   6   9
ATOM      9  O   UNL     1      44.524   3.946  10.040  0.00  0.00    +0.000 OA
BRANCH   9  10
ATOM     10  C   UNL     1      45.256   3.332   9.028  0.00  0.00    +0.000 A 
ATOM     11  C   UNL     1      45.770   4.146   8.029  0.00  0.00    +0.000 A 
ATOM     12  C   UNL     1      46.511   3.546   7.011  0.00  0.00    +0.000 A 
ATOM     13  C   UNL     1      46.721   2.170   7.036  0.00  0.00    +0.000 A 
ATOM     14  C   UNL     1      46.168   1.442   8.072  0.00  0.00    +0.000 A 
ATOM     15  N   UNL     1      45.420   1.989   9.047  0.00  0.00    +0.000 NA
ENDBRANCH   9  10
ENDBRANCH   6   9
ENDBRANCH   2   3
BRANCH   2  16
ATOM     16  N   UNL     1      48.325   6.034  14.727  0.00  0.00    +0.000 N 
ATOM     17  C   UNL     1      49.011   6.705  15.703  0.00  0.00    +0.000 C 
ATOM     18  O   UNL     1      48.594   6.820  16.853  0.00  0.00    +0.000 OA
ATOM     19  H   UNL     1      48.770   5.902  13.826  0.00  0.00    +0.000 HD
BRANCH  17  20
ATOM     20  C   UNL     1      50.267   7.322  15.278  0.00  0.00    +0.000 A 
ATOM     21  C   UNL     1      51.463   7.047  15.933  0.00  0.00    +0.000 A 
ATOM     22  S   UNL     1      52.810   7.833  15.237  0.00  0.00    +0.000 S 
ATOM     23  C   UNL     1      51.844   8.552  14.031  0.00  0.00    +0.000 A 
ATOM     24  N   UNL     1      52.389   9.333  13.068  0.00  0.00    +0.000 NA
ATOM     25  C   UNL     1      51.538   9.801  12.212  0.00  0.00    +0.000 A 
ATOM     26  N   UNL     1      50.179   9.563  12.223  0.00  0.00    +0.000 N 
ATOM     27  C   UNL     1      49.308  10.171  11.237  0.00  0.00    +0.000 C 
ATOM     28  C   UNL     1      49.581   8.802  13.219  0.00  0.00    +0.000 A 
ATOM     29  O   UNL     1      48.366   8.664  13.292  0.00  0.00    +0.000 OA
ATOM     30  C   UNL     1      50.507   8.230  14.177  0.00  0.00    +0.000 A 
ENDBRANCH  17  20
ENDBRANCH   2  16
TORSDOF 5
ENDMDL
MODEL 9
REMARK VINA RESULT:    -6.624      3.001      4.184
REMARK INTER + INTRA:          -9.389
REMARK INTER:                  -8.038
REMARK INTRA:                  -1.351
REMARK UNBOUND:                -0.828
REMARK  Name = 
REMARK  7 active torsions:
REMARK  status: ('A' for Active; 'I' for Inactive)
REMARK    1  A    between atoms: C_1  and  C_2
REMARK    2  A    between atoms: C_2  and  N_3
REMARK    3  A    between atoms: C_2  and  C_17
REMARK    4  A    between atoms: C_4  and  C_6
REMARK    5  A    between atoms: N_12  and  C_13
REMARK    6  A    between atoms: C_20  and  O_21
REMARK    7  A    between atoms: O_21  and  C_22
REMARK                            x       y       z     vdW  Elec       q    Type
REMARK                         _______ _______ _______ _____ _____    ______ ____
ROOT
ATOM      1  C   UNL     1      49.421  10.360  13.572  0.00  0.00    +0.000 C 
ATOM      2  C   UNL     1      49.321   8.833  13.599  0.00  0.00    +0.000 C 
ENDROOT
BRANCH   2   3
ATOM      3  C   UNL     1      48.026   8.369  12.956  0.00  0.00    +0.000 A 
ATOM      4  C   UNL     1      48.071   7.355  11.996  0.00  0.00    +0.000 A 
ATOM      5  C   UNL     1      46.895   6.865  11.430  0.00  0.00    +0.000 A 
ATOM      6  C   UNL     1      45.650   7.342  11.851  0.00  0.00    +0.000 A 
ATOM      7  C   UNL     1      45.593   8.388  12.770  0.00  0.00    +0.000 A 
ATOM      8  C   UNL     1      46.774   8.903  13.317  0.00  0.00    +0.000 A 
BRANCH   6   9
ATOM      9  O   UNL     1      44.453   6.863  11.359  0.00  0.00    +0.000 OA
BRANCH   9  10
ATOM     10  C   UNL     1      44.131   5.537  11.631  0.00  0.00    +0.000 A 
ATOM     11  C   UNL     1      44.232   4.629  10.586  0.00  0.00    +0.000 A 
ATOM     12  C   UNL     1      43.920   3.295  10.843  0.00  0.00    +0.000 A 
ATOM     13  C   UNL     1      43.534   2.917  12.126  0.00  0.00    +0.000 A 
ATOM     14  C   UNL     1      43.461   3.893  13.102  0.00  0.00    +0.000 A 
ATOM     15  N   UNL     1      43.723   5.192  12.873  0.00  0.00    +0.000 NA
ENDBRANCH   9  10
ENDBRANCH   6   9
ENDBRANCH   2   3
BRANCH   2  16
ATOM     16  N   UNL     1      49.409   8.292  14.936  0.00  0.00    +0.000 N 
ATOM     17  C   UNL     1      50.569   7.857  15.520  0.00  0.00    +0.000 C 
ATOM     18  O   UNL     1      51.635   7.788  14.915  0.00  0.00    +0.000 OA
ATOM     19  H   UNL     1      48.588   8.409  15.518  0.00  0.00    +0.000 HD
BRANCH  17  20
ATOM     20  C   UNL     1      50.450   7.436  16.916  0.00  0.00    +0.000 A 
ATOM     21  C   UNL     1      51.158   8.078  17.926  0.00  0.00    +0.000 A 
ATOM     22  S   UNL     1      50.829   7.458  19.482  0.00  0.00    +0.000 S 
ATOM     23  C   UNL     1      49.719   6.324  18.861  0.00  0.00    +0.000 A 
ATOM     24  N   UNL     1      49.037   5.488  19.680  0.00  0.00    +0.000 NA
ATOM     25  C   UNL     1      48.219   4.690  19.070  0.00  0.00    +0.000 A 
ATOM     26  N   UNL     1      48.015   4.642  17.706  0.00  0.00    +0.000 N 
ATOM     27  C   UNL     1      47.102   3.679  17.123  0.00  0.00    +0.000 C 
ATOM     28  C   UNL     1      48.728   5.454  16.834  0.00  0.00    +0.000 A 
ATOM     29  O   UNL     1      48.624   5.353  15.618  0.00  0.00    +0.000 OA
ATOM     30  C   UNL     1      49.628   6.389  17.482  0.00  0.00    +0.000 A 
ENDBRANCH  17  20
ENDBRANCH   2  16
TORSDOF 5
ENDMDL
