MODEL 1
REMARK VINA RESULT:    -7.759      0.000      0.000
REMARK INTER + INTRA:         -12.360
REMARK INTER:                 -11.161
REMARK INTRA:                  -1.199
REMARK UNBOUND:                -1.199
REMARK  Name = 
REMARK  8 active torsions:
REMARK  status: ('A' for Active; 'I' for Inactive)
REMARK    1  A    between atoms: C_2  and  C_20
REMARK    2  A    between atoms: N_3  and  C_4
REMARK    3  A    between atoms: C_4  and  C_5
REMARK    4  A    between atoms: C_8  and  C_9
REMARK    5  A    between atoms: C_9  and  C_10
REMARK    6  A    between atoms: C_10  and  C_11
REMARK    7  A    between atoms: C_11  and  N_12
REMARK    8  A    between atoms: C_15  and  O_16
REMARK                            x       y       z     vdW  Elec       q    Type
REMARK                         _______ _______ _______ _____ _____    ______ ____
ROOT
ATOM      1  C   UNL     1      46.783   8.023  13.120  0.00  0.00    +0.000 C 
ENDROOT
BRANCH   1   2
ATOM      2  C   UNL     1      45.977   7.055  12.296  0.00  0.00    +0.000 A 
ATOM      3  C   UNL     1      46.456   6.617  11.055  0.00  0.00    +0.000 A 
ATOM      4  C   UNL     1      45.733   5.692  10.301  0.00  0.00    +0.000 A 
ATOM      5  C   UNL     1      44.516   5.181  10.773  0.00  0.00    +0.000 A 
ATOM      6  C   UNL     1      44.015   5.657  11.991  0.00  0.00    +0.000 A 
ATOM      7  C   UNL     1      44.736   6.588  12.743  0.00  0.00    +0.000 A 
BRANCH   5   8
ATOM      8  C   UNL     1      43.738   4.160   9.980  0.00  0.00    +0.000 C 
BRANCH   8   9
ATOM      9  C   UNL     1      44.307   2.738  10.040  0.00  0.00    +0.000 C 
BRANCH   9  10
ATOM     10  C   UNL     1      44.672   2.154   8.665  0.00  0.00    +0.000 C 
BRANCH  10  11
ATOM     11  N   UNL     1      46.119   2.245   8.425  0.00  0.00    +0.000 NA
ATOM     12  C   UNL     1      46.672   1.045   7.781  0.00  0.00    +0.000 C 
ATOM     13  C   UNL     1      47.822   1.544   6.929  0.00  0.00    +0.000 C 
ATOM     14  C   UNL     1      47.304   2.877   6.428  0.00  0.00    +0.000 C 
ATOM     15  C   UNL     1      46.502   3.418   7.614  0.00  0.00    +0.000 C 
BRANCH  14  16
ATOM     16  O   UNL     1      46.459   2.676   5.294  0.00  0.00    +0.000 OA
ATOM     17  H   UNL     1      46.700   1.820   4.896  0.00  0.00    +0.000 HD
ENDBRANCH  14  16
ENDBRANCH  10  11
ENDBRANCH   9  10
ENDBRANCH   8   9
ENDBRANCH   5   8
ENDBRANCH   1   2
BRANCH   1  20
ATOM     18  O   UNL     1      49.270   6.748  13.392  0.00  0.00    +0.000 OA
ATOM     19  C   UNL     1      48.533   6.823  14.373  0.00  0.00    +0.000 C 
ATOM     20  N   UNL     1      47.295   7.407  14.317  0.00  0.00    +0.000 N 
ATOM     21  H   UNL     1      46.795   7.606  15.177  0.00  0.00    +0.000 HD
BRANCH  19  22
ATOM     22  C   UNL     1      48.916   6.232  15.660  0.00  0.00    +0.000 A 
ATOM     23  C   UNL     1      49.947   6.805  16.395  0.00  0.00    +0.000 A 
ATOM     24  S   UNL     1      50.272   5.999  17.861  0.00  0.00    +0.000 S 
ATOM     25  C   UNL     1      49.021   4.880  17.586  0.00  0.00    +0.000 A 
ATOM     26  N   UNL     1      48.733   3.917  18.502  0.00  0.00    +0.000 NA
ATOM     27  C   UNL     1      47.731   3.167  18.190  0.00  0.00    +0.000 A 
ATOM     28  N   UNL     1      47.003   3.277  17.034  0.00  0.00    +0.000 N 
ATOM     29  C   UNL     1      47.310   4.176  16.043  0.00  0.00    +0.000 A 
ATOM     30  O   UNL     1      46.735   4.152  14.959  0.00  0.00    +0.000 OA
ATOM     31  C   UNL     1      48.389   5.096  16.374  0.00  0.00    +0.000 A 
ATOM     32  H   UNL     1      46.254   2.631  16.829  0.00  0.00    +0.000 HD
ENDBRANCH  19  22
ENDBRANCH   1  20
TORSDOF 8
ENDMDL
MODEL 2
REMARK VINA RESULT:    -7.264      1.683      2.004
REMARK INTER + INTRA:         -11.647
REMARK INTER:                 -10.766
REMARK INTRA:                  -0.882
REMARK UNBOUND:                -1.199
REMARK  Name = 
REMARK  8 active torsions:
REMARK  status: ('A' for Active; 'I' for Inactive)
REMARK    1  A    between atoms: C_2  and  C_20
REMARK    2  A    between atoms: N_3  and  C_4
REMARK    3  A    between atoms: C_4  and  C_5
REMARK    4  A    between atoms: C_8  and  C_9
REMARK    5  A    between atoms: C_9  and  C_10
REMARK    6  A    between atoms: C_10  and  C_11
REMARK    7  A    between atoms: C_11  and  N_12
REMARK    8  A    between atoms: C_15  and  O_16
REMARK                            x       y       z     vdW  Elec       q    Type
REMARK                         _______ _______ _______ _____ _____    ______ ____
ROOT
ATOM      1  C   UNL     1      48.225   6.544  13.411  0.00  0.00    +0.000 C 
ENDROOT
BRANCH   1   2
ATOM      2  C   UNL     1      47.104   5.784  12.754  0.00  0.00    +0.000 A 
ATOM      3  C   UNL     1      46.683   4.556  13.279  0.00  0.00    +0.000 A 
ATOM      4  C   UNL     1      45.622   3.862  12.698  0.00  0.00    +0.000 A 
ATOM      5  C   UNL     1      44.954   4.383  11.580  0.00  0.00    +0.000 A 
ATOM      6  C   UNL     1      45.408   5.587  11.028  0.00  0.00    +0.000 A 
ATOM      7  C   UNL     1      46.475   6.279  11.606  0.00  0.00    +0.000 A 
BRANCH   5   8
ATOM      8  C   UNL     1      43.786   3.656  10.960  0.00  0.00    +0.000 C 
BRANCH   8   9
ATOM      9  C   UNL     1      44.174   2.535   9.990  0.00  0.00    +0.000 C 
BRANCH   9  10
ATOM     10  C   UNL     1      44.632   3.035   8.610  0.00  0.00    +0.000 C 
BRANCH  10  11
ATOM     11  N   UNL     1      46.068   2.791   8.415  0.00  0.00    +0.000 NA
ATOM     12  C   UNL     1      46.366   1.415   7.992  0.00  0.00    +0.000 C 
ATOM     13  C   UNL     1      47.599   1.525   7.117  0.00  0.00    +0.000 C 
ATOM     14  C   UNL     1      47.369   2.834   6.390  0.00  0.00    +0.000 C 
ATOM     15  C   UNL     1      46.688   3.713   7.442  0.00  0.00    +0.000 C 
BRANCH  14  16
ATOM     16  O   UNL     1      46.506   2.625   5.270  0.00  0.00    +0.000 OA
ATOM     17  H   UNL     1      47.051   2.277   4.542  0.00  0.00    +0.000 HD
ENDBRANCH  14  16
ENDBRANCH  10  11
ENDBRANCH   9  10
ENDBRANCH   8   9
ENDBRANCH   5   8
ENDBRANCH   1   2
BRANCH   1  20
ATOM     18  O   UNL     1      50.288   6.843  15.294  0.00  0.00    +0.000 OA
ATOM     19  C   UNL     1      49.128   6.764  15.694  0.00  0.00    +0.000 C 
ATOM     20  N   UNL     1      48.068   6.592  14.842  0.00  0.00    +0.000 N 
ATOM     21  H   UNL     1      47.122   6.709  15.189  0.00  0.00    +0.000 HD
BRANCH  19  22
ATOM     22  C   UNL     1      48.813   6.789  17.127  0.00  0.00    +0.000 A 
ATOM     23  C   UNL     1      48.373   7.972  17.709  0.00  0.00    +0.000 A 
ATOM     24  S   UNL     1      48.055   7.837  19.377  0.00  0.00    +0.000 S 
ATOM     25  C   UNL     1      48.457   6.184  19.375  0.00  0.00    +0.000 A 
ATOM     26  N   UNL     1      48.359   5.442  20.509  0.00  0.00    +0.000 NA
ATOM     27  C   UNL     1      48.647   4.193  20.356  0.00  0.00    +0.000 A 
ATOM     28  N   UNL     1      49.047   3.623  19.176  0.00  0.00    +0.000 N 
ATOM     29  C   UNL     1      49.243   4.348  18.027  0.00  0.00    +0.000 A 
ATOM     30  O   UNL     1      49.742   3.839  17.029  0.00  0.00    +0.000 OA
ATOM     31  C   UNL     1      48.864   5.751  18.125  0.00  0.00    +0.000 A 
ATOM     32  H   UNL     1      49.298   2.646  19.130  0.00  0.00    +0.000 HD
ENDBRANCH  19  22
ENDBRANCH   1  20
TORSDOF 8
ENDMDL
MODEL 3
REMARK VINA RESULT:    -7.259      2.743      8.067
REMARK INTER + INTRA:         -11.640
REMARK INTER:                 -10.188
REMARK INTRA:                  -1.452
REMARK UNBOUND:                -1.199
REMARK  Name = 
REMARK  8 active torsions:
REMARK  status: ('A' for Active; 'I' for Inactive)
REMARK    1  A    between atoms: C_2  and  C_20
REMARK    2  A    between atoms: N_3  and  C_4
REMARK    3  A    between atoms: C_4  and  C_5
REMARK    4  A    between atoms: C_8  and  C_9
REMARK    5  A    between atoms: C_9  and  C_10
REMARK    6  A    between atoms: C_10  and  C_11
REMARK    7  A    between atoms: C_11  and  N_12
REMARK    8  A    between atoms: C_15  and  O_16
REMARK                            x       y       z     vdW  Elec       q    Type
REMARK                         _______ _______ _______ _____ _____    ______ ____
ROOT
ATOM      1  C   UNL     1      47.746   7.919  11.873  0.00  0.00    +0.000 C 
ENDROOT
BRANCH   1   2
ATOM      2  C   UNL     1      48.369   8.001  13.242  0.00  0.00    +0.000 A 
ATOM      3  C   UNL     1      47.720   8.696  14.270  0.00  0.00    +0.000 A 
ATOM      4  C   UNL     1      48.272   8.747  15.551  0.00  0.00    +0.000 A 
ATOM      5  C   UNL     1      49.485   8.101  15.832  0.00  0.00    +0.000 A 
ATOM      6  C   UNL     1      50.155   7.448  14.790  0.00  0.00    +0.000 A 
ATOM      7  C   UNL     1      49.606   7.402  13.507  0.00  0.00    +0.000 A 
BRANCH   5   8
ATOM      8  C   UNL     1      50.077   8.124  17.219  0.00  0.00    +0.000 C 
BRANCH   8   9
ATOM      9  C   UNL     1      50.563   6.764  17.729  0.00  0.00    +0.000 C 
BRANCH   9  10
ATOM     10  C   UNL     1      49.428   5.778  18.051  0.00  0.00    +0.000 C 
BRANCH  10  11
ATOM     11  N   UNL     1      49.324   4.742  17.013  0.00  0.00    +0.000 NA
ATOM     12  C   UNL     1      49.608   3.391  17.519  0.00  0.00    +0.000 C 
ATOM     13  C   UNL     1      48.745   2.464  16.684  0.00  0.00    +0.000 C 
ATOM     14  C   UNL     1      47.485   3.282  16.484  0.00  0.00    +0.000 C 
ATOM     15  C   UNL     1      48.006   4.715  16.348  0.00  0.00    +0.000 C 
BRANCH  14  16
ATOM     16  O   UNL     1      46.637   3.158  17.627  0.00  0.00    +0.000 OA
ATOM     17  H   UNL     1      45.887   2.589  17.375  0.00  0.00    +0.000 HD
ENDBRANCH  14  16
ENDBRANCH  10  11
ENDBRANCH   9  10
ENDBRANCH   8   9
ENDBRANCH   5   8
ENDBRANCH   1   2
BRANCH   1  20
ATOM     18  O   UNL     1      44.961   7.612  12.056  0.00  0.00    +0.000 OA
ATOM     19  C   UNL     1      45.647   6.631  11.779  0.00  0.00    +0.000 C 
ATOM     20  N   UNL     1      47.014   6.692  11.695  0.00  0.00    +0.000 N 
ATOM     21  H   UNL     1      47.526   5.914  11.293  0.00  0.00    +0.000 HD
BRANCH  19  22
ATOM     22  C   UNL     1      45.041   5.310  11.577  0.00  0.00    +0.000 A 
ATOM     23  C   UNL     1      44.358   4.705  12.624  0.00  0.00    +0.000 A 
ATOM     24  S   UNL     1      43.719   3.175  12.231  0.00  0.00    +0.000 S 
ATOM     25  C   UNL     1      44.299   3.283  10.636  0.00  0.00    +0.000 A 
ATOM     26  N   UNL     1      44.053   2.293   9.736  0.00  0.00    +0.000 NA
ATOM     27  C   UNL     1      44.508   2.525   8.551  0.00  0.00    +0.000 A 
ATOM     28  N   UNL     1      45.206   3.647   8.188  0.00  0.00    +0.000 N 
ATOM     29  C   UNL     1      45.551   4.631   9.081  0.00  0.00    +0.000 A 
ATOM     30  O   UNL     1      46.301   5.547   8.761  0.00  0.00    +0.000 OA
ATOM     31  C   UNL     1      45.003   4.455  10.417  0.00  0.00    +0.000 A 
ATOM     32  H   UNL     1      45.571   3.751   7.252  0.00  0.00    +0.000 HD
ENDBRANCH  19  22
ENDBRANCH   1  20
TORSDOF 8
ENDMDL
MODEL 4
REMARK VINA RESULT:    -6.881      3.369      5.538
REMARK INTER + INTRA:         -11.098
REMARK INTER:                  -9.983
REMARK INTRA:                  -1.115
REMARK UNBOUND:                -1.199
REMARK  Name = 
REMARK  8 active torsions:
REMARK  status: ('A' for Active; 'I' for Inactive)
REMARK    1  A    between atoms: C_2  and  C_20
REMARK    2  A    between atoms: N_3  and  C_4
REMARK    3  A    between atoms: C_4  and  C_5
REMARK    4  A    between atoms: C_8  and  C_9
REMARK    5  A    between atoms: C_9  and  C_10
REMARK    6  A    between atoms: C_10  and  C_11
REMARK    7  A    between atoms: C_11  and  N_12
REMARK    8  A    between atoms: C_15  and  O_16
REMARK                            x       y       z     vdW  Elec       q    Type
REMARK                         _______ _______ _______ _____ _____    ______ ____
ROOT
ATOM      1  C   UNL     1      47.989   3.642  17.503  0.00  0.00    +0.000 C 
ENDROOT
BRANCH   1   2
ATOM      2  C   UNL     1      47.818   4.423  16.227  0.00  0.00    +0.000 A 
ATOM      3  C   UNL     1      47.073   3.889  15.169  0.00  0.00    +0.000 A 
ATOM      4  C   UNL     1      46.879   4.620  13.997  0.00  0.00    +0.000 A 
ATOM      5  C   UNL     1      47.423   5.905  13.858  0.00  0.00    +0.000 A 
ATOM      6  C   UNL     1      48.208   6.417  14.898  0.00  0.00    +0.000 A 
ATOM      7  C   UNL     1      48.408   5.683  16.069  0.00  0.00    +0.000 A 
BRANCH   5   8
ATOM      8  C   UNL     1      47.197   6.717  12.607  0.00  0.00    +0.000 C 
BRANCH   8   9
ATOM      9  C   UNL     1      46.341   6.025  11.542  0.00  0.00    +0.000 C 
BRANCH   9  10
ATOM     10  C   UNL     1      44.833   6.290  11.684  0.00  0.00    +0.000 C 
BRANCH  10  11
ATOM     11  N   UNL     1      44.052   5.286  10.947  0.00  0.00    +0.000 NA
ATOM     12  C   UNL     1      44.893   4.353  10.182  0.00  0.00    +0.000 C 
ATOM     13  C   UNL     1      44.129   3.043  10.176  0.00  0.00    +0.000 C 
ATOM     14  C   UNL     1      43.501   3.024  11.555  0.00  0.00    +0.000 C 
ATOM     15  C   UNL     1      43.157   4.493  11.813  0.00  0.00    +0.000 C 
BRANCH  14  16
ATOM     16  O   UNL     1      44.447   2.549  12.515  0.00  0.00    +0.000 OA
ATOM     17  H   UNL     1      44.759   3.319  13.024  0.00  0.00    +0.000 HD
ENDBRANCH  14  16
ENDBRANCH  10  11
ENDBRANCH   9  10
ENDBRANCH   8   9
ENDBRANCH   5   8
ENDBRANCH   1   2
BRANCH   1  20
ATOM     18  O   UNL     1      49.563   1.717  16.199  0.00  0.00    +0.000 OA
ATOM     19  C   UNL     1      50.080   2.412  17.071  0.00  0.00    +0.000 C 
ATOM     20  N   UNL     1      49.375   3.356  17.770  0.00  0.00    +0.000 N 
ATOM     21  H   UNL     1      49.871   4.025  18.349  0.00  0.00    +0.000 HD
BRANCH  19  22
ATOM     22  C   UNL     1      51.484   2.229  17.458  0.00  0.00    +0.000 A 
ATOM     23  C   UNL     1      51.986   0.944  17.618  0.00  0.00    +0.000 A 
ATOM     24  S   UNL     1      53.628   0.902  18.073  0.00  0.00    +0.000 S 
ATOM     25  C   UNL     1      53.737   2.599  18.034  0.00  0.00    +0.000 A 
ATOM     26  N   UNL     1      54.914   3.228  18.294  0.00  0.00    +0.000 NA
ATOM     27  C   UNL     1      54.868   4.513  18.183  0.00  0.00    +0.000 A 
ATOM     28  N   UNL     1      53.746   5.229  17.858  0.00  0.00    +0.000 N 
ATOM     29  C   UNL     1      52.518   4.645  17.671  0.00  0.00    +0.000 A 
ATOM     30  O   UNL     1      51.505   5.322  17.528  0.00  0.00    +0.000 OA
ATOM     31  C   UNL     1      52.527   3.190  17.715  0.00  0.00    +0.000 A 
ATOM     32  H   UNL     1      53.766   6.239  17.826  0.00  0.00    +0.000 HD
ENDBRANCH  19  22
ENDBRANCH   1  20
TORSDOF 8
ENDMDL
MODEL 5
REMARK VINA RESULT:    -6.738      3.434      7.738
REMARK INTER + INTRA:         -10.892
REMARK INTER:                  -9.650
REMARK INTRA:                  -1.242
REMARK UNBOUND:                -1.199
REMARK  Name = 
REMARK  8 active torsions:
REMARK  status: ('A' for Active; 'I' for Inactive)
REMARK    1  A    between atoms: C_2  and  C_20
REMARK    2  A    between atoms: N_3  and  C_4
REMARK    3  A    between atoms: C_4  and  C_5
REMARK    4  A    between atoms: C_8  and  C_9
REMARK    5  A    between atoms: C_9  and  C_10
REMARK    6  A    between atoms: C_10  and  C_11
REMARK    7  A    between atoms: C_11  and  N_12
REMARK    8  A    between atoms: C_15  and  O_16
REMARK                            x       y       z     vdW  Elec       q    Type
REMARK                         _______ _______ _______ _____ _____    ______ ____
ROOT
ATOM      1  C   UNL     1      48.197   8.244  11.802  0.00  0.00    +0.000 C 
ENDROOT
BRANCH   1   2
ATOM      2  C   UNL     1      48.577   8.084  13.250  0.00  0.00    +0.000 A 
ATOM      3  C   UNL     1      49.754   7.412  13.599  0.00  0.00    +0.000 A 
ATOM      4  C   UNL     1      50.133   7.291  14.937  0.00  0.00    +0.000 A 
ATOM      5  C   UNL     1      49.343   7.843  15.956  0.00  0.00    +0.000 A 
ATOM      6  C   UNL     1      48.142   8.473  15.607  0.00  0.00    +0.000 A 
ATOM      7  C   UNL     1      47.760   8.589  14.268  0.00  0.00    +0.000 A 
BRANCH   5   8
ATOM      8  C   UNL     1      49.755   7.744  17.404  0.00  0.00    +0.000 C 
BRANCH   8   9
ATOM      9  C   UNL     1      48.975   6.709  18.220  0.00  0.00    +0.000 C 
BRANCH   9  10
ATOM     10  C   UNL     1      49.696   5.358  18.367  0.00  0.00    +0.000 C 
BRANCH  10  11
ATOM     11  N   UNL     1      49.449   4.503  17.197  0.00  0.00    +0.000 NA
ATOM     12  C   UNL     1      49.664   3.075  17.474  0.00  0.00    +0.000 C 
ATOM     13  C   UNL     1      48.683   2.344  16.578  0.00  0.00    +0.000 C 
ATOM     14  C   UNL     1      47.476   3.260  16.597  0.00  0.00    +0.000 C 
ATOM     15  C   UNL     1      48.092   4.661  16.637  0.00  0.00    +0.000 C 
BRANCH  14  16
ATOM     16  O   UNL     1      46.697   3.016  17.770  0.00  0.00    +0.000 OA
ATOM     17  H   UNL     1      45.857   2.615  17.484  0.00  0.00    +0.000 HD
ENDBRANCH  14  16
ENDBRANCH  10  11
ENDBRANCH   9  10
ENDBRANCH   8   9
ENDBRANCH   5   8
ENDBRANCH   1   2
BRANCH   1  20
ATOM     18  O   UNL     1      45.408   7.966  11.627  0.00  0.00    +0.000 OA
ATOM     19  C   UNL     1      46.120   7.044  11.235  0.00  0.00    +0.000 C 
ATOM     20  N   UNL     1      47.488   7.091  11.308  0.00  0.00    +0.000 N 
ATOM     21  H   UNL     1      48.040   6.397  10.816  0.00  0.00    +0.000 HD
BRANCH  19  22
ATOM     22  C   UNL     1      45.539   5.802  10.713  0.00  0.00    +0.000 A 
ATOM     23  C   UNL     1      45.762   5.448   9.388  0.00  0.00    +0.000 A 
ATOM     24  S   UNL     1      45.017   3.983   8.936  0.00  0.00    +0.000 S 
ATOM     25  C   UNL     1      44.402   3.750  10.506  0.00  0.00    +0.000 A 
ATOM     26  N   UNL     1      43.685   2.638  10.815  0.00  0.00    +0.000 NA
ATOM     27  C   UNL     1      43.322   2.564  12.051  0.00  0.00    +0.000 A 
ATOM     28  N   UNL     1      43.590   3.514  13.002  0.00  0.00    +0.000 N 
ATOM     29  C   UNL     1      44.235   4.691  12.717  0.00  0.00    +0.000 A 
ATOM     30  O   UNL     1      44.330   5.585  13.552  0.00  0.00    +0.000 OA
ATOM     31  C   UNL     1      44.730   4.795  11.352  0.00  0.00    +0.000 A 
ATOM     32  H   UNL     1      43.241   3.417  13.945  0.00  0.00    +0.000 HD
ENDBRANCH  19  22
ENDBRANCH   1  20
TORSDOF 8
ENDMDL
MODEL 6
REMARK VINA RESULT:    -6.719      3.262      5.112
REMARK INTER + INTRA:         -10.864
REMARK INTER:                  -9.888
REMARK INTRA:                  -0.976
REMARK UNBOUND:                -1.199
REMARK  Name = 
REMARK  8 active torsions:
REMARK  status: ('A' for Active; 'I' for Inactive)
REMARK    1  A    between atoms: C_2  and  C_20
REMARK    2  A    between atoms: N_3  and  C_4
REMARK    3  A    between atoms: C_4  and  C_5
REMARK    4  A    between atoms: C_8  and  C_9
REMARK    5  A    between atoms: C_9  and  C_10
REMARK    6  A    between atoms: C_10  and  C_11
REMARK    7  A    between atoms: C_11  and  N_12
REMARK    8  A    between atoms: C_15  and  O_16
REMARK                            x       y       z     vdW  Elec       q    Type
REMARK                         _______ _______ _______ _____ _____    ______ ____
ROOT
ATOM      1  C   UNL     1      49.416   6.358  17.757  0.00  0.00    +0.000 C 
ENDROOT
BRANCH   1   2
ATOM      2  C   UNL     1      48.687   6.045  16.478  0.00  0.00    +0.000 A 
ATOM      3  C   UNL     1      47.903   4.890  16.379  0.00  0.00    +0.000 A 
ATOM      4  C   UNL     1      47.195   4.610  15.209  0.00  0.00    +0.000 A 
ATOM      5  C   UNL     1      47.253   5.482  14.113  0.00  0.00    +0.000 A 
ATOM      6  C   UNL     1      48.076   6.612  14.197  0.00  0.00    +0.000 A 
ATOM      7  C   UNL     1      48.790   6.889  15.366  0.00  0.00    +0.000 A 
BRANCH   5   8
ATOM      8  C   UNL     1      46.470   5.206  12.853  0.00  0.00    +0.000 C 
BRANCH   8   9
ATOM      9  C   UNL     1      45.043   5.761  12.854  0.00  0.00    +0.000 C 
BRANCH   9  10
ATOM     10  C   UNL     1      44.548   6.213  11.471  0.00  0.00    +0.000 C 
BRANCH  10  11
ATOM     11  N   UNL     1      43.859   5.116  10.777  0.00  0.00    +0.000 NA
ATOM     12  C   UNL     1      44.782   4.199  10.091  0.00  0.00    +0.000 C 
ATOM     13  C   UNL     1      44.109   2.842  10.146  0.00  0.00    +0.000 C 
ATOM     14  C   UNL     1      43.446   2.860  11.508  0.00  0.00    +0.000 C 
ATOM     15  C   UNL     1      42.996   4.314  11.667  0.00  0.00    +0.000 C 
BRANCH  14  16
ATOM     16  O   UNL     1      44.394   2.510  12.518  0.00  0.00    +0.000 OA
ATOM     17  H   UNL     1      45.267   2.824  12.221  0.00  0.00    +0.000 HD
ENDBRANCH  14  16
ENDBRANCH  10  11
ENDBRANCH   9  10
ENDBRANCH   8   9
ENDBRANCH   5   8
ENDBRANCH   1   2
BRANCH   1  20
ATOM     18  O   UNL     1      51.967   6.124  16.605  0.00  0.00    +0.000 OA
ATOM     19  C   UNL     1      51.635   5.322  17.475  0.00  0.00    +0.000 C 
ATOM     20  N   UNL     1      50.400   5.353  18.069  0.00  0.00    +0.000 N 
ATOM     21  H   UNL     1      50.229   4.795  18.898  0.00  0.00    +0.000 HD
BRANCH  19  22
ATOM     22  C   UNL     1      52.530   4.236  17.891  0.00  0.00    +0.000 A 
ATOM     23  C   UNL     1      53.768   4.545  18.441  0.00  0.00    +0.000 A 
ATOM     24  S   UNL     1      54.688   3.175  18.867  0.00  0.00    +0.000 S 
ATOM     25  C   UNL     1      53.449   2.121  18.369  0.00  0.00    +0.000 A 
ATOM     26  N   UNL     1      53.583   0.775  18.503  0.00  0.00    +0.000 NA
ATOM     27  C   UNL     1      52.550   0.097  18.132  0.00  0.00    +0.000 A 
ATOM     28  N   UNL     1      51.402   0.640  17.616  0.00  0.00    +0.000 N 
ATOM     29  C   UNL     1      51.255   1.985  17.383  0.00  0.00    +0.000 A 
ATOM     30  O   UNL     1      50.278   2.425  16.785  0.00  0.00    +0.000 OA
ATOM     31  C   UNL     1      52.363   2.805  17.850  0.00  0.00    +0.000 A 
ATOM     32  H   UNL     1      50.643   0.051  17.305  0.00  0.00    +0.000 HD
ENDBRANCH  19  22
ENDBRANCH   1  20
TORSDOF 8
ENDMDL
MODEL 7
REMARK VINA RESULT:    -6.606      1.629      2.090
REMARK INTER + INTRA:         -10.701
REMARK INTER:                  -9.719
REMARK INTRA:                  -0.981
REMARK UNBOUND:                -1.199
REMARK  Name = 
REMARK  8 active torsions:
REMARK  status: ('A' for Active; 'I' for Inactive)
REMARK    1  A    between atoms: C_2  and  C_20
REMARK    2  A    between atoms: N_3  and  C_4
REMARK    3  A    between atoms: C_4  and  C_5
REMARK    4  A    between atoms: C_8  and  C_9
REMARK    5  A    between atoms: C_9  and  C_10
REMARK    6  A    between atoms: C_10  and  C_11
REMARK    7  A    between atoms: C_11  and  N_12
REMARK    8  A    between atoms: C_15  and  O_16
REMARK                            x       y       z     vdW  Elec       q    Type
REMARK                         _______ _______ _______ _____ _____    ______ ____
ROOT
ATOM      1  C   UNL     1      47.315   7.769  13.383  0.00  0.00    +0.000 C 
ENDROOT
BRANCH   1   2
ATOM      2  C   UNL     1      46.566   6.667  12.681  0.00  0.00    +0.000 A 
ATOM      3  C   UNL     1      46.345   5.445  13.326  0.00  0.00    +0.000 A 
ATOM      4  C   UNL     1      45.620   4.431  12.697  0.00  0.00    +0.000 A 
ATOM      5  C   UNL     1      45.097   4.620  11.410  0.00  0.00    +0.000 A 
ATOM      6  C   UNL     1      45.360   5.826  10.749  0.00  0.00    +0.000 A 
ATOM      7  C   UNL     1      46.091   6.838  11.376  0.00  0.00    +0.000 A 
BRANCH   5   8
ATOM      8  C   UNL     1      44.287   3.543  10.731  0.00  0.00    +0.000 C 
BRANCH   8   9
ATOM      9  C   UNL     1      44.590   3.361   9.240  0.00  0.00    +0.000 C 
BRANCH   9  10
ATOM     10  C   UNL     1      45.893   2.595   8.957  0.00  0.00    +0.000 C 
BRANCH  10  11
ATOM     11  N   UNL     1      45.953   2.165   7.553  0.00  0.00    +0.000 NA
ATOM     12  C   UNL     1      45.953   3.290   6.606  0.00  0.00    +0.000 C 
ATOM     13  C   UNL     1      46.773   2.815   5.423  0.00  0.00    +0.000 C 
ATOM     14  C   UNL     1      47.852   1.982   6.086  0.00  0.00    +0.000 C 
ATOM     15  C   UNL     1      47.122   1.314   7.254  0.00  0.00    +0.000 C 
BRANCH  14  16
ATOM     16  O   UNL     1      48.900   2.830   6.562  0.00  0.00    +0.000 OA
ATOM     17  H   UNL     1      48.490   3.518   7.116  0.00  0.00    +0.000 HD
ENDBRANCH  14  16
ENDBRANCH  10  11
ENDBRANCH   9  10
ENDBRANCH   8   9
ENDBRANCH   5   8
ENDBRANCH   1   2
BRANCH   1  20
ATOM     18  O   UNL     1      48.329   8.868  15.760  0.00  0.00    +0.000 OA
ATOM     19  C   UNL     1      48.838   7.840  15.320  0.00  0.00    +0.000 C 
ATOM     20  N   UNL     1      48.418   7.254  14.154  0.00  0.00    +0.000 N 
ATOM     21  H   UNL     1      48.738   6.321  13.918  0.00  0.00    +0.000 HD
BRANCH  19  22
ATOM     22  C   UNL     1      49.977   7.205  15.993  0.00  0.00    +0.000 A 
ATOM     23  C   UNL     1      51.221   7.823  15.961  0.00  0.00    +0.000 A 
ATOM     24  S   UNL     1      52.437   6.958  16.783  0.00  0.00    +0.000 S 
ATOM     25  C   UNL     1      51.337   5.746  17.245  0.00  0.00    +0.000 A 
ATOM     26  N   UNL     1      51.735   4.702  18.020  0.00  0.00    +0.000 NA
ATOM     27  C   UNL     1      50.789   3.882  18.336  0.00  0.00    +0.000 A 
ATOM     28  N   UNL     1      49.486   3.998  17.930  0.00  0.00    +0.000 N 
ATOM     29  C   UNL     1      49.057   4.985  17.079  0.00  0.00    +0.000 A 
ATOM     30  O   UNL     1      47.921   4.978  16.615  0.00  0.00    +0.000 OA
ATOM     31  C   UNL     1      50.067   5.979  16.746  0.00  0.00    +0.000 A 
ATOM     32  H   UNL     1      48.801   3.299  18.179  0.00  0.00    +0.000 HD
ENDBRANCH  19  22
ENDBRANCH   1  20
TORSDOF 8
ENDMDL
MODEL 8
REMARK VINA RESULT:    -6.416      4.827      7.449
REMARK INTER + INTRA:         -10.429
REMARK INTER:                  -9.409
REMARK INTRA:                  -1.020
REMARK UNBOUND:                -1.199
REMARK  Name = 
REMARK  8 active torsions:
REMARK  status: ('A' for Active; 'I' for Inactive)
REMARK    1  A    between atoms: C_2  and  C_20
REMARK    2  A    between atoms: N_3  and  C_4
REMARK    3  A    between atoms: C_4  and  C_5
REMARK    4  A    between atoms: C_8  and  C_9
REMARK    5  A    between atoms: C_9  and  C_10
REMARK    6  A    between atoms: C_10  and  C_11
REMARK    7  A    between atoms: C_11  and  N_12
REMARK    8  A    between atoms: C_15  and  O_16
REMARK                            x       y       z     vdW  Elec       q    Type
REMARK                         _______ _______ _______ _____ _____    ______ ____
ROOT
ATOM      1  C   UNL     1      46.381   8.110  13.118  0.00  0.00    +0.000 C 
ENDROOT
BRANCH   1   2
ATOM      2  C   UNL     1      47.715   8.402  12.485  0.00  0.00    +0.000 A 
ATOM      3  C   UNL     1      48.026   9.701  12.065  0.00  0.00    +0.000 A 
ATOM      4  C   UNL     1      49.274   9.988  11.510  0.00  0.00    +0.000 A 
ATOM      5  C   UNL     1      50.240   8.983  11.365  0.00  0.00    +0.000 A 
ATOM      6  C   UNL     1      49.909   7.675  11.742  0.00  0.00    +0.000 A 
ATOM      7  C   UNL     1      48.658   7.386  12.292  0.00  0.00    +0.000 A 
BRANCH   5   8
ATOM      8  C   UNL     1      51.603   9.286  10.793  0.00  0.00    +0.000 C 
BRANCH   8   9
ATOM      9  C   UNL     1      52.403   8.054  10.363  0.00  0.00    +0.000 C 
BRANCH   9  10
ATOM     10  C   UNL     1      53.814   8.376   9.844  0.00  0.00    +0.000 C 
BRANCH  10  11
ATOM     11  N   UNL     1      54.377   7.232   9.111  0.00  0.00    +0.000 NA
ATOM     12  C   UNL     1      53.694   5.965   9.411  0.00  0.00    +0.000 C 
ATOM     13  C   UNL     1      53.784   5.153   8.134  0.00  0.00    +0.000 C 
ATOM     14  C   UNL     1      53.636   6.212   7.061  0.00  0.00    +0.000 C 
ATOM     15  C   UNL     1      54.372   7.420   7.646  0.00  0.00    +0.000 C 
BRANCH  14  16
ATOM     16  O   UNL     1      52.254   6.511   6.857  0.00  0.00    +0.000 OA
ATOM     17  H   UNL     1      51.771   6.219   7.651  0.00  0.00    +0.000 HD
ENDBRANCH  14  16
ENDBRANCH  10  11
ENDBRANCH   9  10
ENDBRANCH   8   9
ENDBRANCH   5   8
ENDBRANCH   1   2
BRANCH   1  20
ATOM     18  O   UNL     1      44.501   7.576  11.102  0.00  0.00    +0.000 OA
ATOM     19  C   UNL     1      44.982   6.633  11.727  0.00  0.00    +0.000 C 
ATOM     20  N   UNL     1      45.886   6.811  12.742  0.00  0.00    +0.000 N 
ATOM     21  H   UNL     1      46.389   6.011  13.110  0.00  0.00    +0.000 HD
BRANCH  19  22
ATOM     22  C   UNL     1      44.567   5.251  11.461  0.00  0.00    +0.000 A 
ATOM     23  C   UNL     1      43.819   4.567  12.411  0.00  0.00    +0.000 A 
ATOM     24  S   UNL     1      43.422   2.974  11.953  0.00  0.00    +0.000 S 
ATOM     25  C   UNL     1      44.201   3.155  10.452  0.00  0.00    +0.000 A 
ATOM     26  N   UNL     1      44.199   2.147   9.540  0.00  0.00    +0.000 NA
ATOM     27  C   UNL     1      44.784   2.434   8.426  0.00  0.00    +0.000 A 
ATOM     28  N   UNL     1      45.392   3.630   8.148  0.00  0.00    +0.000 N 
ATOM     29  C   UNL     1      45.493   4.644   9.068  0.00  0.00    +0.000 A 
ATOM     30  O   UNL     1      46.169   5.643   8.843  0.00  0.00    +0.000 OA
ATOM     31  C   UNL     1      44.789   4.401  10.318  0.00  0.00    +0.000 A 
ATOM     32  H   UNL     1      45.869   3.779   7.271  0.00  0.00    +0.000 HD
ENDBRANCH  19  22
ENDBRANCH   1  20
TORSDOF 8
ENDMDL
MODEL 9
REMARK VINA RESULT:    -6.364      4.068      8.841
REMARK INTER + INTRA:         -10.353
REMARK INTER:                  -8.553
REMARK INTRA:                  -1.800
REMARK UNBOUND:                -1.199
REMARK  Name = 
REMARK  8 active torsions:
REMARK  status: ('A' for Active; 'I' for Inactive)
REMARK    1  A    between atoms: C_2  and  C_20
REMARK    2  A    between atoms: N_3  and  C_4
REMARK    3  A    between atoms: C_4  and  C_5
REMARK    4  A    between atoms: C_8  and  C_9
REMARK    5  A    between atoms: C_9  and  C_10
REMARK    6  A    between atoms: C_10  and  C_11
REMARK    7  A    between atoms: C_11  and  N_12
REMARK    8  A    between atoms: C_15  and  O_16
REMARK                            x       y       z     vdW  Elec       q    Type
REMARK                         _______ _______ _______ _____ _____    ______ ____
ROOT
ATOM      1  C   UNL     1      47.375   3.799  17.030  0.00  0.00    +0.000 C 
ENDROOT
BRANCH   1   2
ATOM      2  C   UNL     1      48.841   3.573  17.290  0.00  0.00    +0.000 A 
ATOM      3  C   UNL     1      49.412   2.318  17.052  0.00  0.00    +0.000 A 
ATOM      4  C   UNL     1      50.777   2.109  17.256  0.00  0.00    +0.000 A 
ATOM      5  C   UNL     1      51.601   3.153  17.699  0.00  0.00    +0.000 A 
ATOM      6  C   UNL     1      51.018   4.395  17.982  0.00  0.00    +0.000 A 
ATOM      7  C   UNL     1      49.651   4.602  17.784  0.00  0.00    +0.000 A 
BRANCH   5   8
ATOM      8  C   UNL     1      53.083   2.948  17.896  0.00  0.00    +0.000 C 
BRANCH   8   9
ATOM      9  C   UNL     1      53.893   4.240  18.034  0.00  0.00    +0.000 C 
BRANCH   9  10
ATOM     10  C   UNL     1      55.013   4.389  16.990  0.00  0.00    +0.000 C 
BRANCH  10  11
ATOM     11  N   UNL     1      55.134   5.786  16.548  0.00  0.00    +0.000 NA
ATOM     12  C   UNL     1      55.067   5.934  15.086  0.00  0.00    +0.000 C 
ATOM     13  C   UNL     1      54.424   7.287  14.852  0.00  0.00    +0.000 C 
ATOM     14  C   UNL     1      53.412   7.367  15.977  0.00  0.00    +0.000 C 
ATOM     15  C   UNL     1      54.119   6.676  17.145  0.00  0.00    +0.000 C 
BRANCH  14  16
ATOM     16  O   UNL     1      52.223   6.662  15.616  0.00  0.00    +0.000 OA
ATOM     17  H   UNL     1      52.476   5.740  15.428  0.00  0.00    +0.000 HD
ENDBRANCH  14  16
ENDBRANCH  10  11
ENDBRANCH   9  10
ENDBRANCH   8   9
ENDBRANCH   5   8
ENDBRANCH   1   2
BRANCH   1  20
ATOM     18  O   UNL     1      47.348   3.081  14.315  0.00  0.00    +0.000 OA
ATOM     19  C   UNL     1      47.142   4.254  14.618  0.00  0.00    +0.000 C 
ATOM     20  N   UNL     1      47.163   4.690  15.918  0.00  0.00    +0.000 N 
ATOM     21  H   UNL     1      46.816   5.617  16.141  0.00  0.00    +0.000 HD
BRANCH  19  22
ATOM     22  C   UNL     1      46.918   5.278  13.592  0.00  0.00    +0.000 A 
ATOM     23  C   UNL     1      45.855   5.139  12.708  0.00  0.00    +0.000 A 
ATOM     24  S   UNL     1      45.735   6.407  11.577  0.00  0.00    +0.000 S 
ATOM     25  C   UNL     1      47.075   7.208  12.252  0.00  0.00    +0.000 A 
ATOM     26  N   UNL     1      47.490   8.407  11.762  0.00  0.00    +0.000 NA
ATOM     27  C   UNL     1      48.486   8.927  12.398  0.00  0.00    +0.000 A 
ATOM     28  N   UNL     1      49.122   8.345  13.464  0.00  0.00    +0.000 N 
ATOM     29  C   UNL     1      48.794   7.100  13.937  0.00  0.00    +0.000 A 
ATOM     30  O   UNL     1      49.474   6.543  14.794  0.00  0.00    +0.000 OA
ATOM     31  C   UNL     1      47.630   6.498  13.303  0.00  0.00    +0.000 A 
ATOM     32  H   UNL     1      49.923   8.785  13.893  0.00  0.00    +0.000 HD
ENDBRANCH  19  22
ENDBRANCH   1  20
TORSDOF 8
ENDMDL
