MODEL 1
REMARK VINA RESULT:    -8.795      0.000      0.000
REMARK INTER + INTRA:         -12.211
REMARK INTER:                 -11.366
REMARK INTRA:                  -0.845
REMARK UNBOUND:                -0.845
REMARK  Name = 
REMARK  5 active torsions:
REMARK  status: ('A' for Active; 'I' for Inactive)
REMARK    1  A    between atoms: C_2  and  C_4
REMARK    2  A    between atoms: C_7  and  O_8
REMARK    3  A    between atoms: O_8  and  C_9
REMARK    4  A    between atoms: C_9  and  C_10
REMARK    5  A    between atoms: C_14  and  C_15
REMARK                            x       y       z     vdW  Elec       q    Type
REMARK                         _______ _______ _______ _____ _____    ______ ____
ROOT
ATOM      1  C   UNL     1      43.496   4.930  10.905  0.00  0.00    +0.000 C 
ENDROOT
BRANCH   1   2
ATOM      2  C   UNL     1      44.675   5.084  11.824  0.00  0.00    +0.000 A 
ATOM      3  C   UNL     1      44.758   4.332  12.990  0.00  0.00    +0.000 A 
ATOM      4  N   UNL     1      45.744   4.447  13.899  0.00  0.00    +0.000 NA
ATOM      5  C   UNL     1      46.696   5.373  13.639  0.00  0.00    +0.000 A 
ATOM      6  C   UNL     1      46.726   6.202  12.521  0.00  0.00    +0.000 A 
ATOM      7  C   UNL     1      45.680   6.033  11.600  0.00  0.00    +0.000 A 
BRANCH   6   8
ATOM      8  C   UNL     1      47.758   7.238  12.348  0.00  0.00    +0.000 A 
ATOM      9  C   UNL     1      49.129   6.935  12.444  0.00  0.00    +0.000 A 
ATOM     10  C   UNL     1      50.105   7.898  12.187  0.00  0.00    +0.000 A 
ATOM     11  C   UNL     1      49.728   9.190  11.826  0.00  0.00    +0.000 A 
ATOM     12  C   UNL     1      48.380   9.510  11.763  0.00  0.00    +0.000 A 
ATOM     13  F   UNL     1      48.011  10.750  11.413  0.00  0.00    +0.000 F 
ATOM     14  C   UNL     1      47.405   8.560  12.026  0.00  0.00    +0.000 A 
ENDBRANCH   6   8
ENDBRANCH   1   2
BRANCH   1  15
ATOM     15  O   UNL     1      43.512   3.634  10.305  0.00  0.00    +0.000 OA
BRANCH  15  19
ATOM     16  C   UNL     1      46.460   2.659   7.527  0.00  0.00    +0.000 A 
ATOM     17  C   UNL     1      45.990   3.976   7.565  0.00  0.00    +0.000 A 
ATOM     18  C   UNL     1      45.002   4.345   8.482  0.00  0.00    +0.000 A 
ATOM     19  C   UNL     1      44.479   3.400   9.367  0.00  0.00    +0.000 A 
ATOM     20  C   UNL     1      44.944   2.085   9.323  0.00  0.00    +0.000 A 
ATOM     21  C   UNL     1      45.928   1.709   8.404  0.00  0.00    +0.000 A 
BRANCH  16  23
ATOM     22  N   UNL     1      47.526   2.900   5.356  0.00  0.00    +0.000 N 
ATOM     23  C   UNL     1      47.491   2.232   6.548  0.00  0.00    +0.000 C 
ATOM     24  O   UNL     1      48.291   1.345   6.802  0.00  0.00    +0.000 OA
ATOM     25  H   UNL     1      48.291   2.667   4.736  0.00  0.00    +0.000 HD
ATOM     26  H   UNL     1      47.068   3.791   5.224  0.00  0.00    +0.000 HD
ENDBRANCH  16  23
ENDBRANCH  15  19
ENDBRANCH   1  15
TORSDOF 5
ENDMDL
MODEL 2
REMARK VINA RESULT:    -8.462      2.779      3.816
REMARK INTER + INTRA:         -11.780
REMARK INTER:                 -11.033
REMARK INTRA:                  -0.747
REMARK UNBOUND:                -0.845
REMARK  Name = 
REMARK  5 active torsions:
REMARK  status: ('A' for Active; 'I' for Inactive)
REMARK    1  A    between atoms: C_2  and  C_4
REMARK    2  A    between atoms: C_7  and  O_8
REMARK    3  A    between atoms: O_8  and  C_9
REMARK    4  A    between atoms: C_9  and  C_10
REMARK    5  A    between atoms: C_14  and  C_15
REMARK                            x       y       z     vdW  Elec       q    Type
REMARK                         _______ _______ _______ _____ _____    ______ ____
ROOT
ATOM      1  C   UNL     1      43.745   4.410  11.516  0.00  0.00    +0.000 C 
ENDROOT
BRANCH   1   2
ATOM      2  C   UNL     1      44.801   5.278  12.139  0.00  0.00    +0.000 A 
ATOM      3  C   UNL     1      45.156   6.485  11.548  0.00  0.00    +0.000 A 
ATOM      4  N   UNL     1      46.131   7.295  12.002  0.00  0.00    +0.000 NA
ATOM      5  C   UNL     1      46.799   6.874  13.100  0.00  0.00    +0.000 A 
ATOM      6  C   UNL     1      46.559   5.682  13.779  0.00  0.00    +0.000 A 
ATOM      7  C   UNL     1      45.524   4.881  13.270  0.00  0.00    +0.000 A 
BRANCH   6   8
ATOM      8  C   UNL     1      47.382   5.260  14.925  0.00  0.00    +0.000 A 
ATOM      9  C   UNL     1      48.406   6.078  15.438  0.00  0.00    +0.000 A 
ATOM     10  C   UNL     1      49.120   5.716  16.581  0.00  0.00    +0.000 A 
ATOM     11  C   UNL     1      48.823   4.523  17.236  0.00  0.00    +0.000 A 
ATOM     12  C   UNL     1      47.840   3.692  16.721  0.00  0.00    +0.000 A 
ATOM     13  F   UNL     1      47.547   2.545  17.349  0.00  0.00    +0.000 F 
ATOM     14  C   UNL     1      47.132   4.041  15.580  0.00  0.00    +0.000 A 
ENDBRANCH   6   8
ENDBRANCH   1   2
BRANCH   1  15
ATOM     15  O   UNL     1      43.731   4.599  10.101  0.00  0.00    +0.000 OA
BRANCH  15  19
ATOM     16  C   UNL     1      46.391   2.431   7.738  0.00  0.00    +0.000 A 
ATOM     17  C   UNL     1      45.594   1.735   8.653  0.00  0.00    +0.000 A 
ATOM     18  C   UNL     1      44.688   2.426   9.465  0.00  0.00    +0.000 A 
ATOM     19  C   UNL     1      44.573   3.813   9.364  0.00  0.00    +0.000 A 
ATOM     20  C   UNL     1      45.374   4.506   8.456  0.00  0.00    +0.000 A 
ATOM     21  C   UNL     1      46.286   3.822   7.646  0.00  0.00    +0.000 A 
BRANCH  16  23
ATOM     22  N   UNL     1      48.479   2.443   6.493  0.00  0.00    +0.000 N 
ATOM     23  C   UNL     1      47.379   1.729   6.881  0.00  0.00    +0.000 C 
ATOM     24  O   UNL     1      47.234   0.560   6.559  0.00  0.00    +0.000 OA
ATOM     25  H   UNL     1      49.190   1.927   5.991  0.00  0.00    +0.000 HD
ATOM     26  H   UNL     1      48.753   3.300   6.950  0.00  0.00    +0.000 HD
ENDBRANCH  16  23
ENDBRANCH  15  19
ENDBRANCH   1  15
TORSDOF 5
ENDMDL
MODEL 3
REMARK VINA RESULT:    -8.241      3.818      7.435
REMARK INTER + INTRA:         -11.494
REMARK INTER:                 -10.911
REMARK INTRA:                  -0.583
REMARK UNBOUND:                -0.845
REMARK  Name = 
REMARK  5 active torsions:
REMARK  status: ('A' for Active; 'I' for Inactive)
REMARK    1  A    between atoms: C_2  and  C_4
REMARK    2  A    between atoms: C_7  and  O_8
REMARK    3  A    between atoms: O_8  and  C_9
REMARK    4  A    between atoms: C_9  and  C_10
REMARK    5  A    between atoms: C_14  and  C_15
REMARK                            x       y       z     vdW  Elec       q    Type
REMARK                         _______ _______ _______ _____ _____    ______ ____
ROOT
ATOM      1  C   UNL     1      46.090   7.178  11.847  0.00  0.00    +0.000 C 
ENDROOT
BRANCH   1   2
ATOM      2  C   UNL     1      45.300   6.188  11.038  0.00  0.00    +0.000 A 
ATOM      3  C   UNL     1      43.951   5.983  11.302  0.00  0.00    +0.000 A 
ATOM      4  N   UNL     1      43.182   5.077  10.670  0.00  0.00    +0.000 NA
ATOM      5  C   UNL     1      43.794   4.322   9.729  0.00  0.00    +0.000 A 
ATOM      6  C   UNL     1      45.138   4.410   9.377  0.00  0.00    +0.000 A 
ATOM      7  C   UNL     1      45.891   5.379  10.060  0.00  0.00    +0.000 A 
BRANCH   6   8
ATOM      8  C   UNL     1      45.747   3.499   8.393  0.00  0.00    +0.000 A 
ATOM      9  C   UNL     1      46.383   3.984   7.235  0.00  0.00    +0.000 A 
ATOM     10  C   UNL     1      47.040   3.124   6.354  0.00  0.00    +0.000 A 
ATOM     11  C   UNL     1      47.074   1.756   6.615  0.00  0.00    +0.000 A 
ATOM     12  C   UNL     1      46.421   1.262   7.735  0.00  0.00    +0.000 A 
ATOM     13  F   UNL     1      46.453  -0.053   7.993  0.00  0.00    +0.000 F 
ATOM     14  C   UNL     1      45.758   2.110   8.610  0.00  0.00    +0.000 A 
ENDBRANCH   6   8
ENDBRANCH   1   2
BRANCH   1  15
ATOM     15  O   UNL     1      47.355   6.619  12.202  0.00  0.00    +0.000 OA
BRANCH  15  19
ATOM     16  C   UNL     1      47.485   4.689  15.891  0.00  0.00    +0.000 A 
ATOM     17  C   UNL     1      48.247   5.849  15.720  0.00  0.00    +0.000 A 
ATOM     18  C   UNL     1      48.231   6.527  14.497  0.00  0.00    +0.000 A 
ATOM     19  C   UNL     1      47.453   6.050  13.441  0.00  0.00    +0.000 A 
ATOM     20  C   UNL     1      46.699   4.888  13.612  0.00  0.00    +0.000 A 
ATOM     21  C   UNL     1      46.716   4.202  14.830  0.00  0.00    +0.000 A 
BRANCH  16  23
ATOM     22  N   UNL     1      48.406   4.334  18.113  0.00  0.00    +0.000 N 
ATOM     23  C   UNL     1      47.501   3.933  17.170  0.00  0.00    +0.000 C 
ATOM     24  O   UNL     1      46.725   3.014  17.383  0.00  0.00    +0.000 OA
ATOM     25  H   UNL     1      48.343   3.876  19.013  0.00  0.00    +0.000 HD
ATOM     26  H   UNL     1      48.863   5.234  18.074  0.00  0.00    +0.000 HD
ENDBRANCH  16  23
ENDBRANCH  15  19
ENDBRANCH   1  15
TORSDOF 5
ENDMDL
MODEL 4
REMARK VINA RESULT:    -8.179      3.773      7.181
REMARK INTER + INTRA:         -11.414
REMARK INTER:                 -10.745
REMARK INTRA:                  -0.669
REMARK UNBOUND:                -0.845
REMARK  Name = 
REMARK  5 active torsions:
REMARK  status: ('A' for Active; 'I' for Inactive)
REMARK    1  A    between atoms: C_2  and  C_4
REMARK    2  A    between atoms: C_7  and  O_8
REMARK    3  A    between atoms: O_8  and  C_9
REMARK    4  A    between atoms: C_9  and  C_10
REMARK    5  A    between atoms: C_14  and  C_15
REMARK                            x       y       z     vdW  Elec       q    Type
REMARK                         _______ _______ _______ _____ _____    ______ ____
ROOT
ATOM      1  C   UNL     1      43.776   6.666  11.391  0.00  0.00    +0.000 C 
ENDROOT
BRANCH   1   2
ATOM      2  C   UNL     1      43.780   5.215  10.999  0.00  0.00    +0.000 A 
ATOM      3  C   UNL     1      43.059   4.286  11.740  0.00  0.00    +0.000 A 
ATOM      4  N   UNL     1      43.053   2.962  11.499  0.00  0.00    +0.000 NA
ATOM      5  C   UNL     1      43.819   2.536  10.468  0.00  0.00    +0.000 A 
ATOM      6  C   UNL     1      44.602   3.353   9.657  0.00  0.00    +0.000 A 
ATOM      7  C   UNL     1      44.563   4.727   9.946  0.00  0.00    +0.000 A 
BRANCH   6   8
ATOM      8  C   UNL     1      45.467   2.802   8.601  0.00  0.00    +0.000 A 
ATOM      9  C   UNL     1      46.074   3.630   7.638  0.00  0.00    +0.000 A 
ATOM     10  C   UNL     1      46.967   3.116   6.698  0.00  0.00    +0.000 A 
ATOM     11  C   UNL     1      47.273   1.757   6.701  0.00  0.00    +0.000 A 
ATOM     12  C   UNL     1      46.655   0.924   7.623  0.00  0.00    +0.000 A 
ATOM     13  F   UNL     1      46.948  -0.384   7.633  0.00  0.00    +0.000 F 
ATOM     14  C   UNL     1      45.759   1.427   8.554  0.00  0.00    +0.000 A 
ENDBRANCH   6   8
ENDBRANCH   1   2
BRANCH   1  15
ATOM     15  O   UNL     1      45.028   7.265  11.056  0.00  0.00    +0.000 OA
BRANCH  15  19
ATOM     16  C   UNL     1      47.918   7.348  14.055  0.00  0.00    +0.000 A 
ATOM     17  C   UNL     1      47.126   8.484  13.863  0.00  0.00    +0.000 A 
ATOM     18  C   UNL     1      46.144   8.497  12.867  0.00  0.00    +0.000 A 
ATOM     19  C   UNL     1      45.949   7.375  12.061  0.00  0.00    +0.000 A 
ATOM     20  C   UNL     1      46.745   6.244  12.249  0.00  0.00    +0.000 A 
ATOM     21  C   UNL     1      47.732   6.228  13.239  0.00  0.00    +0.000 A 
BRANCH  16  23
ATOM     22  N   UNL     1      48.610   7.588  16.373  0.00  0.00    +0.000 N 
ATOM     23  C   UNL     1      48.985   7.313  15.088  0.00  0.00    +0.000 C 
ATOM     24  O   UNL     1      50.139   7.024  14.810  0.00  0.00    +0.000 OA
ATOM     25  H   UNL     1      49.324   7.468  17.081  0.00  0.00    +0.000 HD
ATOM     26  H   UNL     1      47.645   7.567  16.670  0.00  0.00    +0.000 HD
ENDBRANCH  16  23
ENDBRANCH  15  19
ENDBRANCH   1  15
TORSDOF 5
ENDMDL
MODEL 5
REMARK VINA RESULT:    -8.138      1.783      2.300
REMARK INTER + INTRA:         -11.362
REMARK INTER:                 -10.552
REMARK INTRA:                  -0.809
REMARK UNBOUND:                -0.845
REMARK  Name = 
REMARK  5 active torsions:
REMARK  status: ('A' for Active; 'I' for Inactive)
REMARK    1  A    between atoms: C_2  and  C_4
REMARK    2  A    between atoms: C_7  and  O_8
REMARK    3  A    between atoms: O_8  and  C_9
REMARK    4  A    between atoms: C_9  and  C_10
REMARK    5  A    between atoms: C_14  and  C_15
REMARK                            x       y       z     vdW  Elec       q    Type
REMARK                         _______ _______ _______ _____ _____    ______ ____
ROOT
ATOM      1  C   UNL     1      44.092   3.264  11.595  0.00  0.00    +0.000 C 
ENDROOT
BRANCH   1   2
ATOM      2  C   UNL     1      44.478   4.705  11.776  0.00  0.00    +0.000 A 
ATOM      3  C   UNL     1      43.568   5.716  11.493  0.00  0.00    +0.000 A 
ATOM      4  N   UNL     1      43.845   7.031  11.569  0.00  0.00    +0.000 NA
ATOM      5  C   UNL     1      45.105   7.359  11.936  0.00  0.00    +0.000 A 
ATOM      6  C   UNL     1      46.118   6.450  12.231  0.00  0.00    +0.000 A 
ATOM      7  C   UNL     1      45.771   5.092  12.147  0.00  0.00    +0.000 A 
BRANCH   6   8
ATOM      8  C   UNL     1      47.487   6.888  12.551  0.00  0.00    +0.000 A 
ATOM      9  C   UNL     1      48.318   7.478  11.580  0.00  0.00    +0.000 A 
ATOM     10  C   UNL     1      49.579   7.977  11.910  0.00  0.00    +0.000 A 
ATOM     11  C   UNL     1      50.035   7.896  13.223  0.00  0.00    +0.000 A 
ATOM     12  C   UNL     1      49.241   7.285  14.182  0.00  0.00    +0.000 A 
ATOM     13  F   UNL     1      49.674   7.207  15.448  0.00  0.00    +0.000 F 
ATOM     14  C   UNL     1      47.990   6.779  13.859  0.00  0.00    +0.000 A 
ENDBRANCH   6   8
ENDBRANCH   1   2
BRANCH   1  15
ATOM     15  O   UNL     1      43.611   3.051  10.268  0.00  0.00    +0.000 OA
BRANCH  15  19
ATOM     16  C   UNL     1      46.440   2.657   7.235  0.00  0.00    +0.000 A 
ATOM     17  C   UNL     1      46.182   1.552   8.052  0.00  0.00    +0.000 A 
ATOM     18  C   UNL     1      45.239   1.643   9.081  0.00  0.00    +0.000 A 
ATOM     19  C   UNL     1      44.550   2.837   9.297  0.00  0.00    +0.000 A 
ATOM     20  C   UNL     1      44.814   3.941   8.485  0.00  0.00    +0.000 A 
ATOM     21  C   UNL     1      45.760   3.858   7.459  0.00  0.00    +0.000 A 
BRANCH  16  23
ATOM     22  N   UNL     1      48.704   2.172   6.496  0.00  0.00    +0.000 N 
ATOM     23  C   UNL     1      47.453   2.599   6.150  0.00  0.00    +0.000 C 
ATOM     24  O   UNL     1      47.177   2.893   4.997  0.00  0.00    +0.000 OA
ATOM     25  H   UNL     1      49.358   2.045   5.734  0.00  0.00    +0.000 HD
ATOM     26  H   UNL     1      48.887   1.681   7.359  0.00  0.00    +0.000 HD
ENDBRANCH  16  23
ENDBRANCH  15  19
ENDBRANCH   1  15
TORSDOF 5
ENDMDL
MODEL 6
REMARK VINA RESULT:    -7.721      3.837      6.995
REMARK INTER + INTRA:         -10.823
REMARK INTER:                 -10.000
REMARK INTRA:                  -0.823
REMARK UNBOUND:                -0.845
REMARK  Name = 
REMARK  5 active torsions:
REMARK  status: ('A' for Active; 'I' for Inactive)
REMARK    1  A    between atoms: C_2  and  C_4
REMARK    2  A    between atoms: C_7  and  O_8
REMARK    3  A    between atoms: O_8  and  C_9
REMARK    4  A    between atoms: C_9  and  C_10
REMARK    5  A    between atoms: C_14  and  C_15
REMARK                            x       y       z     vdW  Elec       q    Type
REMARK                         _______ _______ _______ _____ _____    ______ ____
ROOT
ATOM      1  C   UNL     1      44.735   6.192  12.807  0.00  0.00    +0.000 C 
ENDROOT
BRANCH   1   2
ATOM      2  C   UNL     1      44.387   4.979  11.991  0.00  0.00    +0.000 A 
ATOM      3  C   UNL     1      43.431   4.078  12.447  0.00  0.00    +0.000 A 
ATOM      4  N   UNL     1      43.100   2.937  11.814  0.00  0.00    +0.000 NA
ATOM      5  C   UNL     1      43.766   2.672  10.667  0.00  0.00    +0.000 A 
ATOM      6  C   UNL     1      44.755   3.476  10.108  0.00  0.00    +0.000 A 
ATOM      7  C   UNL     1      45.054   4.659  10.804  0.00  0.00    +0.000 A 
BRANCH   6   8
ATOM      8  C   UNL     1      45.488   3.078   8.894  0.00  0.00    +0.000 A 
ATOM      9  C   UNL     1      45.925   4.028   7.953  0.00  0.00    +0.000 A 
ATOM     10  C   UNL     1      46.699   3.657   6.853  0.00  0.00    +0.000 A 
ATOM     11  C   UNL     1      47.053   2.322   6.672  0.00  0.00    +0.000 A 
ATOM     12  C   UNL     1      46.599   1.371   7.573  0.00  0.00    +0.000 A 
ATOM     13  F   UNL     1      46.939   0.085   7.405  0.00  0.00    +0.000 F 
ATOM     14  C   UNL     1      45.822   1.732   8.663  0.00  0.00    +0.000 A 
ENDBRANCH   6   8
ENDBRANCH   1   2
BRANCH   1  15
ATOM     15  O   UNL     1      46.138   6.214  13.073  0.00  0.00    +0.000 OA
BRANCH  15  19
ATOM     16  C   UNL     1      48.461   9.383  11.689  0.00  0.00    +0.000 A 
ATOM     17  C   UNL     1      47.159   9.653  12.124  0.00  0.00    +0.000 A 
ATOM     18  C   UNL     1      46.347   8.617  12.596  0.00  0.00    +0.000 A 
ATOM     19  C   UNL     1      46.832   7.309  12.637  0.00  0.00    +0.000 A 
ATOM     20  C   UNL     1      48.128   7.041  12.196  0.00  0.00    +0.000 A 
ATOM     21  C   UNL     1      48.943   8.071  11.717  0.00  0.00    +0.000 A 
BRANCH  16  23
ATOM     22  N   UNL     1      48.723  11.510  10.541  0.00  0.00    +0.000 N 
ATOM     23  C   UNL     1      49.339  10.457  11.159  0.00  0.00    +0.000 C 
ATOM     24  O   UNL     1      50.553  10.420  11.292  0.00  0.00    +0.000 OA
ATOM     25  H   UNL     1      49.322  12.280  10.270  0.00  0.00    +0.000 HD
ATOM     26  H   UNL     1      47.737  11.697  10.650  0.00  0.00    +0.000 HD
ENDBRANCH  16  23
ENDBRANCH  15  19
ENDBRANCH   1  15
TORSDOF 5
ENDMDL
MODEL 7
REMARK VINA RESULT:    -7.287      3.963      7.803
REMARK INTER + INTRA:         -10.262
REMARK INTER:                  -9.550
REMARK INTRA:                  -0.712
REMARK UNBOUND:                -0.845
REMARK  Name = 
REMARK  5 active torsions:
REMARK  status: ('A' for Active; 'I' for Inactive)
REMARK    1  A    between atoms: C_2  and  C_4
REMARK    2  A    between atoms: C_7  and  O_8
REMARK    3  A    between atoms: O_8  and  C_9
REMARK    4  A    between atoms: C_9  and  C_10
REMARK    5  A    between atoms: C_14  and  C_15
REMARK                            x       y       z     vdW  Elec       q    Type
REMARK                         _______ _______ _______ _____ _____    ______ ____
ROOT
ATOM      1  C   UNL     1      44.923   4.011  13.439  0.00  0.00    +0.000 C 
ENDROOT
BRANCH   1   2
ATOM      2  C   UNL     1      44.624   4.219  11.981  0.00  0.00    +0.000 A 
ATOM      3  C   UNL     1      43.539   4.995  11.591  0.00  0.00    +0.000 A 
ATOM      4  N   UNL     1      43.161   5.186  10.314  0.00  0.00    +0.000 NA
ATOM      5  C   UNL     1      43.899   4.557   9.369  0.00  0.00    +0.000 A 
ATOM      6  C   UNL     1      44.996   3.739   9.620  0.00  0.00    +0.000 A 
ATOM      7  C   UNL     1      45.353   3.583  10.970  0.00  0.00    +0.000 A 
BRANCH   6   8
ATOM      8  C   UNL     1      45.701   3.030   8.539  0.00  0.00    +0.000 A 
ATOM      9  C   UNL     1      46.274   3.721   7.456  0.00  0.00    +0.000 A 
ATOM     10  C   UNL     1      47.022   3.055   6.483  0.00  0.00    +0.000 A 
ATOM     11  C   UNL     1      47.212   1.679   6.577  0.00  0.00    +0.000 A 
ATOM     12  C   UNL     1      46.623   0.981   7.621  0.00  0.00    +0.000 A 
ATOM     13  F   UNL     1      46.806  -0.344   7.717  0.00  0.00    +0.000 F 
ATOM     14  C   UNL     1      45.872   1.635   8.585  0.00  0.00    +0.000 A 
ENDBRANCH   6   8
ENDBRANCH   1   2
BRANCH   1  15
ATOM     15  O   UNL     1      46.295   3.657  13.609  0.00  0.00    +0.000 OA
BRANCH  15  19
ATOM     16  C   UNL     1      48.573   6.204  15.993  0.00  0.00    +0.000 A 
ATOM     17  C   UNL     1      48.071   5.030  16.564  0.00  0.00    +0.000 A 
ATOM     18  C   UNL     1      47.302   4.148  15.798  0.00  0.00    +0.000 A 
ATOM     19  C   UNL     1      47.033   4.434  14.459  0.00  0.00    +0.000 A 
ATOM     20  C   UNL     1      47.529   5.609  13.892  0.00  0.00    +0.000 A 
ATOM     21  C   UNL     1      48.292   6.498  14.655  0.00  0.00    +0.000 A 
BRANCH  16  23
ATOM     22  N   UNL     1      50.111   6.665  17.818  0.00  0.00    +0.000 N 
ATOM     23  C   UNL     1      49.371   7.172  16.787  0.00  0.00    +0.000 C 
ATOM     24  O   UNL     1      49.389   8.364  16.518  0.00  0.00    +0.000 OA
ATOM     25  H   UNL     1      50.723   7.317  18.290  0.00  0.00    +0.000 HD
ATOM     26  H   UNL     1      50.323   5.680  17.896  0.00  0.00    +0.000 HD
ENDBRANCH  16  23
ENDBRANCH  15  19
ENDBRANCH   1  15
TORSDOF 5
ENDMDL
MODEL 8
REMARK VINA RESULT:    -6.984      3.429      6.943
REMARK INTER + INTRA:          -9.871
REMARK INTER:                  -9.121
REMARK INTRA:                  -0.749
REMARK UNBOUND:                -0.845
REMARK  Name = 
REMARK  5 active torsions:
REMARK  status: ('A' for Active; 'I' for Inactive)
REMARK    1  A    between atoms: C_2  and  C_4
REMARK    2  A    between atoms: C_7  and  O_8
REMARK    3  A    between atoms: O_8  and  C_9
REMARK    4  A    between atoms: C_9  and  C_10
REMARK    5  A    between atoms: C_14  and  C_15
REMARK                            x       y       z     vdW  Elec       q    Type
REMARK                         _______ _______ _______ _____ _____    ______ ____
ROOT
ATOM      1  C   UNL     1      44.990   5.528  12.814  0.00  0.00    +0.000 C 
ENDROOT
BRANCH   1   2
ATOM      2  C   UNL     1      44.576   4.442  11.862  0.00  0.00    +0.000 A 
ATOM      3  C   UNL     1      43.498   3.618  12.163  0.00  0.00    +0.000 A 
ATOM      4  N   UNL     1      43.095   2.584  11.401  0.00  0.00    +0.000 NA
ATOM      5  C   UNL     1      43.815   2.350  10.279  0.00  0.00    +0.000 A 
ATOM      6  C   UNL     1      44.924   3.083   9.868  0.00  0.00    +0.000 A 
ATOM      7  C   UNL     1      45.294   4.156  10.695  0.00  0.00    +0.000 A 
BRANCH   6   8
ATOM      8  C   UNL     1      45.699   2.716   8.671  0.00  0.00    +0.000 A 
ATOM      9  C   UNL     1      46.145   1.399   8.457  0.00  0.00    +0.000 A 
ATOM     10  C   UNL     1      46.797   1.035   7.278  0.00  0.00    +0.000 A 
ATOM     11  C   UNL     1      47.018   1.987   6.285  0.00  0.00    +0.000 A 
ATOM     12  C   UNL     1      46.615   3.297   6.499  0.00  0.00    +0.000 A 
ATOM     13  F   UNL     1      46.822   4.217   5.546  0.00  0.00    +0.000 F 
ATOM     14  C   UNL     1      45.974   3.667   7.672  0.00  0.00    +0.000 A 
ENDBRANCH   6   8
ENDBRANCH   1   2
BRANCH   1  15
ATOM     15  O   UNL     1      45.235   6.738  12.097  0.00  0.00    +0.000 OA
BRANCH  15  19
ATOM     16  C   UNL     1      48.964   8.504  12.669  0.00  0.00    +0.000 A 
ATOM     17  C   UNL     1      47.869   9.019  13.372  0.00  0.00    +0.000 A 
ATOM     18  C   UNL     1      46.600   8.454  13.208  0.00  0.00    +0.000 A 
ATOM     19  C   UNL     1      46.420   7.373  12.344  0.00  0.00    +0.000 A 
ATOM     20  C   UNL     1      47.512   6.866  11.638  0.00  0.00    +0.000 A 
ATOM     21  C   UNL     1      48.782   7.431  11.792  0.00  0.00    +0.000 A 
BRANCH  16  23
ATOM     22  N   UNL     1      51.346   8.240  13.077  0.00  0.00    +0.000 N 
ATOM     23  C   UNL     1      50.318   9.099  12.803  0.00  0.00    +0.000 C 
ATOM     24  O   UNL     1      50.514  10.295  12.648  0.00  0.00    +0.000 OA
ATOM     25  H   UNL     1      52.275   8.641  13.071  0.00  0.00    +0.000 HD
ATOM     26  H   UNL     1      51.263   7.242  12.948  0.00  0.00    +0.000 HD
ENDBRANCH  16  23
ENDBRANCH  15  19
ENDBRANCH   1  15
TORSDOF 5
ENDMDL
MODEL 9
REMARK VINA RESULT:    -6.754      5.089      8.082
REMARK INTER + INTRA:          -9.573
REMARK INTER:                  -8.775
REMARK INTRA:                  -0.798
REMARK UNBOUND:                -0.845
REMARK  Name = 
REMARK  5 active torsions:
REMARK  status: ('A' for Active; 'I' for Inactive)
REMARK    1  A    between atoms: C_2  and  C_4
REMARK    2  A    between atoms: C_7  and  O_8
REMARK    3  A    between atoms: O_8  and  C_9
REMARK    4  A    between atoms: C_9  and  C_10
REMARK    5  A    between atoms: C_14  and  C_15
REMARK                            x       y       z     vdW  Elec       q    Type
REMARK                         _______ _______ _______ _____ _____    ______ ____
ROOT
ATOM      1  C   UNL     1      48.836   6.596  15.904  0.00  0.00    +0.000 C 
ENDROOT
BRANCH   1   2
ATOM      2  C   UNL     1      48.374   6.623  14.474  0.00  0.00    +0.000 A 
ATOM      3  C   UNL     1      49.078   7.352  13.523  0.00  0.00    +0.000 A 
ATOM      4  N   UNL     1      48.705   7.482  12.236  0.00  0.00    +0.000 NA
ATOM      5  C   UNL     1      47.559   6.859  11.877  0.00  0.00    +0.000 A 
ATOM      6  C   UNL     1      46.749   6.113  12.729  0.00  0.00    +0.000 A 
ATOM      7  C   UNL     1      47.191   6.001  14.058  0.00  0.00    +0.000 A 
BRANCH   6   8
ATOM      8  C   UNL     1      45.476   5.528  12.278  0.00  0.00    +0.000 A 
ATOM      9  C   UNL     1      44.391   5.356  13.159  0.00  0.00    +0.000 A 
ATOM     10  C   UNL     1      43.156   4.889  12.707  0.00  0.00    +0.000 A 
ATOM     11  C   UNL     1      42.981   4.585  11.359  0.00  0.00    +0.000 A 
ATOM     12  C   UNL     1      44.051   4.717  10.488  0.00  0.00    +0.000 A 
ATOM     13  F   UNL     1      43.887   4.428   9.189  0.00  0.00    +0.000 F 
ATOM     14  C   UNL     1      45.284   5.171  10.932  0.00  0.00    +0.000 A 
ENDBRANCH   6   8
ENDBRANCH   1   2
BRANCH   1  15
ATOM     15  O   UNL     1      48.268   5.473  16.578  0.00  0.00    +0.000 OA
BRANCH  15  19
ATOM     16  C   UNL     1      50.997   2.438  17.414  0.00  0.00    +0.000 A 
ATOM     17  C   UNL     1      49.713   2.080  16.991  0.00  0.00    +0.000 A 
ATOM     18  C   UNL     1      48.767   3.069  16.700  0.00  0.00    +0.000 A 
ATOM     19  C   UNL     1      49.101   4.418  16.829  0.00  0.00    +0.000 A 
ATOM     20  C   UNL     1      50.381   4.773  17.258  0.00  0.00    +0.000 A 
ATOM     21  C   UNL     1      51.328   3.789  17.557  0.00  0.00    +0.000 A 
BRANCH  16  23
ATOM     22  N   UNL     1      51.550   0.189  18.151  0.00  0.00    +0.000 N 
ATOM     23  C   UNL     1      52.015   1.411  17.754  0.00  0.00    +0.000 C 
ATOM     24  O   UNL     1      53.212   1.636  17.658  0.00  0.00    +0.000 OA
ATOM     25  H   UNL     1      52.249  -0.530  18.288  0.00  0.00    +0.000 HD
ATOM     26  H   UNL     1      50.598  -0.105  17.987  0.00  0.00    +0.000 HD
ENDBRANCH  16  23
ENDBRANCH  15  19
ENDBRANCH   1  15
TORSDOF 5
ENDMDL
