MODEL 1
REMARK VINA RESULT:    -7.757      0.000      0.000
REMARK INTER + INTRA:          -9.768
REMARK INTER:                  -9.344
REMARK INTRA:                  -0.424
REMARK UNBOUND:                -0.424
REMARK  Name = 
REMARK  5 active torsions:
REMARK  status: ('A' for Active; 'I' for Inactive)
REMARK    1  A    between atoms: C_1  and  C_2
REMARK    2  A    between atoms: N_9  and  C_10
REMARK    3  A    between atoms: C_10  and  C_11
REMARK    4  A    between atoms: C_14  and  C_15
REMARK    5  A    between atoms: C_15  and  N_16
REMARK                            x       y       z     vdW  Elec       q    Type
REMARK                         _______ _______ _______ _____ _____    ______ ____
ROOT
ATOM      1  C   UNL     1      44.179   3.136  10.412  0.00  0.00    +0.000 C 
ENDROOT
BRANCH   1  10
ATOM      2  C   UNL     1      45.879   9.029  12.952  0.00  0.00    +0.000 C 
ATOM      3  C   UNL     1      45.598   7.615  12.551  0.00  0.00    +0.000 A 
ATOM      4  C   UNL     1      44.748   7.307  11.489  0.00  0.00    +0.000 A 
ATOM      5  N   UNL     1      44.446   6.063  11.038  0.00  0.00    +0.000 NA
ATOM      6  C   UNL     1      45.065   5.086  11.732  0.00  0.00    +0.000 A 
ATOM      7  C   UNL     1      45.921   5.247  12.818  0.00  0.00    +0.000 A 
ATOM      8  C   UNL     1      46.318   3.949  13.236  0.00  0.00    +0.000 A 
ATOM      9  C   UNL     1      45.712   3.038  12.399  0.00  0.00    +0.000 A 
ATOM     10  N   UNL     1      44.970   3.738  11.477  0.00  0.00    +0.000 N 
ATOM     11  C   UNL     1      46.196   6.556  13.242  0.00  0.00    +0.000 A 
ENDBRANCH   1  10
BRANCH   1  12
ATOM     12  C   UNL     1      44.990   2.959   9.160  0.00  0.00    +0.000 A 
ATOM     13  C   UNL     1      45.594   1.742   8.833  0.00  0.00    +0.000 A 
ATOM     14  C   UNL     1      46.394   1.650   7.696  0.00  0.00    +0.000 A 
ATOM     15  C   UNL     1      46.573   2.781   6.902  0.00  0.00    +0.000 A 
ATOM     16  N   UNL     1      45.978   3.966   7.186  0.00  0.00    +0.000 NA
ATOM     17  C   UNL     1      45.214   4.030   8.302  0.00  0.00    +0.000 A 
BRANCH  15  18
ATOM     18  C   UNL     1      47.487   2.734   5.696  0.00  0.00    +0.000 C 
BRANCH  18  19
ATOM     19  N   UNL     1      48.492   1.667   5.788  0.00  0.00    +0.000 NA
ATOM     20  H   UNL     1      48.277   0.981   5.064  0.00  0.00    +0.000 HD
ATOM     21  H   UNL     1      48.367   1.182   6.675  0.00  0.00    +0.000 HD
ENDBRANCH  18  19
ENDBRANCH  15  18
ENDBRANCH   1  12
TORSDOF 4
ENDMDL
MODEL 2
REMARK VINA RESULT:    -7.520      1.548      1.886
REMARK INTER + INTRA:          -9.482
REMARK INTER:                  -9.094
REMARK INTRA:                  -0.388
REMARK UNBOUND:                -0.424
REMARK  Name = 
REMARK  5 active torsions:
REMARK  status: ('A' for Active; 'I' for Inactive)
REMARK    1  A    between atoms: C_1  and  C_2
REMARK    2  A    between atoms: N_9  and  C_10
REMARK    3  A    between atoms: C_10  and  C_11
REMARK    4  A    between atoms: C_14  and  C_15
REMARK    5  A    between atoms: C_15  and  N_16
REMARK                            x       y       z     vdW  Elec       q    Type
REMARK                         _______ _______ _______ _____ _____    ______ ____
ROOT
ATOM      1  C   UNL     1      43.924   4.425   9.655  0.00  0.00    +0.000 C 
ENDROOT
BRANCH   1  10
ATOM      2  C   UNL     1      48.188   6.968  14.062  0.00  0.00    +0.000 C 
ATOM      3  C   UNL     1      47.116   6.323  13.241  0.00  0.00    +0.000 A 
ATOM      4  C   UNL     1      47.041   6.500  11.860  0.00  0.00    +0.000 A 
ATOM      5  N   UNL     1      46.122   5.945  11.029  0.00  0.00    +0.000 NA
ATOM      6  C   UNL     1      45.234   5.161  11.673  0.00  0.00    +0.000 A 
ATOM      7  C   UNL     1      45.181   4.910  13.042  0.00  0.00    +0.000 A 
ATOM      8  C   UNL     1      44.076   4.046  13.268  0.00  0.00    +0.000 A 
ATOM      9  C   UNL     1      43.495   3.784  12.046  0.00  0.00    +0.000 A 
ATOM     10  N   UNL     1      44.217   4.449  11.082  0.00  0.00    +0.000 N 
ATOM     11  C   UNL     1      46.154   5.512  13.853  0.00  0.00    +0.000 A 
ENDBRANCH   1  10
BRANCH   1  12
ATOM     12  C   UNL     1      44.944   3.620   8.900  0.00  0.00    +0.000 A 
ATOM     13  C   UNL     1      45.737   4.181   7.897  0.00  0.00    +0.000 A 
ATOM     14  C   UNL     1      46.618   3.374   7.179  0.00  0.00    +0.000 A 
ATOM     15  C   UNL     1      46.691   2.017   7.482  0.00  0.00    +0.000 A 
ATOM     16  N   UNL     1      45.949   1.454   8.468  0.00  0.00    +0.000 NA
ATOM     17  C   UNL     1      45.094   2.258   9.142  0.00  0.00    +0.000 A 
BRANCH  15  18
ATOM     18  C   UNL     1      47.590   1.099   6.680  0.00  0.00    +0.000 C 
BRANCH  18  19
ATOM     19  N   UNL     1      48.492   1.833   5.783  0.00  0.00    +0.000 NA
ATOM     20  H   UNL     1      49.112   2.396   6.367  0.00  0.00    +0.000 HD
ATOM     21  H   UNL     1      47.941   2.497   5.243  0.00  0.00    +0.000 HD
ENDBRANCH  18  19
ENDBRANCH  15  18
ENDBRANCH   1  12
TORSDOF 4
ENDMDL
MODEL 3
REMARK VINA RESULT:    -6.995      1.921      6.157
REMARK INTER + INTRA:          -8.850
REMARK INTER:                  -8.431
REMARK INTRA:                  -0.419
REMARK UNBOUND:                -0.424
REMARK  Name = 
REMARK  5 active torsions:
REMARK  status: ('A' for Active; 'I' for Inactive)
REMARK    1  A    between atoms: C_1  and  C_2
REMARK    2  A    between atoms: N_9  and  C_10
REMARK    3  A    between atoms: C_10  and  C_11
REMARK    4  A    between atoms: C_14  and  C_15
REMARK    5  A    between atoms: C_15  and  N_16
REMARK                            x       y       z     vdW  Elec       q    Type
REMARK                         _______ _______ _______ _____ _____    ______ ____
ROOT
ATOM      1  C   UNL     1      44.174   5.334  10.634  0.00  0.00    +0.000 C 
ENDROOT
BRANCH   1  10
ATOM      2  C   UNL     1      47.662   2.412   5.800  0.00  0.00    +0.000 C 
ATOM      3  C   UNL     1      46.828   2.869   6.955  0.00  0.00    +0.000 A 
ATOM      4  C   UNL     1      46.765   4.210   7.331  0.00  0.00    +0.000 A 
ATOM      5  N   UNL     1      46.027   4.725   8.347  0.00  0.00    +0.000 NA
ATOM      6  C   UNL     1      45.313   3.789   9.007  0.00  0.00    +0.000 A 
ATOM      7  C   UNL     1      45.294   2.421   8.752  0.00  0.00    +0.000 A 
ATOM      8  C   UNL     1      44.420   1.828   9.702  0.00  0.00    +0.000 A 
ATOM      9  C   UNL     1      43.923   2.838  10.497  0.00  0.00    +0.000 A 
ATOM     10  N   UNL     1      44.456   4.027  10.055  0.00  0.00    +0.000 N 
ATOM     11  C   UNL     1      46.079   1.945   7.691  0.00  0.00    +0.000 A 
ENDBRANCH   1  10
BRANCH   1  12
ATOM     12  C   UNL     1      45.234   5.736  11.620  0.00  0.00    +0.000 A 
ATOM     13  C   UNL     1      46.237   6.653  11.298  0.00  0.00    +0.000 A 
ATOM     14  C   UNL     1      47.237   6.939  12.226  0.00  0.00    +0.000 A 
ATOM     15  C   UNL     1      47.212   6.301  13.464  0.00  0.00    +0.000 A 
ATOM     16  N   UNL     1      46.236   5.426  13.808  0.00  0.00    +0.000 NA
ATOM     17  C   UNL     1      45.283   5.159  12.885  0.00  0.00    +0.000 A 
BRANCH  15  18
ATOM     18  C   UNL     1      48.318   6.539  14.470  0.00  0.00    +0.000 C 
BRANCH  18  19
ATOM     19  N   UNL     1      49.588   6.918  13.837  0.00  0.00    +0.000 NA
ATOM     20  H   UNL     1      50.198   7.283  14.569  0.00  0.00    +0.000 HD
ATOM     21  H   UNL     1      49.414   7.698  13.206  0.00  0.00    +0.000 HD
ENDBRANCH  18  19
ENDBRANCH  15  18
ENDBRANCH   1  12
TORSDOF 4
ENDMDL
MODEL 4
REMARK VINA RESULT:    -6.804      1.167      1.625
REMARK INTER + INTRA:          -8.620
REMARK INTER:                  -8.123
REMARK INTRA:                  -0.496
REMARK UNBOUND:                -0.424
REMARK  Name = 
REMARK  5 active torsions:
REMARK  status: ('A' for Active; 'I' for Inactive)
REMARK    1  A    between atoms: C_1  and  C_2
REMARK    2  A    between atoms: N_9  and  C_10
REMARK    3  A    between atoms: C_10  and  C_11
REMARK    4  A    between atoms: C_14  and  C_15
REMARK    5  A    between atoms: C_15  and  N_16
REMARK                            x       y       z     vdW  Elec       q    Type
REMARK                         _______ _______ _______ _____ _____    ______ ____
ROOT
ATOM      1  C   UNL     1      44.058   4.247  10.669  0.00  0.00    +0.000 C 
ENDROOT
BRANCH   1  10
ATOM      2  C   UNL     1      45.526  10.516  12.284  0.00  0.00    +0.000 C 
ATOM      3  C   UNL     1      45.303   9.048  12.100  0.00  0.00    +0.000 A 
ATOM      4  C   UNL     1      44.456   8.551  11.110  0.00  0.00    +0.000 A 
ATOM      5  N   UNL     1      44.204   7.243  10.852  0.00  0.00    +0.000 NA
ATOM      6  C   UNL     1      44.872   6.406  11.672  0.00  0.00    +0.000 A 
ATOM      7  C   UNL     1      45.731   6.761  12.709  0.00  0.00    +0.000 A 
ATOM      8  C   UNL     1      46.189   5.557  13.307  0.00  0.00    +0.000 A 
ATOM      9  C   UNL     1      45.615   4.508  12.624  0.00  0.00    +0.000 A 
ATOM     10  N   UNL     1      44.833   5.032  11.620  0.00  0.00    +0.000 N 
ATOM     11  C   UNL     1      45.953   8.129  12.930  0.00  0.00    +0.000 A 
ENDBRANCH   1  10
BRANCH   1  12
ATOM     12  C   UNL     1      44.933   3.676   9.588  0.00  0.00    +0.000 A 
ATOM     13  C   UNL     1      45.570   4.485   8.645  0.00  0.00    +0.000 A 
ATOM     14  C   UNL     1      46.313   3.901   7.621  0.00  0.00    +0.000 A 
ATOM     15  C   UNL     1      46.407   2.512   7.562  0.00  0.00    +0.000 A 
ATOM     16  N   UNL     1      45.816   1.707   8.480  0.00  0.00    +0.000 NA
ATOM     17  C   UNL     1      45.093   2.301   9.458  0.00  0.00    +0.000 A 
BRANCH  15  18
ATOM     18  C   UNL     1      47.152   1.842   6.427  0.00  0.00    +0.000 C 
BRANCH  18  19
ATOM     19  N   UNL     1      48.510   2.372   6.250  0.00  0.00    +0.000 NA
ATOM     20  H   UNL     1      48.498   3.348   6.548  0.00  0.00    +0.000 HD
ATOM     21  H   UNL     1      48.724   2.388   5.255  0.00  0.00    +0.000 HD
ENDBRANCH  18  19
ENDBRANCH  15  18
ENDBRANCH   1  12
TORSDOF 4
ENDMDL
MODEL 5
REMARK VINA RESULT:    -6.408      4.617      7.558
REMARK INTER + INTRA:          -8.143
REMARK INTER:                  -7.737
REMARK INTRA:                  -0.405
REMARK UNBOUND:                -0.424
REMARK  Name = 
REMARK  5 active torsions:
REMARK  status: ('A' for Active; 'I' for Inactive)
REMARK    1  A    between atoms: C_1  and  C_2
REMARK    2  A    between atoms: N_9  and  C_10
REMARK    3  A    between atoms: C_10  and  C_11
REMARK    4  A    between atoms: C_14  and  C_15
REMARK    5  A    between atoms: C_15  and  N_16
REMARK                            x       y       z     vdW  Elec       q    Type
REMARK                         _______ _______ _______ _____ _____    ______ ____
ROOT
ATOM      1  C   UNL     1      47.114   4.389  16.391  0.00  0.00    +0.000 C 
ENDROOT
BRANCH   1  10
ATOM      2  C   UNL     1      44.755   4.893  10.207  0.00  0.00    +0.000 C 
ATOM      3  C   UNL     1      45.405   4.955  11.553  0.00  0.00    +0.000 A 
ATOM      4  C   UNL     1      44.999   4.133  12.604  0.00  0.00    +0.000 A 
ATOM      5  N   UNL     1      45.535   4.101  13.851  0.00  0.00    +0.000 NA
ATOM      6  C   UNL     1      46.551   4.974  14.010  0.00  0.00    +0.000 A 
ATOM      7  C   UNL     1      47.046   5.862  13.058  0.00  0.00    +0.000 A 
ATOM      8  C   UNL     1      48.098   6.592  13.672  0.00  0.00    +0.000 A 
ATOM      9  C   UNL     1      48.228   6.131  14.964  0.00  0.00    +0.000 A 
ATOM     10  N   UNL     1      47.297   5.136  15.153  0.00  0.00    +0.000 N 
ATOM     11  C   UNL     1      46.451   5.853  11.788  0.00  0.00    +0.000 A 
ENDBRANCH   1  10
BRANCH   1  12
ATOM     12  C   UNL     1      48.342   3.597  16.740  0.00  0.00    +0.000 A 
ATOM     13  C   UNL     1      49.290   4.061  17.656  0.00  0.00    +0.000 A 
ATOM     14  C   UNL     1      50.445   3.319  17.891  0.00  0.00    +0.000 A 
ATOM     15  C   UNL     1      50.631   2.121  17.205  0.00  0.00    +0.000 A 
ATOM     16  N   UNL     1      49.715   1.639  16.330  0.00  0.00    +0.000 NA
ATOM     17  C   UNL     1      48.606   2.384  16.113  0.00  0.00    +0.000 A 
BRANCH  15  18
ATOM     18  C   UNL     1      51.905   1.323  17.389  0.00  0.00    +0.000 C 
BRANCH  18  19
ATOM     19  N   UNL     1      51.704   0.116  18.202  0.00  0.00    +0.000 NA
ATOM     20  H   UNL     1      51.253  -0.581  17.608  0.00  0.00    +0.000 HD
ATOM     21  H   UNL     1      51.034   0.330  18.938  0.00  0.00    +0.000 HD
ENDBRANCH  18  19
ENDBRANCH  15  18
ENDBRANCH   1  12
TORSDOF 4
ENDMDL
MODEL 6
REMARK VINA RESULT:    -5.767      5.021      7.679
REMARK INTER + INTRA:          -7.371
REMARK INTER:                  -7.054
REMARK INTRA:                  -0.317
REMARK UNBOUND:                -0.424
REMARK  Name = 
REMARK  5 active torsions:
REMARK  status: ('A' for Active; 'I' for Inactive)
REMARK    1  A    between atoms: C_1  and  C_2
REMARK    2  A    between atoms: N_9  and  C_10
REMARK    3  A    between atoms: C_10  and  C_11
REMARK    4  A    between atoms: C_14  and  C_15
REMARK    5  A    between atoms: C_15  and  N_16
REMARK                            x       y       z     vdW  Elec       q    Type
REMARK                         _______ _______ _______ _____ _____    ______ ____
ROOT
ATOM      1  C   UNL     1      47.177   4.593  16.465  0.00  0.00    +0.000 C 
ENDROOT
BRANCH   1  10
ATOM      2  C   UNL     1      50.222   8.620  12.155  0.00  0.00    +0.000 C 
ATOM      3  C   UNL     1      49.431   7.633  12.953  0.00  0.00    +0.000 A 
ATOM      4  C   UNL     1      49.684   7.411  14.307  0.00  0.00    +0.000 A 
ATOM      5  N   UNL     1      49.013   6.555  15.119  0.00  0.00    +0.000 NA
ATOM      6  C   UNL     1      48.023   5.893  14.484  0.00  0.00    +0.000 A 
ATOM      7  C   UNL     1      47.674   6.002  13.141  0.00  0.00    +0.000 A 
ATOM      8  C   UNL     1      46.592   5.110  12.915  0.00  0.00    +0.000 A 
ATOM      9  C   UNL     1      46.302   4.494  14.112  0.00  0.00    +0.000 A 
ATOM     10  N   UNL     1      47.163   4.990  15.064  0.00  0.00    +0.000 N 
ATOM     11  C   UNL     1      48.403   6.901  12.349  0.00  0.00    +0.000 A 
ENDBRANCH   1  10
BRANCH   1  12
ATOM     12  C   UNL     1      48.383   3.756  16.785  0.00  0.00    +0.000 A 
ATOM     13  C   UNL     1      49.396   4.207  17.635  0.00  0.00    +0.000 A 
ATOM     14  C   UNL     1      50.527   3.420  17.843  0.00  0.00    +0.000 A 
ATOM     15  C   UNL     1      50.623   2.191  17.196  0.00  0.00    +0.000 A 
ATOM     16  N   UNL     1      49.642   1.721  16.385  0.00  0.00    +0.000 NA
ATOM     17  C   UNL     1      48.560   2.510  16.193  0.00  0.00    +0.000 A 
BRANCH  15  18
ATOM     18  C   UNL     1      51.866   1.340  17.349  0.00  0.00    +0.000 C 
BRANCH  18  19
ATOM     19  N   UNL     1      51.634   0.141  18.165  0.00  0.00    +0.000 NA
ATOM     20  H   UNL     1      51.912  -0.667  17.608  0.00  0.00    +0.000 HD
ATOM     21  H   UNL     1      50.632   0.043  18.318  0.00  0.00    +0.000 HD
ENDBRANCH  18  19
ENDBRANCH  15  18
ENDBRANCH   1  12
TORSDOF 4
ENDMDL
MODEL 7
REMARK VINA RESULT:    -5.655      1.758      2.644
REMARK INTER + INTRA:          -7.236
REMARK INTER:                  -6.760
REMARK INTRA:                  -0.476
REMARK UNBOUND:                -0.424
REMARK  Name = 
REMARK  5 active torsions:
REMARK  status: ('A' for Active; 'I' for Inactive)
REMARK    1  A    between atoms: C_1  and  C_2
REMARK    2  A    between atoms: N_9  and  C_10
REMARK    3  A    between atoms: C_10  and  C_11
REMARK    4  A    between atoms: C_14  and  C_15
REMARK    5  A    between atoms: C_15  and  N_16
REMARK                            x       y       z     vdW  Elec       q    Type
REMARK                         _______ _______ _______ _____ _____    ______ ____
ROOT
ATOM      1  C   UNL     1      44.623   5.109  12.172  0.00  0.00    +0.000 C 
ENDROOT
BRANCH   1  10
ATOM      2  C   UNL     1      48.738   9.950  14.096  0.00  0.00    +0.000 C 
ATOM      3  C   UNL     1      47.913   8.735  13.809  0.00  0.00    +0.000 A 
ATOM      4  C   UNL     1      46.797   8.785  12.975  0.00  0.00    +0.000 A 
ATOM      5  N   UNL     1      45.999   7.740  12.639  0.00  0.00    +0.000 NA
ATOM      6  C   UNL     1      46.387   6.578  13.203  0.00  0.00    +0.000 A 
ATOM      7  C   UNL     1      47.464   6.387  14.064  0.00  0.00    +0.000 A 
ATOM      8  C   UNL     1      47.480   5.011  14.419  0.00  0.00    +0.000 A 
ATOM      9  C   UNL     1      46.432   4.400  13.766  0.00  0.00    +0.000 A 
ATOM     10  N   UNL     1      45.787   5.355  13.014  0.00  0.00    +0.000 N 
ATOM     11  C   UNL     1      48.253   7.504  14.378  0.00  0.00    +0.000 A 
ENDBRANCH   1  10
BRANCH   1  12
ATOM     12  C   UNL     1      45.026   4.609  10.814  0.00  0.00    +0.000 A 
ATOM     13  C   UNL     1      45.661   5.429   9.879  0.00  0.00    +0.000 A 
ATOM     14  C   UNL     1      45.951   4.936   8.608  0.00  0.00    +0.000 A 
ATOM     15  C   UNL     1      45.600   3.624   8.297  0.00  0.00    +0.000 A 
ATOM     16  N   UNL     1      45.004   2.801   9.195  0.00  0.00    +0.000 NA
ATOM     17  C   UNL     1      44.726   3.309  10.419  0.00  0.00    +0.000 A 
BRANCH  15  18
ATOM     18  C   UNL     1      45.841   3.076   6.906  0.00  0.00    +0.000 C 
BRANCH  18  19
ATOM     19  N   UNL     1      46.822   3.864   6.149  0.00  0.00    +0.000 NA
ATOM     20  H   UNL     1      47.724   3.396   6.237  0.00  0.00    +0.000 HD
ATOM     21  H   UNL     1      46.932   4.767   6.606  0.00  0.00    +0.000 HD
ENDBRANCH  18  19
ENDBRANCH  15  18
ENDBRANCH   1  12
TORSDOF 4
ENDMDL
MODEL 8
REMARK VINA RESULT:    -5.560      2.567      4.423
REMARK INTER + INTRA:          -7.121
REMARK INTER:                  -6.878
REMARK INTRA:                  -0.243
REMARK UNBOUND:                -0.424
REMARK  Name = 
REMARK  5 active torsions:
REMARK  status: ('A' for Active; 'I' for Inactive)
REMARK    1  A    between atoms: C_1  and  C_2
REMARK    2  A    between atoms: N_9  and  C_10
REMARK    3  A    between atoms: C_10  and  C_11
REMARK    4  A    between atoms: C_14  and  C_15
REMARK    5  A    between atoms: C_15  and  N_16
REMARK                            x       y       z     vdW  Elec       q    Type
REMARK                         _______ _______ _______ _____ _____    ______ ____
ROOT
ATOM      1  C   UNL     1      45.652   6.126  13.155  0.00  0.00    +0.000 C 
ENDROOT
BRANCH   1  10
ATOM      2  C   UNL     1      51.225   9.321  11.479  0.00  0.00    +0.000 C 
ATOM      3  C   UNL     1      49.865   8.780  11.791  0.00  0.00    +0.000 A 
ATOM      4  C   UNL     1      49.671   7.451  12.164  0.00  0.00    +0.000 A 
ATOM      5  N   UNL     1      48.485   6.872  12.484  0.00  0.00    +0.000 NA
ATOM      6  C   UNL     1      47.445   7.728  12.412  0.00  0.00    +0.000 A 
ATOM      7  C   UNL     1      47.491   9.068  12.039  0.00  0.00    +0.000 A 
ATOM      8  C   UNL     1      46.161   9.565  12.090  0.00  0.00    +0.000 A 
ATOM      9  C   UNL     1      45.346   8.532  12.498  0.00  0.00    +0.000 A 
ATOM     10  N   UNL     1      46.137   7.426  12.711  0.00  0.00    +0.000 N 
ATOM     11  C   UNL     1      48.743   9.612  11.716  0.00  0.00    +0.000 A 
ENDBRANCH   1  10
BRANCH   1  12
ATOM     12  C   UNL     1      45.447   5.192  11.996  0.00  0.00    +0.000 A 
ATOM     13  C   UNL     1      45.439   5.642  10.673  0.00  0.00    +0.000 A 
ATOM     14  C   UNL     1      45.174   4.746   9.639  0.00  0.00    +0.000 A 
ATOM     15  C   UNL     1      44.924   3.411   9.950  0.00  0.00    +0.000 A 
ATOM     16  N   UNL     1      44.950   2.947  11.224  0.00  0.00    +0.000 NA
ATOM     17  C   UNL     1      45.200   3.840  12.209  0.00  0.00    +0.000 A 
BRANCH  15  18
ATOM     18  C   UNL     1      44.570   2.424   8.857  0.00  0.00    +0.000 C 
BRANCH  18  19
ATOM     19  N   UNL     1      45.487   1.277   8.811  0.00  0.00    +0.000 NA
ATOM     20  H   UNL     1      46.434   1.639   8.928  0.00  0.00    +0.000 HD
ATOM     21  H   UNL     1      45.455   0.877   7.875  0.00  0.00    +0.000 HD
ENDBRANCH  18  19
ENDBRANCH  15  18
ENDBRANCH   1  12
TORSDOF 4
ENDMDL
MODEL 9
REMARK VINA RESULT:    -5.506      1.890      3.486
REMARK INTER + INTRA:          -7.056
REMARK INTER:                  -6.738
REMARK INTRA:                  -0.318
REMARK UNBOUND:                -0.424
REMARK  Name = 
REMARK  5 active torsions:
REMARK  status: ('A' for Active; 'I' for Inactive)
REMARK    1  A    between atoms: C_1  and  C_2
REMARK    2  A    between atoms: N_9  and  C_10
REMARK    3  A    between atoms: C_10  and  C_11
REMARK    4  A    between atoms: C_14  and  C_15
REMARK    5  A    between atoms: C_15  and  N_16
REMARK                            x       y       z     vdW  Elec       q    Type
REMARK                         _______ _______ _______ _____ _____    ______ ____
ROOT
ATOM      1  C   UNL     1      43.929   6.022  11.705  0.00  0.00    +0.000 C 
ENDROOT
BRANCH   1  10
ATOM      2  C   UNL     1      49.506   7.080  15.148  0.00  0.00    +0.000 C 
ATOM      3  C   UNL     1      48.272   7.046  14.302  0.00  0.00    +0.000 A 
ATOM      4  C   UNL     1      47.561   5.866  14.088  0.00  0.00    +0.000 A 
ATOM      5  N   UNL     1      46.425   5.736  13.356  0.00  0.00    +0.000 NA
ATOM      6  C   UNL     1      46.007   6.901  12.819  0.00  0.00    +0.000 A 
ATOM      7  C   UNL     1      46.626   8.143  12.936  0.00  0.00    +0.000 A 
ATOM      8  C   UNL     1      45.846   9.072  12.196  0.00  0.00    +0.000 A 
ATOM      9  C   UNL     1      44.778   8.386  11.660  0.00  0.00    +0.000 A 
ATOM     10  N   UNL     1      44.873   7.073  12.061  0.00  0.00    +0.000 N 
ATOM     11  C   UNL     1      47.798   8.217  13.703  0.00  0.00    +0.000 A 
ENDBRANCH   1  10
BRANCH   1  12
ATOM     12  C   UNL     1      44.515   5.078  10.693  0.00  0.00    +0.000 A 
ATOM     13  C   UNL     1      45.376   5.514   9.683  0.00  0.00    +0.000 A 
ATOM     14  C   UNL     1      45.836   4.610   8.728  0.00  0.00    +0.000 A 
ATOM     15  C   UNL     1      45.426   3.281   8.803  0.00  0.00    +0.000 A 
ATOM     16  N   UNL     1      44.610   2.830   9.787  0.00  0.00    +0.000 NA
ATOM     17  C   UNL     1      44.171   3.731  10.696  0.00  0.00    +0.000 A 
BRANCH  15  18
ATOM     18  C   UNL     1      45.854   2.286   7.745  0.00  0.00    +0.000 C 
BRANCH  18  19
ATOM     19  N   UNL     1      46.155   0.961   8.302  0.00  0.00    +0.000 NA
ATOM     20  H   UNL     1      45.455   0.312   7.942  0.00  0.00    +0.000 HD
ATOM     21  H   UNL     1      46.011   0.994   9.309  0.00  0.00    +0.000 HD
ENDBRANCH  18  19
ENDBRANCH  15  18
ENDBRANCH   1  12
TORSDOF 4
ENDMDL
