MODEL 1
REMARK VINA RESULT:    -8.357      0.000      0.000
REMARK INTER + INTRA:         -10.420
REMARK INTER:                 -10.311
REMARK INTRA:                  -0.109
REMARK UNBOUND:                -0.109
REMARK  Name = 
REMARK  5 active torsions:
REMARK  status: ('A' for Active; 'I' for Inactive)
REMARK    1  A    between atoms: C_1  and  C_2
REMARK    2  A    between atoms: C_4  and  C_5
REMARK    3  A    between atoms: C_10  and  C_11
REMARK    4  A    between atoms: C_11  and  C_12
REMARK    5  A    between atoms: C_15  and  C_16
REMARK                            x       y       z     vdW  Elec       q    Type
REMARK                         _______ _______ _______ _____ _____    ______ ____
ROOT
ATOM      1  C   UNL     1      44.072   4.439  11.167  0.00  0.00    +0.000 C 
ATOM      2  C   UNL     1      42.652   4.859  11.500  0.00  0.00    +0.000 C 
ATOM      3  C   UNL     1      43.232   3.652  12.165  0.00  0.00    +0.000 C 
ENDROOT
BRANCH   1  10
ATOM      4  C   UNL     1      46.284   3.330  13.010  0.00  0.00    +0.000 C 
ATOM      5  C   UNL     1      46.213   4.788  12.636  0.00  0.00    +0.000 A 
ATOM      6  C   UNL     1      47.091   5.686  13.286  0.00  0.00    +0.000 A 
ATOM      7  C   UNL     1      47.062   7.057  13.004  0.00  0.00    +0.000 A 
ATOM      8  C   UNL     1      46.182   7.526  12.031  0.00  0.00    +0.000 A 
ATOM      9  C   UNL     1      45.315   6.647  11.384  0.00  0.00    +0.000 A 
ATOM     10  C   UNL     1      45.269   5.270  11.692  0.00  0.00    +0.000 A 
BRANCH   7  11
ATOM     11  C   UNL     1      47.936   8.050  13.684  0.00  0.00    +0.000 C 
ATOM     12  N   UNL     1      47.346   8.974  14.502  0.00  0.00    +0.000 N 
ATOM     13  O   UNL     1      49.146   8.072  13.499  0.00  0.00    +0.000 OA
ATOM     14  H   UNL     1      46.360   9.167  14.482  0.00  0.00    +0.000 HD
ATOM     15  H   UNL     1      47.959   9.704  14.849  0.00  0.00    +0.000 HD
ENDBRANCH   7  11
ENDBRANCH   1  10
BRANCH   1  16
ATOM     16  C   UNL     1      44.415   3.769   9.835  0.00  0.00    +0.000 A 
ATOM     17  C   UNL     1      44.923   4.476   8.743  0.00  0.00    +0.000 A 
ATOM     18  C   UNL     1      45.712   3.821   7.798  0.00  0.00    +0.000 A 
ATOM     19  C   UNL     1      45.959   2.458   7.942  0.00  0.00    +0.000 A 
ATOM     20  N   UNL     1      45.275   1.711   8.853  0.00  0.00    +0.000 NA
ATOM     21  C   UNL     1      44.525   2.379   9.757  0.00  0.00    +0.000 A 
BRANCH  19  22
ATOM     22  C   UNL     1      47.138   1.819   7.227  0.00  0.00    +0.000 C 
ATOM     23  F   UNL     1      46.887   1.572   5.904  0.00  0.00    +0.000 F 
ATOM     24  F   UNL     1      48.247   2.616   7.230  0.00  0.00    +0.000 F 
ATOM     25  F   UNL     1      47.527   0.626   7.755  0.00  0.00    +0.000 F 
ENDBRANCH  19  22
ENDBRANCH   1  16
TORSDOF 4
ENDMDL
MODEL 2
REMARK VINA RESULT:    -8.018      1.400      2.131
REMARK INTER + INTRA:         -10.002
REMARK INTER:                  -9.807
REMARK INTRA:                  -0.195
REMARK UNBOUND:                -0.109
REMARK  Name = 
REMARK  5 active torsions:
REMARK  status: ('A' for Active; 'I' for Inactive)
REMARK    1  A    between atoms: C_1  and  C_2
REMARK    2  A    between atoms: C_4  and  C_5
REMARK    3  A    between atoms: C_10  and  C_11
REMARK    4  A    between atoms: C_11  and  C_12
REMARK    5  A    between atoms: C_15  and  C_16
REMARK                            x       y       z     vdW  Elec       q    Type
REMARK                         _______ _______ _______ _____ _____    ______ ____
ROOT
ATOM      1  C   UNL     1      44.873   4.064  11.549  0.00  0.00    +0.000 C 
ATOM      2  C   UNL     1      43.989   3.210  12.441  0.00  0.00    +0.000 C 
ATOM      3  C   UNL     1      45.471   3.016  12.480  0.00  0.00    +0.000 C 
ENDROOT
BRANCH   1  10
ATOM      4  C   UNL     1      42.666   6.215  11.393  0.00  0.00    +0.000 C 
ATOM      5  C   UNL     1      44.103   6.565  11.686  0.00  0.00    +0.000 A 
ATOM      6  C   UNL     1      44.462   7.932  11.722  0.00  0.00    +0.000 A 
ATOM      7  C   UNL     1      45.783   8.326  11.966  0.00  0.00    +0.000 A 
ATOM      8  C   UNL     1      46.742   7.348  12.220  0.00  0.00    +0.000 A 
ATOM      9  C   UNL     1      46.396   5.998  12.186  0.00  0.00    +0.000 A 
ATOM     10  C   UNL     1      45.089   5.562  11.878  0.00  0.00    +0.000 A 
BRANCH   7  11
ATOM     11  C   UNL     1      46.224   9.747  11.979  0.00  0.00    +0.000 C 
ATOM     12  N   UNL     1      45.279  10.712  12.190  0.00  0.00    +0.000 N 
ATOM     13  O   UNL     1      47.391  10.058  11.776  0.00  0.00    +0.000 OA
ATOM     14  H   UNL     1      44.293  10.538  12.099  0.00  0.00    +0.000 HD
ATOM     15  H   UNL     1      45.598  11.668  12.072  0.00  0.00    +0.000 HD
ENDBRANCH   7  11
ENDBRANCH   1  10
BRANCH   1  16
ATOM     16  C   UNL     1      44.962   3.817  10.043  0.00  0.00    +0.000 A 
ATOM     17  C   UNL     1      45.506   4.749   9.156  0.00  0.00    +0.000 A 
ATOM     18  C   UNL     1      46.068   4.318   7.954  0.00  0.00    +0.000 A 
ATOM     19  C   UNL     1      46.051   2.962   7.640  0.00  0.00    +0.000 A 
ATOM     20  N   UNL     1      45.312   2.079   8.370  0.00  0.00    +0.000 NA
ATOM     21  C   UNL     1      44.788   2.528   9.531  0.00  0.00    +0.000 A 
BRANCH  19  22
ATOM     22  C   UNL     1      47.016   2.408   6.604  0.00  0.00    +0.000 C 
ATOM     23  F   UNL     1      46.774   2.885   5.344  0.00  0.00    +0.000 F 
ATOM     24  F   UNL     1      48.313   2.747   6.863  0.00  0.00    +0.000 F 
ATOM     25  F   UNL     1      46.992   1.052   6.493  0.00  0.00    +0.000 F 
ENDBRANCH  19  22
ENDBRANCH   1  16
TORSDOF 4
ENDMDL
MODEL 3
REMARK VINA RESULT:    -7.777      1.169      1.832
REMARK INTER + INTRA:          -9.705
REMARK INTER:                  -9.597
REMARK INTRA:                  -0.107
REMARK UNBOUND:                -0.109
REMARK  Name = 
REMARK  5 active torsions:
REMARK  status: ('A' for Active; 'I' for Inactive)
REMARK    1  A    between atoms: C_1  and  C_2
REMARK    2  A    between atoms: C_4  and  C_5
REMARK    3  A    between atoms: C_10  and  C_11
REMARK    4  A    between atoms: C_11  and  C_12
REMARK    5  A    between atoms: C_15  and  C_16
REMARK                            x       y       z     vdW  Elec       q    Type
REMARK                         _______ _______ _______ _____ _____    ______ ____
ROOT
ATOM      1  C   UNL     1      44.095   4.697  11.766  0.00  0.00    +0.000 C 
ATOM      2  C   UNL     1      42.703   5.093  12.225  0.00  0.00    +0.000 C 
ATOM      3  C   UNL     1      43.286   3.799  12.694  0.00  0.00    +0.000 C 
ENDROOT
BRANCH   1  10
ATOM      4  C   UNL     1      44.636   7.717  11.436  0.00  0.00    +0.000 C 
ATOM      5  C   UNL     1      45.640   6.791  12.074  0.00  0.00    +0.000 A 
ATOM      6  C   UNL     1      46.923   7.303  12.372  0.00  0.00    +0.000 A 
ATOM      7  C   UNL     1      47.911   6.492  12.942  0.00  0.00    +0.000 A 
ATOM      8  C   UNL     1      47.598   5.172  13.260  0.00  0.00    +0.000 A 
ATOM      9  C   UNL     1      46.334   4.660  12.970  0.00  0.00    +0.000 A 
ATOM     10  C   UNL     1      45.336   5.429  12.334  0.00  0.00    +0.000 A 
BRANCH   7  11
ATOM     11  C   UNL     1      49.288   6.968  13.243  0.00  0.00    +0.000 C 
ATOM     12  N   UNL     1      50.069   7.380  12.200  0.00  0.00    +0.000 N 
ATOM     13  O   UNL     1      49.733   6.964  14.384  0.00  0.00    +0.000 OA
ATOM     14  H   UNL     1      49.858   7.160  11.242  0.00  0.00    +0.000 HD
ATOM     15  H   UNL     1      51.037   7.581  12.432  0.00  0.00    +0.000 HD
ENDBRANCH   7  11
ENDBRANCH   1  10
BRANCH   1  16
ATOM     16  C   UNL     1      44.355   4.205  10.342  0.00  0.00    +0.000 A 
ATOM     17  C   UNL     1      45.038   4.968   9.392  0.00  0.00    +0.000 A 
ATOM     18  C   UNL     1      45.722   4.336   8.354  0.00  0.00    +0.000 A 
ATOM     19  C   UNL     1      45.690   2.947   8.263  0.00  0.00    +0.000 A 
ATOM     20  N   UNL     1      44.835   2.210   9.026  0.00  0.00    +0.000 NA
ATOM     21  C   UNL     1      44.193   2.854  10.026  0.00  0.00    +0.000 A 
BRANCH  19  22
ATOM     22  C   UNL     1      46.751   2.213   7.457  0.00  0.00    +0.000 C 
ATOM     23  F   UNL     1      46.363   1.968   6.168  0.00  0.00    +0.000 F 
ATOM     24  F   UNL     1      47.910   2.926   7.345  0.00  0.00    +0.000 F 
ATOM     25  F   UNL     1      47.098   1.002   7.972  0.00  0.00    +0.000 F 
ENDBRANCH  19  22
ENDBRANCH   1  16
TORSDOF 4
ENDMDL
MODEL 4
REMARK VINA RESULT:    -7.630      4.481      6.647
REMARK INTER + INTRA:          -9.524
REMARK INTER:                  -9.405
REMARK INTRA:                  -0.119
REMARK UNBOUND:                -0.109
REMARK  Name = 
REMARK  5 active torsions:
REMARK  status: ('A' for Active; 'I' for Inactive)
REMARK    1  A    between atoms: C_1  and  C_2
REMARK    2  A    between atoms: C_4  and  C_5
REMARK    3  A    between atoms: C_10  and  C_11
REMARK    4  A    between atoms: C_11  and  C_12
REMARK    5  A    between atoms: C_15  and  C_16
REMARK                            x       y       z     vdW  Elec       q    Type
REMARK                         _______ _______ _______ _____ _____    ______ ____
ROOT
ATOM      1  C   UNL     1      44.794   4.962  11.408  0.00  0.00    +0.000 C 
ATOM      2  C   UNL     1      43.359   4.926  11.900  0.00  0.00    +0.000 C 
ATOM      3  C   UNL     1      43.965   6.237  11.514  0.00  0.00    +0.000 C 
ENDROOT
BRANCH   1  10
ATOM      4  C   UNL     1      43.968   2.178  10.364  0.00  0.00    +0.000 C 
ATOM      5  C   UNL     1      44.869   3.093   9.574  0.00  0.00    +0.000 A 
ATOM      6  C   UNL     1      45.477   2.581   8.405  0.00  0.00    +0.000 A 
ATOM      7  C   UNL     1      46.343   3.368   7.637  0.00  0.00    +0.000 A 
ATOM      8  C   UNL     1      46.567   4.690   8.015  0.00  0.00    +0.000 A 
ATOM      9  C   UNL     1      45.971   5.202   9.167  0.00  0.00    +0.000 A 
ATOM     10  C   UNL     1      45.146   4.417  10.002  0.00  0.00    +0.000 A 
BRANCH   7  11
ATOM     11  C   UNL     1      47.037   2.870   6.419  0.00  0.00    +0.000 C 
ATOM     12  N   UNL     1      48.390   2.681   6.480  0.00  0.00    +0.000 N 
ATOM     13  O   UNL     1      46.431   2.663   5.375  0.00  0.00    +0.000 OA
ATOM     14  H   UNL     1      48.962   3.077   7.205  0.00  0.00    +0.000 HD
ATOM     15  H   UNL     1      48.840   2.458   5.598  0.00  0.00    +0.000 HD
ENDBRANCH   7  11
ENDBRANCH   1  10
BRANCH   1  16
ATOM     16  C   UNL     1      45.972   4.793  12.369  0.00  0.00    +0.000 A 
ATOM     17  C   UNL     1      46.515   5.857  13.092  0.00  0.00    +0.000 A 
ATOM     18  C   UNL     1      47.162   5.615  14.304  0.00  0.00    +0.000 A 
ATOM     19  C   UNL     1      47.284   4.306  14.762  0.00  0.00    +0.000 A 
ATOM     20  N   UNL     1      46.983   3.247  13.959  0.00  0.00    +0.000 NA
ATOM     21  C   UNL     1      46.351   3.518  12.796  0.00  0.00    +0.000 A 
BRANCH  19  22
ATOM     22  C   UNL     1      47.561   4.037  16.233  0.00  0.00    +0.000 C 
ATOM     23  F   UNL     1      48.765   4.538  16.647  0.00  0.00    +0.000 F 
ATOM     24  F   UNL     1      46.638   4.620  17.054  0.00  0.00    +0.000 F 
ATOM     25  F   UNL     1      47.581   2.717  16.561  0.00  0.00    +0.000 F 
ENDBRANCH  19  22
ENDBRANCH   1  16
TORSDOF 4
ENDMDL
MODEL 5
REMARK VINA RESULT:    -7.222      1.604      2.042
REMARK INTER + INTRA:          -9.020
REMARK INTER:                  -8.704
REMARK INTRA:                  -0.316
REMARK UNBOUND:                -0.109
REMARK  Name = 
REMARK  5 active torsions:
REMARK  status: ('A' for Active; 'I' for Inactive)
REMARK    1  A    between atoms: C_1  and  C_2
REMARK    2  A    between atoms: C_4  and  C_5
REMARK    3  A    between atoms: C_10  and  C_11
REMARK    4  A    between atoms: C_11  and  C_12
REMARK    5  A    between atoms: C_15  and  C_16
REMARK                            x       y       z     vdW  Elec       q    Type
REMARK                         _______ _______ _______ _____ _____    ______ ____
ROOT
ATOM      1  C   UNL     1      44.459   5.508  10.935  0.00  0.00    +0.000 C 
ATOM      2  C   UNL     1      43.595   6.754  11.007  0.00  0.00    +0.000 C 
ATOM      3  C   UNL     1      43.006   5.435  11.390  0.00  0.00    +0.000 C 
ENDROOT
BRANCH   1  10
ATOM      4  C   UNL     1      44.944   2.842  12.413  0.00  0.00    +0.000 C 
ATOM      5  C   UNL     1      45.719   4.092  12.744  0.00  0.00    +0.000 A 
ATOM      6  C   UNL     1      46.569   4.068  13.874  0.00  0.00    +0.000 A 
ATOM      7  C   UNL     1      47.300   5.201  14.252  0.00  0.00    +0.000 A 
ATOM      8  C   UNL     1      47.217   6.349  13.468  0.00  0.00    +0.000 A 
ATOM      9  C   UNL     1      46.382   6.380  12.352  0.00  0.00    +0.000 A 
ATOM     10  C   UNL     1      45.579   5.279  11.980  0.00  0.00    +0.000 A 
BRANCH   7  11
ATOM     11  C   UNL     1      48.180   5.244  15.451  0.00  0.00    +0.000 C 
ATOM     12  N   UNL     1      47.918   4.375  16.474  0.00  0.00    +0.000 N 
ATOM     13  O   UNL     1      49.096   6.051  15.545  0.00  0.00    +0.000 OA
ATOM     14  H   UNL     1      47.043   3.889  16.563  0.00  0.00    +0.000 HD
ATOM     15  H   UNL     1      48.462   4.519  17.318  0.00  0.00    +0.000 HD
ENDBRANCH   7  11
ENDBRANCH   1  10
BRANCH   1  16
ATOM     16  C   UNL     1      44.822   4.864   9.596  0.00  0.00    +0.000 A 
ATOM     17  C   UNL     1      45.928   5.262   8.842  0.00  0.00    +0.000 A 
ATOM     18  C   UNL     1      46.538   4.358   7.973  0.00  0.00    +0.000 A 
ATOM     19  C   UNL     1      46.013   3.074   7.846  0.00  0.00    +0.000 A 
ATOM     20  N   UNL     1      44.801   2.752   8.380  0.00  0.00    +0.000 NA
ATOM     21  C   UNL     1      44.243   3.649   9.222  0.00  0.00    +0.000 A 
BRANCH  19  22
ATOM     22  C   UNL     1      46.873   1.952   7.285  0.00  0.00    +0.000 C 
ATOM     23  F   UNL     1      48.205   2.264   7.264  0.00  0.00    +0.000 F 
ATOM     24  F   UNL     1      46.792   0.809   8.028  0.00  0.00    +0.000 F 
ATOM     25  F   UNL     1      46.559   1.598   6.009  0.00  0.00    +0.000 F 
ENDBRANCH  19  22
ENDBRANCH   1  16
TORSDOF 4
ENDMDL
MODEL 6
REMARK VINA RESULT:    -6.165      5.702      8.397
REMARK INTER + INTRA:          -7.716
REMARK INTER:                  -7.165
REMARK INTRA:                  -0.551
REMARK UNBOUND:                -0.109
REMARK  Name = 
REMARK  5 active torsions:
REMARK  status: ('A' for Active; 'I' for Inactive)
REMARK    1  A    between atoms: C_1  and  C_2
REMARK    2  A    between atoms: C_4  and  C_5
REMARK    3  A    between atoms: C_10  and  C_11
REMARK    4  A    between atoms: C_11  and  C_12
REMARK    5  A    between atoms: C_15  and  C_16
REMARK                            x       y       z     vdW  Elec       q    Type
REMARK                         _______ _______ _______ _____ _____    ______ ____
ROOT
ATOM      1  C   UNL     1      48.783   8.032  12.882  0.00  0.00    +0.000 C 
ATOM      2  C   UNL     1      49.252   9.013  11.823  0.00  0.00    +0.000 C 
ATOM      3  C   UNL     1      49.973   7.714  11.985  0.00  0.00    +0.000 C 
ENDROOT
BRANCH   1  10
ATOM      4  C   UNL     1      46.042   9.338  12.329  0.00  0.00    +0.000 C 
ATOM      5  C   UNL     1      46.190   7.854  12.549  0.00  0.00    +0.000 A 
ATOM      6  C   UNL     1      45.015   7.078  12.667  0.00  0.00    +0.000 A 
ATOM      7  C   UNL     1      45.079   5.698  12.896  0.00  0.00    +0.000 A 
ATOM      8  C   UNL     1      46.328   5.083  12.961  0.00  0.00    +0.000 A 
ATOM      9  C   UNL     1      47.492   5.842  12.844  0.00  0.00    +0.000 A 
ATOM     10  C   UNL     1      47.465   7.244  12.680  0.00  0.00    +0.000 A 
BRANCH   7  11
ATOM     11  C   UNL     1      43.876   4.839  13.064  0.00  0.00    +0.000 C 
ATOM     12  N   UNL     1      42.650   5.444  13.076  0.00  0.00    +0.000 N 
ATOM     13  O   UNL     1      43.970   3.628  13.222  0.00  0.00    +0.000 OA
ATOM     14  H   UNL     1      42.532   6.432  13.215  0.00  0.00    +0.000 HD
ATOM     15  H   UNL     1      41.869   4.841  13.313  0.00  0.00    +0.000 HD
ENDBRANCH   7  11
ENDBRANCH   1  10
BRANCH   1  16
ATOM     16  C   UNL     1      49.053   8.273  14.368  0.00  0.00    +0.000 A 
ATOM     17  C   UNL     1      48.506   9.349  15.070  0.00  0.00    +0.000 A 
ATOM     18  C   UNL     1      48.305   9.251  16.447  0.00  0.00    +0.000 A 
ATOM     19  C   UNL     1      48.682   8.085  17.109  0.00  0.00    +0.000 A 
ATOM     20  N   UNL     1      49.436   7.135  16.489  0.00  0.00    +0.000 NA
ATOM     21  C   UNL     1      49.605   7.258  15.154  0.00  0.00    +0.000 A 
BRANCH  19  22
ATOM     22  C   UNL     1      48.090   7.758  18.471  0.00  0.00    +0.000 C 
ATOM     23  F   UNL     1      47.570   6.494  18.534  0.00  0.00    +0.000 F 
ATOM     24  F   UNL     1      49.020   7.805  19.471  0.00  0.00    +0.000 F 
ATOM     25  F   UNL     1      47.081   8.589  18.851  0.00  0.00    +0.000 F 
ENDBRANCH  19  22
ENDBRANCH   1  16
TORSDOF 4
ENDMDL
MODEL 7
REMARK VINA RESULT:    -5.978      3.518      5.089
REMARK INTER + INTRA:          -7.485
REMARK INTER:                  -7.192
REMARK INTRA:                  -0.293
REMARK UNBOUND:                -0.109
REMARK  Name = 
REMARK  5 active torsions:
REMARK  status: ('A' for Active; 'I' for Inactive)
REMARK    1  A    between atoms: C_1  and  C_2
REMARK    2  A    between atoms: C_4  and  C_5
REMARK    3  A    between atoms: C_10  and  C_11
REMARK    4  A    between atoms: C_11  and  C_12
REMARK    5  A    between atoms: C_15  and  C_16
REMARK                            x       y       z     vdW  Elec       q    Type
REMARK                         _______ _______ _______ _____ _____    ______ ____
ROOT
ATOM      1  C   UNL     1      47.085   7.666  12.367  0.00  0.00    +0.000 C 
ATOM      2  C   UNL     1      46.316   8.873  11.862  0.00  0.00    +0.000 C 
ATOM      3  C   UNL     1      46.210   8.491  13.303  0.00  0.00    +0.000 C 
ENDROOT
BRANCH   1  10
ATOM      4  C   UNL     1      48.575   7.276  15.041  0.00  0.00    +0.000 C 
ATOM      5  C   UNL     1      49.292   7.681  13.779  0.00  0.00    +0.000 A 
ATOM      6  C   UNL     1      50.654   8.048  13.875  0.00  0.00    +0.000 A 
ATOM      7  C   UNL     1      51.374   8.456  12.746  0.00  0.00    +0.000 A 
ATOM      8  C   UNL     1      50.741   8.453  11.505  0.00  0.00    +0.000 A 
ATOM      9  C   UNL     1      49.399   8.090  11.402  0.00  0.00    +0.000 A 
ATOM     10  C   UNL     1      48.624   7.738  12.528  0.00  0.00    +0.000 A 
BRANCH   7  11
ATOM     11  C   UNL     1      52.797   8.889  12.796  0.00  0.00    +0.000 C 
ATOM     12  N   UNL     1      53.760   7.924  12.901  0.00  0.00    +0.000 N 
ATOM     13  O   UNL     1      53.108  10.073  12.776  0.00  0.00    +0.000 OA
ATOM     14  H   UNL     1      53.557   6.981  13.183  0.00  0.00    +0.000 HD
ATOM     15  H   UNL     1      54.704   8.265  13.053  0.00  0.00    +0.000 HD
ENDBRANCH   7  11
ENDBRANCH   1  10
BRANCH   1  16
ATOM     16  C   UNL     1      46.637   6.240  12.041  0.00  0.00    +0.000 A 
ATOM     17  C   UNL     1      46.555   5.235  13.007  0.00  0.00    +0.000 A 
ATOM     18  C   UNL     1      45.667   4.174  12.833  0.00  0.00    +0.000 A 
ATOM     19  C   UNL     1      44.892   4.116  11.677  0.00  0.00    +0.000 A 
ATOM     20  N   UNL     1      45.136   4.945  10.623  0.00  0.00    +0.000 NA
ATOM     21  C   UNL     1      45.997   5.965  10.830  0.00  0.00    +0.000 A 
BRANCH  19  22
ATOM     22  C   UNL     1      43.631   3.267  11.647  0.00  0.00    +0.000 C 
ATOM     23  F   UNL     1      42.499   4.006  11.433  0.00  0.00    +0.000 F 
ATOM     24  F   UNL     1      43.644   2.346  10.640  0.00  0.00    +0.000 F 
ATOM     25  F   UNL     1      43.403   2.572  12.795  0.00  0.00    +0.000 F 
ENDBRANCH  19  22
ENDBRANCH   1  16
TORSDOF 4
ENDMDL
MODEL 8
REMARK VINA RESULT:    -5.941      5.803      7.891
REMARK INTER + INTRA:          -7.439
REMARK INTER:                  -7.193
REMARK INTRA:                  -0.246
REMARK UNBOUND:                -0.109
REMARK  Name = 
REMARK  5 active torsions:
REMARK  status: ('A' for Active; 'I' for Inactive)
REMARK    1  A    between atoms: C_1  and  C_2
REMARK    2  A    between atoms: C_4  and  C_5
REMARK    3  A    between atoms: C_10  and  C_11
REMARK    4  A    between atoms: C_11  and  C_12
REMARK    5  A    between atoms: C_15  and  C_16
REMARK                            x       y       z     vdW  Elec       q    Type
REMARK                         _______ _______ _______ _____ _____    ______ ____
ROOT
ATOM      1  C   UNL     1      48.353   5.125  17.309  0.00  0.00    +0.000 C 
ATOM      2  C   UNL     1      48.059   6.292  18.234  0.00  0.00    +0.000 C 
ATOM      3  C   UNL     1      47.128   5.123  18.216  0.00  0.00    +0.000 C 
ENDROOT
BRANCH   1  10
ATOM      4  C   UNL     1      51.171   6.024  18.188  0.00  0.00    +0.000 C 
ATOM      5  C   UNL     1      50.843   4.578  17.912  0.00  0.00    +0.000 A 
ATOM      6  C   UNL     1      51.905   3.646  17.898  0.00  0.00    +0.000 A 
ATOM      7  C   UNL     1      51.675   2.292  17.625  0.00  0.00    +0.000 A 
ATOM      8  C   UNL     1      50.368   1.861  17.410  0.00  0.00    +0.000 A 
ATOM      9  C   UNL     1      49.315   2.775  17.423  0.00  0.00    +0.000 A 
ATOM     10  C   UNL     1      49.518   4.157  17.628  0.00  0.00    +0.000 A 
BRANCH   7  11
ATOM     11  C   UNL     1      52.758   1.274  17.562  0.00  0.00    +0.000 C 
ATOM     12  N   UNL     1      52.505   0.031  18.069  0.00  0.00    +0.000 N 
ATOM     13  O   UNL     1      53.862   1.540  17.101  0.00  0.00    +0.000 OA
ATOM     14  H   UNL     1      51.732  -0.159  18.684  0.00  0.00    +0.000 HD
ATOM     15  H   UNL     1      53.304  -0.593  18.117  0.00  0.00    +0.000 HD
ENDBRANCH   7  11
ENDBRANCH   1  10
BRANCH   1  16
ATOM     16  C   UNL     1      48.124   5.226  15.800  0.00  0.00    +0.000 A 
ATOM     17  C   UNL     1      47.223   4.407  15.116  0.00  0.00    +0.000 A 
ATOM     18  C   UNL     1      46.640   4.853  13.930  0.00  0.00    +0.000 A 
ATOM     19  C   UNL     1      46.990   6.104  13.427  0.00  0.00    +0.000 A 
ATOM     20  N   UNL     1      48.041   6.802  13.943  0.00  0.00    +0.000 NA
ATOM     21  C   UNL     1      48.577   6.345  15.095  0.00  0.00    +0.000 A 
BRANCH  19  22
ATOM     22  C   UNL     1      46.082   6.804  12.428  0.00  0.00    +0.000 C 
ATOM     23  F   UNL     1      45.777   6.021  11.348  0.00  0.00    +0.000 F 
ATOM     24  F   UNL     1      44.874   7.142  12.968  0.00  0.00    +0.000 F 
ATOM     25  F   UNL     1      46.603   7.951  11.914  0.00  0.00    +0.000 F 
ENDBRANCH  19  22
ENDBRANCH   1  16
TORSDOF 4
ENDMDL
MODEL 9
REMARK VINA RESULT:    -5.835      3.279      5.072
REMARK INTER + INTRA:          -7.308
REMARK INTER:                  -6.835
REMARK INTRA:                  -0.473
REMARK UNBOUND:                -0.109
REMARK  Name = 
REMARK  5 active torsions:
REMARK  status: ('A' for Active; 'I' for Inactive)
REMARK    1  A    between atoms: C_1  and  C_2
REMARK    2  A    between atoms: C_4  and  C_5
REMARK    3  A    between atoms: C_10  and  C_11
REMARK    4  A    between atoms: C_11  and  C_12
REMARK    5  A    between atoms: C_15  and  C_16
REMARK                            x       y       z     vdW  Elec       q    Type
REMARK                         _______ _______ _______ _____ _____    ______ ____
ROOT
ATOM      1  C   UNL     1      46.796   7.989  12.677  0.00  0.00    +0.000 C 
ATOM      2  C   UNL     1      46.322   9.157  11.832  0.00  0.00    +0.000 C 
ATOM      3  C   UNL     1      45.627   8.860  13.121  0.00  0.00    +0.000 C 
ENDROOT
BRANCH   1  10
ATOM      4  C   UNL     1      49.584   7.874  11.359  0.00  0.00    +0.000 C 
ATOM      5  C   UNL     1      49.409   7.909  12.856  0.00  0.00    +0.000 A 
ATOM      6  C   UNL     1      50.552   7.715  13.664  0.00  0.00    +0.000 A 
ATOM      7  C   UNL     1      50.458   7.712  15.061  0.00  0.00    +0.000 A 
ATOM      8  C   UNL     1      49.219   7.949  15.653  0.00  0.00    +0.000 A 
ATOM      9  C   UNL     1      48.087   8.142  14.862  0.00  0.00    +0.000 A 
ATOM     10  C   UNL     1      48.133   8.085  13.453  0.00  0.00    +0.000 A 
BRANCH   7  11
ATOM     11  C   UNL     1      51.620   7.477  15.959  0.00  0.00    +0.000 C 
ATOM     12  N   UNL     1      52.765   6.968  15.412  0.00  0.00    +0.000 N 
ATOM     13  O   UNL     1      51.555   7.698  17.162  0.00  0.00    +0.000 OA
ATOM     14  H   UNL     1      52.787   6.529  14.508  0.00  0.00    +0.000 HD
ATOM     15  H   UNL     1      53.488   6.710  16.075  0.00  0.00    +0.000 HD
ENDBRANCH   7  11
ENDBRANCH   1  10
BRANCH   1  16
ATOM     16  C   UNL     1      46.499   6.543  12.279  0.00  0.00    +0.000 A 
ATOM     17  C   UNL     1      46.396   5.509  13.211  0.00  0.00    +0.000 A 
ATOM     18  C   UNL     1      45.617   4.388  12.922  0.00  0.00    +0.000 A 
ATOM     19  C   UNL     1      44.976   4.303  11.689  0.00  0.00    +0.000 A 
ATOM     20  N   UNL     1      45.264   5.176  10.684  0.00  0.00    +0.000 NA
ATOM     21  C   UNL     1      46.015   6.253  11.000  0.00  0.00    +0.000 A 
BRANCH  19  22
ATOM     22  C   UNL     1      43.796   3.361  11.509  0.00  0.00    +0.000 C 
ATOM     23  F   UNL     1      43.930   2.544  10.419  0.00  0.00    +0.000 F 
ATOM     24  F   UNL     1      43.639   2.510  12.566  0.00  0.00    +0.000 F 
ATOM     25  F   UNL     1      42.601   3.993  11.349  0.00  0.00    +0.000 F 
ENDBRANCH  19  22
ENDBRANCH   1  16
TORSDOF 4
ENDMDL
