MODEL 1
REMARK VINA RESULT:    -8.100      0.000      0.000
REMARK INTER + INTRA:         -12.111
REMARK INTER:                 -10.941
REMARK INTRA:                  -1.171
REMARK UNBOUND:                -1.171
REMARK  Name = 
REMARK  6 active torsions:
REMARK  status: ('A' for Active; 'I' for Inactive)
REMARK    1  A    between atoms: C_2  and  C_25
REMARK    2  A    between atoms: N_3  and  C_4
REMARK    3  A    between atoms: C_4  and  C_5
REMARK    4  A    between atoms: C_8  and  C_9
REMARK    5  A    between atoms: C_9  and  N_10
REMARK    6  A    between atoms: C_11  and  C_13
REMARK                            x       y       z     vdW  Elec       q    Type
REMARK                         _______ _______ _______ _____ _____    ______ ____
ROOT
ATOM      1  C   UNL     1      44.859   5.753  10.856  0.00  0.00    +0.000 A 
ATOM      2  C   UNL     1      46.195   6.067  10.575  0.00  0.00    +0.000 A 
ATOM      3  C   UNL     1      46.933   6.884  11.438  0.00  0.00    +0.000 A 
ATOM      4  C   UNL     1      46.354   7.388  12.611  0.00  0.00    +0.000 A 
ATOM      5  C   UNL     1      45.015   7.083  12.885  0.00  0.00    +0.000 A 
ATOM      6  C   UNL     1      44.278   6.266  12.023  0.00  0.00    +0.000 A 
ENDROOT
BRANCH   1   7
ATOM      7  C   UNL     1      44.056   4.899   9.912  0.00  0.00    +0.000 C 
BRANCH   7  10
ATOM      8  O   UNL     1      44.481   2.118  10.010  0.00  0.00    +0.000 OA
ATOM      9  C   UNL     1      45.012   2.792   9.141  0.00  0.00    +0.000 C 
ATOM     10  N   UNL     1      44.873   4.153   8.991  0.00  0.00    +0.000 N 
ATOM     11  H   UNL     1      45.358   4.608   8.221  0.00  0.00    +0.000 HD
BRANCH   9  12
ATOM     12  C   UNL     1      45.906   2.126   8.130  0.00  0.00    +0.000 C 
ATOM     13  C   UNL     1      46.441   2.841   6.962  0.00  0.00    +0.000 C 
ATOM     14  C   UNL     1      47.236   1.852   6.308  0.00  0.00    +0.000 C 
ATOM     15  C   UNL     1      47.121   0.747   7.059  0.00  0.00    +0.000 C 
ATOM     16  N   UNL     1      46.313   0.878   8.181  0.00  0.00    +0.000 NA
ENDBRANCH   9  12
ENDBRANCH   7  10
ENDBRANCH   1   7
BRANCH   4  17
ATOM     17  C   UNL     1      47.141   8.271  13.546  0.00  0.00    +0.000 C 
BRANCH  17  18
ATOM     18  N   UNL     1      47.566   7.549  14.718  0.00  0.00    +0.000 N 
ATOM     19  C   UNL     1      48.789   6.930  14.769  0.00  0.00    +0.000 C 
ATOM     20  O   UNL     1      49.594   7.004  13.844  0.00  0.00    +0.000 OA
ATOM     21  H   UNL     1      46.845   7.283  15.380  0.00  0.00    +0.000 HD
BRANCH  19  22
ATOM     22  C   UNL     1      49.118   6.221  16.013  0.00  0.00    +0.000 A 
ATOM     23  C   UNL     1      50.193   6.645  16.783  0.00  0.00    +0.000 A 
ATOM     24  S   UNL     1      50.400   5.751  18.221  0.00  0.00    +0.000 S 
ATOM     25  C   UNL     1      49.093   4.730  17.839  0.00  0.00    +0.000 A 
ATOM     26  N   UNL     1      48.740   3.709  18.664  0.00  0.00    +0.000 NA
ATOM     27  C   UNL     1      47.752   2.994  18.236  0.00  0.00    +0.000 A 
ATOM     28  N   UNL     1      47.082   3.213  17.061  0.00  0.00    +0.000 N 
ATOM     29  C   UNL     1      47.386   4.250  16.211  0.00  0.00    +0.000 A 
ATOM     30  O   UNL     1      46.740   4.441  15.185  0.00  0.00    +0.000 OA
ATOM     31  C   UNL     1      48.496   5.078  16.640  0.00  0.00    +0.000 A 
ATOM     32  H   UNL     1      46.312   2.622  16.786  0.00  0.00    +0.000 HD
ENDBRANCH  19  22
ENDBRANCH  17  18
ENDBRANCH   4  17
TORSDOF 6
ENDMDL
MODEL 2
REMARK VINA RESULT:    -7.569      1.896      2.206
REMARK INTER + INTRA:         -11.394
REMARK INTER:                 -10.415
REMARK INTRA:                  -0.979
REMARK UNBOUND:                -1.171
REMARK  Name = 
REMARK  6 active torsions:
REMARK  status: ('A' for Active; 'I' for Inactive)
REMARK    1  A    between atoms: C_2  and  C_25
REMARK    2  A    between atoms: N_3  and  C_4
REMARK    3  A    between atoms: C_4  and  C_5
REMARK    4  A    between atoms: C_8  and  C_9
REMARK    5  A    between atoms: C_9  and  N_10
REMARK    6  A    between atoms: C_11  and  C_13
REMARK                            x       y       z     vdW  Elec       q    Type
REMARK                         _______ _______ _______ _____ _____    ______ ____
ROOT
ATOM      1  C   UNL     1      44.731   5.116  11.671  0.00  0.00    +0.000 A 
ATOM      2  C   UNL     1      45.906   5.063  12.431  0.00  0.00    +0.000 A 
ATOM      3  C   UNL     1      46.515   6.238  12.887  0.00  0.00    +0.000 A 
ATOM      4  C   UNL     1      45.948   7.489  12.608  0.00  0.00    +0.000 A 
ATOM      5  C   UNL     1      44.779   7.541  11.838  0.00  0.00    +0.000 A 
ATOM      6  C   UNL     1      44.171   6.367  11.384  0.00  0.00    +0.000 A 
ENDROOT
BRANCH   1   7
ATOM      7  C   UNL     1      44.093   3.854  11.155  0.00  0.00    +0.000 C 
BRANCH   7  10
ATOM      8  O   UNL     1      44.369   4.116   8.366  0.00  0.00    +0.000 OA
ATOM      9  C   UNL     1      45.023   3.283   8.975  0.00  0.00    +0.000 C 
ATOM     10  N   UNL     1      44.976   3.069  10.334  0.00  0.00    +0.000 N 
ATOM     11  H   UNL     1      45.576   2.351  10.732  0.00  0.00    +0.000 HD
BRANCH   9  12
ATOM     12  C   UNL     1      45.969   2.388   8.220  0.00  0.00    +0.000 C 
ATOM     13  C   UNL     1      46.947   2.913   7.257  0.00  0.00    +0.000 C 
ATOM     14  C   UNL     1      47.630   1.741   6.811  0.00  0.00    +0.000 C 
ATOM     15  C   UNL     1      47.062   0.722   7.473  0.00  0.00    +0.000 C 
ATOM     16  N   UNL     1      46.041   1.082   8.344  0.00  0.00    +0.000 NA
ENDBRANCH   9  12
ENDBRANCH   7  10
ENDBRANCH   1   7
BRANCH   4  17
ATOM     17  C   UNL     1      46.598   8.759  13.093  0.00  0.00    +0.000 C 
BRANCH  17  18
ATOM     18  N   UNL     1      47.037   8.636  14.460  0.00  0.00    +0.000 N 
ATOM     19  C   UNL     1      48.278   9.071  14.851  0.00  0.00    +0.000 C 
ATOM     20  O   UNL     1      49.048   9.626  14.071  0.00  0.00    +0.000 OA
ATOM     21  H   UNL     1      46.528   7.987  15.050  0.00  0.00    +0.000 HD
BRANCH  19  22
ATOM     22  C   UNL     1      48.621   8.894  16.268  0.00  0.00    +0.000 A 
ATOM     23  C   UNL     1      48.727  10.006  17.095  0.00  0.00    +0.000 A 
ATOM     24  S   UNL     1      49.074   9.621  18.720  0.00  0.00    +0.000 S 
ATOM     25  C   UNL     1      49.150   7.958  18.367  0.00  0.00    +0.000 A 
ATOM     26  N   UNL     1      49.439   7.050  19.337  0.00  0.00    +0.000 NA
ATOM     27  C   UNL     1      49.496   5.828  18.923  0.00  0.00    +0.000 A 
ATOM     28  N   UNL     1      49.286   5.431  17.629  0.00  0.00    +0.000 N 
ATOM     29  C   UNL     1      48.964   6.310  16.621  0.00  0.00    +0.000 A 
ATOM     30  O   UNL     1      48.743   5.916  15.480  0.00  0.00    +0.000 OA
ATOM     31  C   UNL     1      48.897   7.699  17.031  0.00  0.00    +0.000 A 
ATOM     32  H   UNL     1      49.338   4.457  17.370  0.00  0.00    +0.000 HD
ENDBRANCH  19  22
ENDBRANCH  17  18
ENDBRANCH   4  17
TORSDOF 6
ENDMDL
MODEL 3
REMARK VINA RESULT:    -7.237      1.754      2.070
REMARK INTER + INTRA:         -10.946
REMARK INTER:                  -9.956
REMARK INTRA:                  -0.990
REMARK UNBOUND:                -1.171
REMARK  Name = 
REMARK  6 active torsions:
REMARK  status: ('A' for Active; 'I' for Inactive)
REMARK    1  A    between atoms: C_2  and  C_25
REMARK    2  A    between atoms: N_3  and  C_4
REMARK    3  A    between atoms: C_4  and  C_5
REMARK    4  A    between atoms: C_8  and  C_9
REMARK    5  A    between atoms: C_9  and  N_10
REMARK    6  A    between atoms: C_11  and  C_13
REMARK                            x       y       z     vdW  Elec       q    Type
REMARK                         _______ _______ _______ _____ _____    ______ ____
ROOT
ATOM      1  C   UNL     1      45.029   4.925  11.727  0.00  0.00    +0.000 A 
ATOM      2  C   UNL     1      45.012   6.277  11.358  0.00  0.00    +0.000 A 
ATOM      3  C   UNL     1      45.792   7.214  12.045  0.00  0.00    +0.000 A 
ATOM      4  C   UNL     1      46.621   6.814  13.102  0.00  0.00    +0.000 A 
ATOM      5  C   UNL     1      46.629   5.464  13.477  0.00  0.00    +0.000 A 
ATOM      6  C   UNL     1      45.849   4.528  12.791  0.00  0.00    +0.000 A 
ENDROOT
BRANCH   1   7
ATOM      7  C   UNL     1      44.167   3.922  11.009  0.00  0.00    +0.000 C 
BRANCH   7  10
ATOM      8  O   UNL     1      44.944   4.380   8.342  0.00  0.00    +0.000 OA
ATOM      9  C   UNL     1      45.242   3.334   8.901  0.00  0.00    +0.000 C 
ATOM     10  N   UNL     1      44.924   3.005  10.198  0.00  0.00    +0.000 N 
ATOM     11  H   UNL     1      45.235   2.107  10.560  0.00  0.00    +0.000 HD
BRANCH   9  12
ATOM     12  C   UNL     1      46.018   2.287   8.148  0.00  0.00    +0.000 C 
ATOM     13  C   UNL     1      46.936   2.627   7.051  0.00  0.00    +0.000 C 
ATOM     14  C   UNL     1      47.457   1.358   6.655  0.00  0.00    +0.000 C 
ATOM     15  C   UNL     1      46.870   0.462   7.462  0.00  0.00    +0.000 C 
ATOM     16  N   UNL     1      45.981   0.996   8.388  0.00  0.00    +0.000 NA
ENDBRANCH   9  12
ENDBRANCH   7  10
ENDBRANCH   1   7
BRANCH   4  17
ATOM     17  C   UNL     1      47.464   7.816  13.848  0.00  0.00    +0.000 C 
BRANCH  17  18
ATOM     18  N   UNL     1      48.595   7.185  14.480  0.00  0.00    +0.000 N 
ATOM     19  C   UNL     1      49.466   7.901  15.261  0.00  0.00    +0.000 C 
ATOM     20  O   UNL     1      49.296   9.095  15.496  0.00  0.00    +0.000 OA
ATOM     21  H   UNL     1      48.879   6.281  14.117  0.00  0.00    +0.000 HD
BRANCH  19  22
ATOM     22  C   UNL     1      50.584   7.156  15.854  0.00  0.00    +0.000 A 
ATOM     23  C   UNL     1      51.888   7.579  15.630  0.00  0.00    +0.000 A 
ATOM     24  S   UNL     1      53.061   6.639  16.437  0.00  0.00    +0.000 S 
ATOM     25  C   UNL     1      51.872   5.601  17.070  0.00  0.00    +0.000 A 
ATOM     26  N   UNL     1      52.214   4.541  17.851  0.00  0.00    +0.000 NA
ATOM     27  C   UNL     1      51.215   3.818  18.237  0.00  0.00    +0.000 A 
ATOM     28  N   UNL     1      49.905   4.062  17.916  0.00  0.00    +0.000 N 
ATOM     29  C   UNL     1      49.511   5.137  17.154  0.00  0.00    +0.000 A 
ATOM     30  O   UNL     1      48.325   5.348  16.918  0.00  0.00    +0.000 OA
ATOM     31  C   UNL     1      50.596   5.976  16.686  0.00  0.00    +0.000 A 
ATOM     32  H   UNL     1      49.168   3.462  18.256  0.00  0.00    +0.000 HD
ENDBRANCH  19  22
ENDBRANCH  17  18
ENDBRANCH   4  17
TORSDOF 6
ENDMDL
MODEL 4
REMARK VINA RESULT:    -7.069      4.716      9.354
REMARK INTER + INTRA:         -10.719
REMARK INTER:                  -9.930
REMARK INTRA:                  -0.789
REMARK UNBOUND:                -1.171
REMARK  Name = 
REMARK  6 active torsions:
REMARK  status: ('A' for Active; 'I' for Inactive)
REMARK    1  A    between atoms: C_2  and  C_25
REMARK    2  A    between atoms: N_3  and  C_4
REMARK    3  A    between atoms: C_4  and  C_5
REMARK    4  A    between atoms: C_8  and  C_9
REMARK    5  A    between atoms: C_9  and  N_10
REMARK    6  A    between atoms: C_11  and  C_13
REMARK                            x       y       z     vdW  Elec       q    Type
REMARK                         _______ _______ _______ _____ _____    ______ ____
ROOT
ATOM      1  C   UNL     1      51.497   3.037  17.757  0.00  0.00    +0.000 A 
ATOM      2  C   UNL     1      50.870   4.258  18.037  0.00  0.00    +0.000 A 
ATOM      3  C   UNL     1      49.505   4.434  17.786  0.00  0.00    +0.000 A 
ATOM      4  C   UNL     1      48.734   3.384  17.269  0.00  0.00    +0.000 A 
ATOM      5  C   UNL     1      49.364   2.167  16.979  0.00  0.00    +0.000 A 
ATOM      6  C   UNL     1      50.728   1.991  17.230  0.00  0.00    +0.000 A 
ENDROOT
BRANCH   1   7
ATOM      7  C   UNL     1      52.971   2.857  17.999  0.00  0.00    +0.000 C 
BRANCH   7  10
ATOM      8  O   UNL     1      54.645   1.038  16.651  0.00  0.00    +0.000 OA
ATOM      9  C   UNL     1      54.136   0.733  17.720  0.00  0.00    +0.000 C 
ATOM     10  N   UNL     1      53.310   1.539  18.469  0.00  0.00    +0.000 N 
ATOM     11  H   UNL     1      52.952   1.180  19.350  0.00  0.00    +0.000 HD
BRANCH   9  12
ATOM     12  C   UNL     1      54.402  -0.628  18.305  0.00  0.00    +0.000 C 
ATOM     13  C   UNL     1      54.933  -1.739  17.501  0.00  0.00    +0.000 C 
ATOM     14  C   UNL     1      55.046  -2.802  18.447  0.00  0.00    +0.000 C 
ATOM     15  C   UNL     1      54.619  -2.293  19.612  0.00  0.00    +0.000 C 
ATOM     16  N   UNL     1      54.215  -0.965  19.561  0.00  0.00    +0.000 NA
ENDBRANCH   9  12
ENDBRANCH   7  10
ENDBRANCH   1   7
BRANCH   4  17
ATOM     17  C   UNL     1      47.263   3.565  16.994  0.00  0.00    +0.000 C 
BRANCH  17  18
ATOM     18  N   UNL     1      47.036   4.570  15.987  0.00  0.00    +0.000 N 
ATOM     19  C   UNL     1      47.119   4.272  14.651  0.00  0.00    +0.000 C 
ATOM     20  O   UNL     1      47.341   3.131  14.252  0.00  0.00    +0.000 OA
ATOM     21  H   UNL     1      47.085   5.539  16.286  0.00  0.00    +0.000 HD
BRANCH  19  22
ATOM     22  C   UNL     1      46.870   5.375  13.713  0.00  0.00    +0.000 A 
ATOM     23  C   UNL     1      47.890   6.270  13.417  0.00  0.00    +0.000 A 
ATOM     24  S   UNL     1      47.451   7.452  12.268  0.00  0.00    +0.000 S 
ATOM     25  C   UNL     1      45.866   6.844  12.166  0.00  0.00    +0.000 A 
ATOM     26  N   UNL     1      44.944   7.430  11.357  0.00  0.00    +0.000 NA
ATOM     27  C   UNL     1      43.773   6.886  11.402  0.00  0.00    +0.000 A 
ATOM     28  N   UNL     1      43.443   5.806  12.178  0.00  0.00    +0.000 N 
ATOM     29  C   UNL     1      44.349   5.165  12.989  0.00  0.00    +0.000 A 
ATOM     30  O   UNL     1      44.030   4.176  13.642  0.00  0.00    +0.000 OA
ATOM     31  C   UNL     1      45.679   5.743  12.984  0.00  0.00    +0.000 A 
ATOM     32  H   UNL     1      42.509   5.422  12.163  0.00  0.00    +0.000 HD
ENDBRANCH  19  22
ENDBRANCH  17  18
ENDBRANCH   4  17
TORSDOF 6
ENDMDL
MODEL 5
REMARK VINA RESULT:    -7.053      2.001      2.533
REMARK INTER + INTRA:         -10.698
REMARK INTER:                  -9.824
REMARK INTRA:                  -0.873
REMARK UNBOUND:                -1.171
REMARK  Name = 
REMARK  6 active torsions:
REMARK  status: ('A' for Active; 'I' for Inactive)
REMARK    1  A    between atoms: C_2  and  C_25
REMARK    2  A    between atoms: N_3  and  C_4
REMARK    3  A    between atoms: C_4  and  C_5
REMARK    4  A    between atoms: C_8  and  C_9
REMARK    5  A    between atoms: C_9  and  N_10
REMARK    6  A    between atoms: C_11  and  C_13
REMARK                            x       y       z     vdW  Elec       q    Type
REMARK                         _______ _______ _______ _____ _____    ______ ____
ROOT
ATOM      1  C   UNL     1      45.291   6.258  11.337  0.00  0.00    +0.000 A 
ATOM      2  C   UNL     1      44.968   7.568  11.716  0.00  0.00    +0.000 A 
ATOM      3  C   UNL     1      45.784   8.274  12.607  0.00  0.00    +0.000 A 
ATOM      4  C   UNL     1      46.951   7.691  13.120  0.00  0.00    +0.000 A 
ATOM      5  C   UNL     1      47.266   6.378  12.749  0.00  0.00    +0.000 A 
ATOM      6  C   UNL     1      46.451   5.672  11.858  0.00  0.00    +0.000 A 
ENDROOT
BRANCH   1   7
ATOM      7  C   UNL     1      44.397   5.487  10.402  0.00  0.00    +0.000 C 
BRANCH   7  10
ATOM      8  O   UNL     1      44.011   2.732   9.971  0.00  0.00    +0.000 OA
ATOM      9  C   UNL     1      44.855   3.344   9.334  0.00  0.00    +0.000 C 
ATOM     10  N   UNL     1      45.127   4.688   9.454  0.00  0.00    +0.000 N 
ATOM     11  H   UNL     1      45.848   5.091   8.861  0.00  0.00    +0.000 HD
BRANCH   9  12
ATOM     12  C   UNL     1      45.696   2.610   8.324  0.00  0.00    +0.000 C 
ATOM     13  C   UNL     1      46.178   3.248   7.091  0.00  0.00    +0.000 C 
ATOM     14  C   UNL     1      46.935   2.214   6.461  0.00  0.00    +0.000 C 
ATOM     15  C   UNL     1      46.850   1.157   7.283  0.00  0.00    +0.000 C 
ATOM     16  N   UNL     1      46.098   1.364   8.432  0.00  0.00    +0.000 NA
ENDBRANCH   9  12
ENDBRANCH   7  10
ENDBRANCH   1   7
BRANCH   4  17
ATOM     17  C   UNL     1      47.835   8.443  14.081  0.00  0.00    +0.000 C 
BRANCH  17  18
ATOM     18  N   UNL     1      47.895   7.789  15.363  0.00  0.00    +0.000 N 
ATOM     19  C   UNL     1      48.958   6.993  15.708  0.00  0.00    +0.000 C 
ATOM     20  O   UNL     1      49.924   6.841  14.965  0.00  0.00    +0.000 OA
ATOM     21  H   UNL     1      47.026   7.711  15.881  0.00  0.00    +0.000 HD
BRANCH  19  22
ATOM     22  C   UNL     1      48.913   6.374  17.040  0.00  0.00    +0.000 A 
ATOM     23  C   UNL     1      49.038   4.996  17.163  0.00  0.00    +0.000 A 
ATOM     24  S   UNL     1      49.023   4.449  18.779  0.00  0.00    +0.000 S 
ATOM     25  C   UNL     1      48.794   6.028  19.369  0.00  0.00    +0.000 A 
ATOM     26  N   UNL     1      48.674   6.265  20.703  0.00  0.00    +0.000 NA
ATOM     27  C   UNL     1      48.471   7.504  21.008  0.00  0.00    +0.000 A 
ATOM     28  N   UNL     1      48.384   8.528  20.101  0.00  0.00    +0.000 N 
ATOM     29  C   UNL     1      48.529   8.339  18.747  0.00  0.00    +0.000 A 
ATOM     30  O   UNL     1      48.484   9.284  17.965  0.00  0.00    +0.000 OA
ATOM     31  C   UNL     1      48.747   6.962  18.349  0.00  0.00    +0.000 A 
ATOM     32  H   UNL     1      48.232   9.478  20.405  0.00  0.00    +0.000 HD
ENDBRANCH  19  22
ENDBRANCH  17  18
ENDBRANCH   4  17
TORSDOF 6
ENDMDL
MODEL 6
REMARK VINA RESULT:    -6.950      2.424      4.028
REMARK INTER + INTRA:         -10.558
REMARK INTER:                  -9.518
REMARK INTRA:                  -1.041
REMARK UNBOUND:                -1.171
REMARK  Name = 
REMARK  6 active torsions:
REMARK  status: ('A' for Active; 'I' for Inactive)
REMARK    1  A    between atoms: C_2  and  C_25
REMARK    2  A    between atoms: N_3  and  C_4
REMARK    3  A    between atoms: C_4  and  C_5
REMARK    4  A    between atoms: C_8  and  C_9
REMARK    5  A    between atoms: C_9  and  N_10
REMARK    6  A    between atoms: C_11  and  C_13
REMARK                            x       y       z     vdW  Elec       q    Type
REMARK                         _______ _______ _______ _____ _____    ______ ____
ROOT
ATOM      1  C   UNL     1      45.029   4.563  11.161  0.00  0.00    +0.000 A 
ATOM      2  C   UNL     1      45.087   3.541  12.116  0.00  0.00    +0.000 A 
ATOM      3  C   UNL     1      45.799   3.717  13.308  0.00  0.00    +0.000 A 
ATOM      4  C   UNL     1      46.449   4.929  13.577  0.00  0.00    +0.000 A 
ATOM      5  C   UNL     1      46.399   5.947  12.616  0.00  0.00    +0.000 A 
ATOM      6  C   UNL     1      45.688   5.771  11.426  0.00  0.00    +0.000 A 
ENDROOT
BRANCH   1   7
ATOM      7  C   UNL     1      44.289   4.363   9.865  0.00  0.00    +0.000 C 
BRANCH   7  10
ATOM      8  O   UNL     1      45.056   1.745   9.169  0.00  0.00    +0.000 OA
ATOM      9  C   UNL     1      45.466   2.699   8.525  0.00  0.00    +0.000 C 
ATOM     10  N   UNL     1      45.155   4.018   8.768  0.00  0.00    +0.000 N 
ATOM     11  H   UNL     1      45.550   4.729   8.158  0.00  0.00    +0.000 HD
BRANCH   9  12
ATOM     12  C   UNL     1      46.395   2.465   7.364  0.00  0.00    +0.000 C 
ATOM     13  C   UNL     1      46.383   3.316   6.166  0.00  0.00    +0.000 C 
ATOM     14  C   UNL     1      47.418   2.756   5.356  0.00  0.00    +0.000 C 
ATOM     15  C   UNL     1      47.908   1.727   6.063  0.00  0.00    +0.000 C 
ATOM     16  N   UNL     1      47.303   1.519   7.297  0.00  0.00    +0.000 NA
ENDBRANCH   9  12
ENDBRANCH   7  10
ENDBRANCH   1   7
BRANCH   4  17
ATOM     17  C   UNL     1      47.219   5.128  14.858  0.00  0.00    +0.000 C 
BRANCH  17  18
ATOM     18  N   UNL     1      47.935   6.379  14.852  0.00  0.00    +0.000 N 
ATOM     19  C   UNL     1      49.073   6.552  15.597  0.00  0.00    +0.000 C 
ATOM     20  O   UNL     1      49.560   5.640  16.261  0.00  0.00    +0.000 OA
ATOM     21  H   UNL     1      47.435   7.193  14.510  0.00  0.00    +0.000 HD
BRANCH  19  22
ATOM     22  C   UNL     1      49.720   7.868  15.517  0.00  0.00    +0.000 A 
ATOM     23  C   UNL     1      49.937   8.600  16.677  0.00  0.00    +0.000 A 
ATOM     24  S   UNL     1      50.748  10.077  16.414  0.00  0.00    +0.000 S 
ATOM     25  C   UNL     1      50.791   9.817  14.733  0.00  0.00    +0.000 A 
ATOM     26  N   UNL     1      51.344  10.736  13.897  0.00  0.00    +0.000 NA
ATOM     27  C   UNL     1      51.279  10.426  12.645  0.00  0.00    +0.000 A 
ATOM     28  N   UNL     1      50.716   9.277  12.154  0.00  0.00    +0.000 N 
ATOM     29  C   UNL     1      50.172   8.307  12.962  0.00  0.00    +0.000 A 
ATOM     30  O   UNL     1      49.711   7.271  12.492  0.00  0.00    +0.000 OA
ATOM     31  C   UNL     1      50.209   8.612  14.379  0.00  0.00    +0.000 A 
ATOM     32  H   UNL     1      50.703   9.089  11.162  0.00  0.00    +0.000 HD
ENDBRANCH  19  22
ENDBRANCH  17  18
ENDBRANCH   4  17
TORSDOF 6
ENDMDL
MODEL 7
REMARK VINA RESULT:    -6.641      3.874      8.416
REMARK INTER + INTRA:         -10.142
REMARK INTER:                  -9.103
REMARK INTRA:                  -1.039
REMARK UNBOUND:                -1.171
REMARK  Name = 
REMARK  6 active torsions:
REMARK  status: ('A' for Active; 'I' for Inactive)
REMARK    1  A    between atoms: C_2  and  C_25
REMARK    2  A    between atoms: N_3  and  C_4
REMARK    3  A    between atoms: C_4  and  C_5
REMARK    4  A    between atoms: C_8  and  C_9
REMARK    5  A    between atoms: C_9  and  N_10
REMARK    6  A    between atoms: C_11  and  C_13
REMARK                            x       y       z     vdW  Elec       q    Type
REMARK                         _______ _______ _______ _____ _____    ______ ____
ROOT
ATOM      1  C   UNL     1      49.773   4.610  17.617  0.00  0.00    +0.000 A 
ATOM      2  C   UNL     1      48.510   4.402  17.047  0.00  0.00    +0.000 A 
ATOM      3  C   UNL     1      48.024   5.263  16.056  0.00  0.00    +0.000 A 
ATOM      4  C   UNL     1      48.801   6.337  15.602  0.00  0.00    +0.000 A 
ATOM      5  C   UNL     1      50.059   6.550  16.181  0.00  0.00    +0.000 A 
ATOM      6  C   UNL     1      50.544   5.690  17.170  0.00  0.00    +0.000 A 
ENDROOT
BRANCH   1   7
ATOM      7  C   UNL     1      50.283   3.702  18.704  0.00  0.00    +0.000 C 
BRANCH   7  10
ATOM      8  O   UNL     1      50.969   1.452  17.157  0.00  0.00    +0.000 OA
ATOM      9  C   UNL     1      51.840   2.118  17.697  0.00  0.00    +0.000 C 
ATOM     10  N   UNL     1      51.625   3.237  18.468  0.00  0.00    +0.000 N 
ATOM     11  H   UNL     1      52.431   3.717  18.859  0.00  0.00    +0.000 HD
BRANCH   9  12
ATOM     12  C   UNL     1      53.282   1.718  17.538  0.00  0.00    +0.000 C 
ATOM     13  C   UNL     1      53.694   0.321  17.339  0.00  0.00    +0.000 C 
ATOM     14  C   UNL     1      55.113   0.412  17.216  0.00  0.00    +0.000 C 
ATOM     15  C   UNL     1      55.401   1.716  17.340  0.00  0.00    +0.000 C 
ATOM     16  N   UNL     1      54.304   2.545  17.540  0.00  0.00    +0.000 NA
ENDBRANCH   9  12
ENDBRANCH   7  10
ENDBRANCH   1   7
BRANCH   4  17
ATOM     17  C   UNL     1      48.286   7.271  14.537  0.00  0.00    +0.000 C 
BRANCH  17  18
ATOM     18  N   UNL     1      47.050   6.792  13.972  0.00  0.00    +0.000 N 
ATOM     19  C   UNL     1      46.856   6.748  12.614  0.00  0.00    +0.000 C 
ATOM     20  O   UNL     1      47.739   7.067  11.822  0.00  0.00    +0.000 OA
ATOM     21  H   UNL     1      46.247   6.749  14.591  0.00  0.00    +0.000 HD
BRANCH  19  22
ATOM     22  C   UNL     1      45.558   6.243  12.149  0.00  0.00    +0.000 A 
ATOM     23  C   UNL     1      44.647   7.118  11.570  0.00  0.00    +0.000 A 
ATOM     24  S   UNL     1      43.216   6.360  11.034  0.00  0.00    +0.000 S 
ATOM     25  C   UNL     1      43.739   4.846  11.606  0.00  0.00    +0.000 A 
ATOM     26  N   UNL     1      42.953   3.742  11.480  0.00  0.00    +0.000 NA
ATOM     27  C   UNL     1      43.460   2.667  11.987  0.00  0.00    +0.000 A 
ATOM     28  N   UNL     1      44.683   2.594  12.602  0.00  0.00    +0.000 N 
ATOM     29  C   UNL     1      45.521   3.677  12.725  0.00  0.00    +0.000 A 
ATOM     30  O   UNL     1      46.627   3.568  13.247  0.00  0.00    +0.000 OA
ATOM     31  C   UNL     1      44.995   4.914  12.182  0.00  0.00    +0.000 A 
ATOM     32  H   UNL     1      45.025   1.720  12.971  0.00  0.00    +0.000 HD
ENDBRANCH  19  22
ENDBRANCH  17  18
ENDBRANCH   4  17
TORSDOF 6
ENDMDL
MODEL 8
REMARK VINA RESULT:    -6.428      2.423      3.423
REMARK INTER + INTRA:          -9.853
REMARK INTER:                  -9.187
REMARK INTRA:                  -0.666
REMARK UNBOUND:                -1.171
REMARK  Name = 
REMARK  6 active torsions:
REMARK  status: ('A' for Active; 'I' for Inactive)
REMARK    1  A    between atoms: C_2  and  C_25
REMARK    2  A    between atoms: N_3  and  C_4
REMARK    3  A    between atoms: C_4  and  C_5
REMARK    4  A    between atoms: C_8  and  C_9
REMARK    5  A    between atoms: C_9  and  N_10
REMARK    6  A    between atoms: C_11  and  C_13
REMARK                            x       y       z     vdW  Elec       q    Type
REMARK                         _______ _______ _______ _____ _____    ______ ____
ROOT
ATOM      1  C   UNL     1      44.842   4.671  11.050  0.00  0.00    +0.000 A 
ATOM      2  C   UNL     1      44.467   3.773  12.057  0.00  0.00    +0.000 A 
ATOM      3  C   UNL     1      45.088   3.807  13.311  0.00  0.00    +0.000 A 
ATOM      4  C   UNL     1      46.081   4.756  13.589  0.00  0.00    +0.000 A 
ATOM      5  C   UNL     1      46.462   5.647  12.578  0.00  0.00    +0.000 A 
ATOM      6  C   UNL     1      45.843   5.612  11.325  0.00  0.00    +0.000 A 
ENDROOT
BRANCH   1   7
ATOM      7  C   UNL     1      44.197   4.615   9.692  0.00  0.00    +0.000 C 
BRANCH   7  10
ATOM      8  O   UNL     1      44.934   1.950   9.162  0.00  0.00    +0.000 OA
ATOM      9  C   UNL     1      45.394   2.862   8.491  0.00  0.00    +0.000 C 
ATOM     10  N   UNL     1      45.102   4.197   8.653  0.00  0.00    +0.000 N 
ATOM     11  H   UNL     1      45.539   4.868   8.026  0.00  0.00    +0.000 HD
BRANCH   9  12
ATOM     12  C   UNL     1      46.367   2.551   7.386  0.00  0.00    +0.000 C 
ATOM     13  C   UNL     1      46.427   3.338   6.146  0.00  0.00    +0.000 C 
ATOM     14  C   UNL     1      47.483   2.717   5.414  0.00  0.00    +0.000 C 
ATOM     15  C   UNL     1      47.920   1.717   6.194  0.00  0.00    +0.000 C 
ATOM     16  N   UNL     1      47.258   1.585   7.408  0.00  0.00    +0.000 NA
ENDBRANCH   9  12
ENDBRANCH   7  10
ENDBRANCH   1   7
BRANCH   4  17
ATOM     17  C   UNL     1      46.755   4.800  14.937  0.00  0.00    +0.000 C 
BRANCH  17  18
ATOM     18  N   UNL     1      47.812   5.779  14.964  0.00  0.00    +0.000 N 
ATOM     19  C   UNL     1      48.471   6.083  16.128  0.00  0.00    +0.000 C 
ATOM     20  O   UNL     1      48.228   5.503  17.184  0.00  0.00    +0.000 OA
ATOM     21  H   UNL     1      47.865   6.420  14.179  0.00  0.00    +0.000 HD
BRANCH  19  22
ATOM     22  C   UNL     1      49.530   7.098  16.040  0.00  0.00    +0.000 A 
ATOM     23  C   UNL     1      49.220   8.379  15.600  0.00  0.00    +0.000 A 
ATOM     24  S   UNL     1      50.549   9.447  15.613  0.00  0.00    +0.000 S 
ATOM     25  C   UNL     1      51.598   8.223  16.154  0.00  0.00    +0.000 A 
ATOM     26  N   UNL     1      52.920   8.473  16.353  0.00  0.00    +0.000 NA
ATOM     27  C   UNL     1      53.606   7.445  16.733  0.00  0.00    +0.000 A 
ATOM     28  N   UNL     1      53.088   6.193  16.937  0.00  0.00    +0.000 N 
ATOM     29  C   UNL     1      51.754   5.902  16.777  0.00  0.00    +0.000 A 
ATOM     30  O   UNL     1      51.316   4.778  17.006  0.00  0.00    +0.000 OA
ATOM     31  C   UNL     1      50.940   7.019  16.340  0.00  0.00    +0.000 A 
ATOM     32  H   UNL     1      53.677   5.432  17.242  0.00  0.00    +0.000 HD
ENDBRANCH  19  22
ENDBRANCH  17  18
ENDBRANCH   4  17
TORSDOF 6
ENDMDL
MODEL 9
REMARK VINA RESULT:    -6.356      2.520      3.491
REMARK INTER + INTRA:          -9.756
REMARK INTER:                  -8.879
REMARK INTRA:                  -0.877
REMARK UNBOUND:                -1.171
REMARK  Name = 
REMARK  6 active torsions:
REMARK  status: ('A' for Active; 'I' for Inactive)
REMARK    1  A    between atoms: C_2  and  C_25
REMARK    2  A    between atoms: N_3  and  C_4
REMARK    3  A    between atoms: C_4  and  C_5
REMARK    4  A    between atoms: C_8  and  C_9
REMARK    5  A    between atoms: C_9  and  N_10
REMARK    6  A    between atoms: C_11  and  C_13
REMARK                            x       y       z     vdW  Elec       q    Type
REMARK                         _______ _______ _______ _____ _____    ______ ____
ROOT
ATOM      1  C   UNL     1      46.030   7.149  12.361  0.00  0.00    +0.000 A 
ATOM      2  C   UNL     1      46.779   6.091  12.893  0.00  0.00    +0.000 A 
ATOM      3  C   UNL     1      47.725   6.321  13.898  0.00  0.00    +0.000 A 
ATOM      4  C   UNL     1      47.926   7.611  14.405  0.00  0.00    +0.000 A 
ATOM      5  C   UNL     1      47.185   8.670  13.866  0.00  0.00    +0.000 A 
ATOM      6  C   UNL     1      46.239   8.440  12.862  0.00  0.00    +0.000 A 
ENDROOT
BRANCH   1   7
ATOM      7  C   UNL     1      45.034   6.907  11.259  0.00  0.00    +0.000 C 
BRANCH   7  10
ATOM      8  O   UNL     1      43.464   4.627  10.744  0.00  0.00    +0.000 OA
ATOM      9  C   UNL     1      44.559   4.754  10.216  0.00  0.00    +0.000 C 
ATOM     10  N   UNL     1      45.408   5.824  10.387  0.00  0.00    +0.000 N 
ATOM     11  H   UNL     1      46.293   5.824   9.887  0.00  0.00    +0.000 HD
BRANCH   9  12
ATOM     12  C   UNL     1      45.067   3.676   9.297  0.00  0.00    +0.000 C 
ATOM     13  C   UNL     1      45.686   3.977   7.999  0.00  0.00    +0.000 C 
ATOM     14  C   UNL     1      46.031   2.688   7.492  0.00  0.00    +0.000 C 
ATOM     15  C   UNL     1      45.631   1.816   8.430  0.00  0.00    +0.000 C 
ATOM     16  N   UNL     1      45.036   2.386   9.549  0.00  0.00    +0.000 NA
ENDBRANCH   9  12
ENDBRANCH   7  10
ENDBRANCH   1   7
BRANCH   4  17
ATOM     17  C   UNL     1      48.944   7.869  15.487  0.00  0.00    +0.000 C 
BRANCH  17  18
ATOM     18  N   UNL     1      49.637   6.660  15.855  0.00  0.00    +0.000 N 
ATOM     19  C   UNL     1      49.284   5.949  16.974  0.00  0.00    +0.000 C 
ATOM     20  O   UNL     1      48.336   6.279  17.682  0.00  0.00    +0.000 OA
ATOM     21  H   UNL     1      50.546   6.505  15.431  0.00  0.00    +0.000 HD
BRANCH  19  22
ATOM     22  C   UNL     1      50.060   4.733  17.253  0.00  0.00    +0.000 A 
ATOM     23  C   UNL     1      49.438   3.492  17.201  0.00  0.00    +0.000 A 
ATOM     24  S   UNL     1      50.493   2.184  17.494  0.00  0.00    +0.000 S 
ATOM     25  C   UNL     1      51.808   3.232  17.755  0.00  0.00    +0.000 A 
ATOM     26  N   UNL     1      53.036   2.745  18.078  0.00  0.00    +0.000 NA
ATOM     27  C   UNL     1      53.933   3.653  18.280  0.00  0.00    +0.000 A 
ATOM     28  N   UNL     1      53.714   5.002  18.183  0.00  0.00    +0.000 N 
ATOM     29  C   UNL     1      52.497   5.538  17.831  0.00  0.00    +0.000 A 
ATOM     30  O   UNL     1      52.346   6.750  17.716  0.00  0.00    +0.000 OA
ATOM     31  C   UNL     1      51.451   4.561  17.604  0.00  0.00    +0.000 A 
ATOM     32  H   UNL     1      54.461   5.661  18.347  0.00  0.00    +0.000 HD
ENDBRANCH  19  22
ENDBRANCH  17  18
ENDBRANCH   4  17
TORSDOF 6
ENDMDL
