MODEL 1
REMARK VINA RESULT:    -8.229      0.000      0.000
REMARK INTER + INTRA:         -13.520
REMARK INTER:                 -12.078
REMARK INTRA:                  -1.442
REMARK UNBOUND:                -1.442
REMARK  Name = 
REMARK  9 active torsions:
REMARK  status: ('A' for Active; 'I' for Inactive)
REMARK    1  A    between atoms: C_1  and  O_2
REMARK    2  A    between atoms: O_2  and  C_3
REMARK    3  A    between atoms: C_10  and  C_11
REMARK    4  A    between atoms: N_13  and  C_14
REMARK    5  A    between atoms: C_14  and  C_15
REMARK    6  A    between atoms: C_18  and  C_19
REMARK    7  A    between atoms: C_19  and  O_20
REMARK    8  A    between atoms: O_20  and  C_21
REMARK    9  A    between atoms: C_21  and  C_22
REMARK                            x       y       z     vdW  Elec       q    Type
REMARK                         _______ _______ _______ _____ _____    ______ ____
ROOT
ATOM      1  C   UNL     1      47.137   7.863  13.136  0.00  0.00    +0.000 C 
ENDROOT
BRANCH   1   2
ATOM      2  C   UNL     1      46.144   7.032  12.353  0.00  0.00    +0.000 A 
ATOM      3  C   UNL     1      46.477   6.513  11.094  0.00  0.00    +0.000 A 
ATOM      4  C   UNL     1      45.606   5.643  10.421  0.00  0.00    +0.000 A 
ATOM      5  C   UNL     1      44.365   5.295  10.973  0.00  0.00    +0.000 A 
ATOM      6  C   UNL     1      43.998   5.880  12.195  0.00  0.00    +0.000 A 
ATOM      7  C   UNL     1      44.877   6.738  12.875  0.00  0.00    +0.000 A 
BRANCH   5   8
ATOM      8  C   UNL     1      43.446   4.327  10.262  0.00  0.00    +0.000 C 
BRANCH   8   9
ATOM      9  O   UNL     1      44.067   3.872   9.060  0.00  0.00    +0.000 OA
BRANCH   9  10
ATOM     10  C   UNL     1      44.613   2.552   9.199  0.00  0.00    +0.000 C 
BRANCH  10  11
ATOM     11  C   UNL     1      45.740   2.317   8.212  0.00  0.00    +0.000 A 
ATOM     12  C   UNL     1      46.194   3.351   7.393  0.00  0.00    +0.000 A 
ATOM     13  C   UNL     1      47.231   3.106   6.499  0.00  0.00    +0.000 A 
ATOM     14  C   UNL     1      47.807   1.843   6.454  0.00  0.00    +0.000 A 
ATOM     15  C   UNL     1      47.321   0.875   7.317  0.00  0.00    +0.000 A 
ATOM     16  N   UNL     1      46.312   1.083   8.195  0.00  0.00    +0.000 NA
ENDBRANCH  10  11
ENDBRANCH   9  10
ENDBRANCH   8   9
ENDBRANCH   5   8
ENDBRANCH   1   2
BRANCH   1  19
ATOM     17  C   UNL     1      48.809   6.861  14.659  0.00  0.00    +0.000 C 
ATOM     18  O   UNL     1      49.719   7.049  13.859  0.00  0.00    +0.000 OA
ATOM     19  N   UNL     1      47.520   7.234  14.374  0.00  0.00    +0.000 N 
ATOM     20  H   UNL     1      46.788   7.078  15.052  0.00  0.00    +0.000 HD
BRANCH  17  28
ATOM     21  C   UNL     1      47.303   4.249  16.313  0.00  0.00    +0.000 A 
ATOM     22  N   UNL     1      46.939   3.242  17.127  0.00  0.00    +0.000 NA
ATOM     23  C   UNL     1      47.622   3.079  18.264  0.00  0.00    +0.000 A 
ATOM     24  N   UNL     1      48.641   3.818  18.698  0.00  0.00    +0.000 NA
ATOM     25  C   UNL     1      48.978   4.801  17.847  0.00  0.00    +0.000 A 
ATOM     26  S   UNL     1      50.253   5.852  18.238  0.00  0.00    +0.000 S 
ATOM     27  C   UNL     1      50.068   6.705  16.776  0.00  0.00    +0.000 A 
ATOM     28  C   UNL     1      49.048   6.215  15.965  0.00  0.00    +0.000 A 
ATOM     29  C   UNL     1      48.385   5.089  16.622  0.00  0.00    +0.000 A 
BRANCH  21  31
ATOM     30  C   UNL     1      47.070   3.577  14.084  0.00  0.00    +0.000 C 
ATOM     31  O   UNL     1      46.604   4.415  15.137  0.00  0.00    +0.000 OA
ENDBRANCH  21  31
ENDBRANCH  17  28
ENDBRANCH   1  19
TORSDOF 8
ENDMDL
MODEL 2
REMARK VINA RESULT:    -8.023      1.471      1.842
REMARK INTER + INTRA:         -13.217
REMARK INTER:                 -12.054
REMARK INTRA:                  -1.164
REMARK UNBOUND:                -1.442
REMARK  Name = 
REMARK  9 active torsions:
REMARK  status: ('A' for Active; 'I' for Inactive)
REMARK    1  A    between atoms: C_1  and  O_2
REMARK    2  A    between atoms: O_2  and  C_3
REMARK    3  A    between atoms: C_10  and  C_11
REMARK    4  A    between atoms: N_13  and  C_14
REMARK    5  A    between atoms: C_14  and  C_15
REMARK    6  A    between atoms: C_18  and  C_19
REMARK    7  A    between atoms: C_19  and  O_20
REMARK    8  A    between atoms: O_20  and  C_21
REMARK    9  A    between atoms: C_21  and  C_22
REMARK                            x       y       z     vdW  Elec       q    Type
REMARK                         _______ _______ _______ _____ _____    ______ ____
ROOT
ATOM      1  C   UNL     1      47.957   7.061  13.200  0.00  0.00    +0.000 C 
ENDROOT
BRANCH   1   2
ATOM      2  C   UNL     1      46.920   6.118  12.630  0.00  0.00    +0.000 A 
ATOM      3  C   UNL     1      46.513   4.982  13.343  0.00  0.00    +0.000 A 
ATOM      4  C   UNL     1      45.467   4.175  12.874  0.00  0.00    +0.000 A 
ATOM      5  C   UNL     1      44.821   4.462  11.664  0.00  0.00    +0.000 A 
ATOM      6  C   UNL     1      45.284   5.551  10.910  0.00  0.00    +0.000 A 
ATOM      7  C   UNL     1      46.320   6.368  11.387  0.00  0.00    +0.000 A 
BRANCH   5   8
ATOM      8  C   UNL     1      43.667   3.610  11.181  0.00  0.00    +0.000 C 
BRANCH   8   9
ATOM      9  O   UNL     1      43.812   3.353   9.785  0.00  0.00    +0.000 OA
BRANCH   9  10
ATOM     10  C   UNL     1      44.436   2.086   9.529  0.00  0.00    +0.000 C 
BRANCH  10  11
ATOM     11  C   UNL     1      45.512   2.208   8.469  0.00  0.00    +0.000 A 
ATOM     12  C   UNL     1      45.732   3.421   7.817  0.00  0.00    +0.000 A 
ATOM     13  C   UNL     1      46.729   3.503   6.849  0.00  0.00    +0.000 A 
ATOM     14  C   UNL     1      47.497   2.382   6.566  0.00  0.00    +0.000 A 
ATOM     15  C   UNL     1      47.238   1.220   7.275  0.00  0.00    +0.000 A 
ATOM     16  N   UNL     1      46.274   1.109   8.219  0.00  0.00    +0.000 NA
ENDBRANCH  10  11
ENDBRANCH   9  10
ENDBRANCH   8   9
ENDBRANCH   5   8
ENDBRANCH   1   2
BRANCH   1  19
ATOM     17  C   UNL     1      49.045   7.012  15.420  0.00  0.00    +0.000 C 
ATOM     18  O   UNL     1      50.159   6.882  14.923  0.00  0.00    +0.000 OA
ATOM     19  N   UNL     1      47.921   7.107  14.639  0.00  0.00    +0.000 N 
ATOM     20  H   UNL     1      47.016   7.224  15.070  0.00  0.00    +0.000 HD
BRANCH  17  28
ATOM     21  C   UNL     1      48.841   4.597  17.860  0.00  0.00    +0.000 A 
ATOM     22  N   UNL     1      48.789   3.869  18.990  0.00  0.00    +0.000 NA
ATOM     23  C   UNL     1      48.654   4.521  20.148  0.00  0.00    +0.000 A 
ATOM     24  N   UNL     1      48.556   5.838  20.318  0.00  0.00    +0.000 NA
ATOM     25  C   UNL     1      48.627   6.524  19.165  0.00  0.00    +0.000 A 
ATOM     26  S   UNL     1      48.512   8.218  19.185  0.00  0.00    +0.000 S 
ATOM     27  C   UNL     1      48.697   8.302  17.494  0.00  0.00    +0.000 A 
ATOM     28  C   UNL     1      48.853   7.062  16.884  0.00  0.00    +0.000 A 
ATOM     29  C   UNL     1      48.788   6.000  17.886  0.00  0.00    +0.000 A 
BRANCH  21  31
ATOM     30  C   UNL     1      48.584   2.561  16.735  0.00  0.00    +0.000 C 
ATOM     31  O   UNL     1      48.987   3.926  16.665  0.00  0.00    +0.000 OA
ENDBRANCH  21  31
ENDBRANCH  17  28
ENDBRANCH   1  19
TORSDOF 8
ENDMDL
MODEL 3
REMARK VINA RESULT:    -7.480      2.522      3.414
REMARK INTER + INTRA:         -12.420
REMARK INTER:                 -11.142
REMARK INTRA:                  -1.278
REMARK UNBOUND:                -1.442
REMARK  Name = 
REMARK  9 active torsions:
REMARK  status: ('A' for Active; 'I' for Inactive)
REMARK    1  A    between atoms: C_1  and  O_2
REMARK    2  A    between atoms: O_2  and  C_3
REMARK    3  A    between atoms: C_10  and  C_11
REMARK    4  A    between atoms: N_13  and  C_14
REMARK    5  A    between atoms: C_14  and  C_15
REMARK    6  A    between atoms: C_18  and  C_19
REMARK    7  A    between atoms: C_19  and  O_20
REMARK    8  A    between atoms: O_20  and  C_21
REMARK    9  A    between atoms: C_21  and  C_22
REMARK                            x       y       z     vdW  Elec       q    Type
REMARK                         _______ _______ _______ _____ _____    ______ ____
ROOT
ATOM      1  C   UNL     1      48.550   6.567  13.920  0.00  0.00    +0.000 C 
ENDROOT
BRANCH   1   2
ATOM      2  C   UNL     1      47.395   5.973  13.144  0.00  0.00    +0.000 A 
ATOM      3  C   UNL     1      46.733   4.827  13.607  0.00  0.00    +0.000 A 
ATOM      4  C   UNL     1      45.588   4.346  12.956  0.00  0.00    +0.000 A 
ATOM      5  C   UNL     1      45.092   4.977  11.806  0.00  0.00    +0.000 A 
ATOM      6  C   UNL     1      45.803   6.074  11.297  0.00  0.00    +0.000 A 
ATOM      7  C   UNL     1      46.940   6.565  11.957  0.00  0.00    +0.000 A 
BRANCH   5   8
ATOM      8  C   UNL     1      43.835   4.477  11.131  0.00  0.00    +0.000 C 
BRANCH   8   9
ATOM      9  O   UNL     1      44.131   4.096   9.787  0.00  0.00    +0.000 OA
BRANCH   9  10
ATOM     10  C   UNL     1      44.478   2.708   9.682  0.00  0.00    +0.000 C 
BRANCH  10  11
ATOM     11  C   UNL     1      45.474   2.474   8.563  0.00  0.00    +0.000 A 
ATOM     12  C   UNL     1      45.816   3.506   7.689  0.00  0.00    +0.000 A 
ATOM     13  C   UNL     1      46.735   3.261   6.673  0.00  0.00    +0.000 A 
ATOM     14  C   UNL     1      47.308   2.002   6.562  0.00  0.00    +0.000 A 
ATOM     15  C   UNL     1      46.940   1.036   7.484  0.00  0.00    +0.000 A 
ATOM     16  N   UNL     1      46.047   1.243   8.480  0.00  0.00    +0.000 NA
ENDBRANCH  10  11
ENDBRANCH   9  10
ENDBRANCH   8   9
ENDBRANCH   5   8
ENDBRANCH   1   2
BRANCH   1  19
ATOM     17  C   UNL     1      48.857   6.322  16.362  0.00  0.00    +0.000 C 
ATOM     18  O   UNL     1      49.799   5.551  16.213  0.00  0.00    +0.000 OA
ATOM     19  N   UNL     1      48.197   6.860  15.286  0.00  0.00    +0.000 N 
ATOM     20  H   UNL     1      47.431   7.500  15.433  0.00  0.00    +0.000 HD
BRANCH  17  28
ATOM     21  C   UNL     1      47.983   9.325  17.792  0.00  0.00    +0.000 A 
ATOM     22  N   UNL     1      47.534  10.339  18.555  0.00  0.00    +0.000 NA
ATOM     23  C   UNL     1      47.129  10.055  19.795  0.00  0.00    +0.000 A 
ATOM     24  N   UNL     1      47.122   8.859  20.382  0.00  0.00    +0.000 NA
ATOM     25  C   UNL     1      47.564   7.877  19.579  0.00  0.00    +0.000 A 
ATOM     26  S   UNL     1      47.635   6.283  20.159  0.00  0.00    +0.000 S 
ATOM     27  C   UNL     1      48.223   5.711  18.668  0.00  0.00    +0.000 A 
ATOM     28  C   UNL     1      48.375   6.704  17.705  0.00  0.00    +0.000 A 
ATOM     29  C   UNL     1      47.999   8.002  18.263  0.00  0.00    +0.000 A 
BRANCH  21  31
ATOM     30  C   UNL     1      49.735  10.098  16.447  0.00  0.00    +0.000 C 
ATOM     31  O   UNL     1      48.396   9.615  16.510  0.00  0.00    +0.000 OA
ENDBRANCH  21  31
ENDBRANCH  17  28
ENDBRANCH   1  19
TORSDOF 8
ENDMDL
MODEL 4
REMARK VINA RESULT:    -7.268      1.536      1.888
REMARK INTER + INTRA:         -12.108
REMARK INTER:                 -10.952
REMARK INTRA:                  -1.156
REMARK UNBOUND:                -1.442
REMARK  Name = 
REMARK  9 active torsions:
REMARK  status: ('A' for Active; 'I' for Inactive)
REMARK    1  A    between atoms: C_1  and  O_2
REMARK    2  A    between atoms: O_2  and  C_3
REMARK    3  A    between atoms: C_10  and  C_11
REMARK    4  A    between atoms: N_13  and  C_14
REMARK    5  A    between atoms: C_14  and  C_15
REMARK    6  A    between atoms: C_18  and  C_19
REMARK    7  A    between atoms: C_19  and  O_20
REMARK    8  A    between atoms: O_20  and  C_21
REMARK    9  A    between atoms: C_21  and  C_22
REMARK                            x       y       z     vdW  Elec       q    Type
REMARK                         _______ _______ _______ _____ _____    ______ ____
ROOT
ATOM      1  C   UNL     1      47.465   7.634  13.274  0.00  0.00    +0.000 C 
ENDROOT
BRANCH   1   2
ATOM      2  C   UNL     1      46.501   6.548  12.846  0.00  0.00    +0.000 A 
ATOM      3  C   UNL     1      45.764   6.669  11.659  0.00  0.00    +0.000 A 
ATOM      4  C   UNL     1      44.964   5.614  11.199  0.00  0.00    +0.000 A 
ATOM      5  C   UNL     1      44.852   4.422  11.928  0.00  0.00    +0.000 A 
ATOM      6  C   UNL     1      45.524   4.334  13.156  0.00  0.00    +0.000 A 
ATOM      7  C   UNL     1      46.338   5.384  13.609  0.00  0.00    +0.000 A 
BRANCH   5   8
ATOM      8  C   UNL     1      44.017   3.272  11.408  0.00  0.00    +0.000 C 
BRANCH   8   9
ATOM      9  O   UNL     1      44.071   3.247   9.982  0.00  0.00    +0.000 OA
BRANCH   9  10
ATOM     10  C   UNL     1      44.506   1.976   9.478  0.00  0.00    +0.000 C 
BRANCH  10  11
ATOM     11  C   UNL     1      45.584   2.142   8.425  0.00  0.00    +0.000 A 
ATOM     12  C   UNL     1      45.786   3.374   7.804  0.00  0.00    +0.000 A 
ATOM     13  C   UNL     1      46.785   3.496   6.842  0.00  0.00    +0.000 A 
ATOM     14  C   UNL     1      47.571   2.394   6.534  0.00  0.00    +0.000 A 
ATOM     15  C   UNL     1      47.328   1.211   7.212  0.00  0.00    +0.000 A 
ATOM     16  N   UNL     1      46.363   1.061   8.150  0.00  0.00    +0.000 NA
ENDBRANCH  10  11
ENDBRANCH   9  10
ENDBRANCH   8   9
ENDBRANCH   5   8
ENDBRANCH   1   2
BRANCH   1  19
ATOM     17  C   UNL     1      48.956   7.701  15.246  0.00  0.00    +0.000 C 
ATOM     18  O   UNL     1      48.408   8.708  15.684  0.00  0.00    +0.000 OA
ATOM     19  N   UNL     1      48.547   7.119  14.073  0.00  0.00    +0.000 N 
ATOM     20  H   UNL     1      49.006   6.286  13.737  0.00  0.00    +0.000 HD
BRANCH  17  28
ATOM     21  C   UNL     1      49.327   4.724  16.925  0.00  0.00    +0.000 A 
ATOM     22  N   UNL     1      49.747   3.619  17.570  0.00  0.00    +0.000 NA
ATOM     23  C   UNL     1      51.023   3.571  17.962  0.00  0.00    +0.000 A 
ATOM     24  N   UNL     1      51.949   4.513  17.792  0.00  0.00    +0.000 NA
ATOM     25  C   UNL     1      51.489   5.589  17.132  0.00  0.00    +0.000 A 
ATOM     26  S   UNL     1      52.528   6.899  16.830  0.00  0.00    +0.000 S 
ATOM     27  C   UNL     1      51.300   7.751  16.015  0.00  0.00    +0.000 A 
ATOM     28  C   UNL     1      50.089   7.069  15.951  0.00  0.00    +0.000 A 
ATOM     29  C   UNL     1      50.202   5.785  16.641  0.00  0.00    +0.000 A 
BRANCH  21  31
ATOM     30  C   UNL     1      47.138   4.013  17.343  0.00  0.00    +0.000 C 
ATOM     31  O   UNL     1      48.013   4.772  16.514  0.00  0.00    +0.000 OA
ENDBRANCH  21  31
ENDBRANCH  17  28
ENDBRANCH   1  19
TORSDOF 8
ENDMDL
MODEL 5
REMARK VINA RESULT:    -7.007      1.519      1.855
REMARK INTER + INTRA:         -11.726
REMARK INTER:                 -10.626
REMARK INTRA:                  -1.100
REMARK UNBOUND:                -1.442
REMARK  Name = 
REMARK  9 active torsions:
REMARK  status: ('A' for Active; 'I' for Inactive)
REMARK    1  A    between atoms: C_1  and  O_2
REMARK    2  A    between atoms: O_2  and  C_3
REMARK    3  A    between atoms: C_10  and  C_11
REMARK    4  A    between atoms: N_13  and  C_14
REMARK    5  A    between atoms: C_14  and  C_15
REMARK    6  A    between atoms: C_18  and  C_19
REMARK    7  A    between atoms: C_19  and  O_20
REMARK    8  A    between atoms: O_20  and  C_21
REMARK    9  A    between atoms: C_21  and  C_22
REMARK                            x       y       z     vdW  Elec       q    Type
REMARK                         _______ _______ _______ _____ _____    ______ ____
ROOT
ATOM      1  C   UNL     1      46.602   8.761  12.801  0.00  0.00    +0.000 C 
ENDROOT
BRANCH   1   2
ATOM      2  C   UNL     1      45.838   7.625  12.157  0.00  0.00    +0.000 A 
ATOM      3  C   UNL     1      46.492   6.443  11.781  0.00  0.00    +0.000 A 
ATOM      4  C   UNL     1      45.768   5.344  11.297  0.00  0.00    +0.000 A 
ATOM      5  C   UNL     1      44.375   5.407  11.145  0.00  0.00    +0.000 A 
ATOM      6  C   UNL     1      43.733   6.617  11.444  0.00  0.00    +0.000 A 
ATOM      7  C   UNL     1      44.455   7.712  11.944  0.00  0.00    +0.000 A 
BRANCH   5   8
ATOM      8  C   UNL     1      43.595   4.205  10.659  0.00  0.00    +0.000 C 
BRANCH   8   9
ATOM      9  O   UNL     1      44.073   3.811   9.373  0.00  0.00    +0.000 OA
BRANCH   9  10
ATOM     10  C   UNL     1      44.709   2.525   9.403  0.00  0.00    +0.000 C 
BRANCH  10  11
ATOM     11  C   UNL     1      45.711   2.381   8.275  0.00  0.00    +0.000 A 
ATOM     12  C   UNL     1      46.376   1.173   8.065  0.00  0.00    +0.000 A 
ATOM     13  C   UNL     1      47.289   1.071   7.020  0.00  0.00    +0.000 A 
ATOM     14  C   UNL     1      47.505   2.167   6.196  0.00  0.00    +0.000 A 
ATOM     15  C   UNL     1      46.788   3.324   6.449  0.00  0.00    +0.000 A 
ATOM     16  N   UNL     1      45.896   3.454   7.459  0.00  0.00    +0.000 NA
ENDBRANCH  10  11
ENDBRANCH   9  10
ENDBRANCH   8   9
ENDBRANCH   5   8
ENDBRANCH   1   2
BRANCH   1  19
ATOM     17  C   UNL     1      48.296   8.929  14.597  0.00  0.00    +0.000 C 
ATOM     18  O   UNL     1      48.950   9.752  13.966  0.00  0.00    +0.000 OA
ATOM     19  N   UNL     1      47.135   8.400  14.091  0.00  0.00    +0.000 N 
ATOM     20  H   UNL     1      46.607   7.732  14.632  0.00  0.00    +0.000 HD
BRANCH  17  28
ATOM     21  C   UNL     1      48.577   5.808  16.013  0.00  0.00    +0.000 A 
ATOM     22  N   UNL     1      48.830   4.723  16.768  0.00  0.00    +0.000 NA
ATOM     23  C   UNL     1      49.318   4.916  17.996  0.00  0.00    +0.000 A 
ATOM     24  N   UNL     1      49.582   6.084  18.579  0.00  0.00    +0.000 NA
ATOM     25  C   UNL     1      49.329   7.137  17.784  0.00  0.00    +0.000 A 
ATOM     26  S   UNL     1      49.599   8.711  18.360  0.00  0.00    +0.000 S 
ATOM     27  C   UNL     1      49.100   9.394  16.883  0.00  0.00    +0.000 A 
ATOM     28  C   UNL     1      48.725   8.454  15.928  0.00  0.00    +0.000 A 
ATOM     29  C   UNL     1      48.843   7.105  16.480  0.00  0.00    +0.000 A 
BRANCH  21  31
ATOM     30  C   UNL     1      47.103   4.577  14.678  0.00  0.00    +0.000 C 
ATOM     31  O   UNL     1      48.081   5.611  14.744  0.00  0.00    +0.000 OA
ENDBRANCH  21  31
ENDBRANCH  17  28
ENDBRANCH   1  19
TORSDOF 8
ENDMDL
MODEL 6
REMARK VINA RESULT:    -6.933      2.529      3.273
REMARK INTER + INTRA:         -11.617
REMARK INTER:                 -10.427
REMARK INTRA:                  -1.190
REMARK UNBOUND:                -1.442
REMARK  Name = 
REMARK  9 active torsions:
REMARK  status: ('A' for Active; 'I' for Inactive)
REMARK    1  A    between atoms: C_1  and  O_2
REMARK    2  A    between atoms: O_2  and  C_3
REMARK    3  A    between atoms: C_10  and  C_11
REMARK    4  A    between atoms: N_13  and  C_14
REMARK    5  A    between atoms: C_14  and  C_15
REMARK    6  A    between atoms: C_18  and  C_19
REMARK    7  A    between atoms: C_19  and  O_20
REMARK    8  A    between atoms: O_20  and  C_21
REMARK    9  A    between atoms: C_21  and  C_22
REMARK                            x       y       z     vdW  Elec       q    Type
REMARK                         _______ _______ _______ _____ _____    ______ ____
ROOT
ATOM      1  C   UNL     1      47.532   4.546  15.064  0.00  0.00    +0.000 C 
ENDROOT
BRANCH   1   2
ATOM      2  C   UNL     1      46.603   4.573  13.870  0.00  0.00    +0.000 A 
ATOM      3  C   UNL     1      46.262   3.391  13.198  0.00  0.00    +0.000 A 
ATOM      4  C   UNL     1      45.309   3.397  12.170  0.00  0.00    +0.000 A 
ATOM      5  C   UNL     1      44.694   4.589  11.763  0.00  0.00    +0.000 A 
ATOM      6  C   UNL     1      45.096   5.783  12.380  0.00  0.00    +0.000 A 
ATOM      7  C   UNL     1      46.039   5.775  13.420  0.00  0.00    +0.000 A 
BRANCH   5   8
ATOM      8  C   UNL     1      43.638   4.585  10.679  0.00  0.00    +0.000 C 
BRANCH   8   9
ATOM      9  O   UNL     1      43.999   3.651   9.662  0.00  0.00    +0.000 OA
BRANCH   9  10
ATOM     10  C   UNL     1      44.802   4.251   8.636  0.00  0.00    +0.000 C 
BRANCH  10  11
ATOM     11  C   UNL     1      45.703   3.228   7.974  0.00  0.00    +0.000 A 
ATOM     12  C   UNL     1      46.501   3.582   6.886  0.00  0.00    +0.000 A 
ATOM     13  C   UNL     1      47.320   2.621   6.301  0.00  0.00    +0.000 A 
ATOM     14  C   UNL     1      47.341   1.335   6.823  0.00  0.00    +0.000 A 
ATOM     15  C   UNL     1      46.542   1.066   7.922  0.00  0.00    +0.000 A 
ATOM     16  N   UNL     1      45.733   1.978   8.510  0.00  0.00    +0.000 NA
ENDBRANCH  10  11
ENDBRANCH   9  10
ENDBRANCH   8   9
ENDBRANCH   5   8
ENDBRANCH   1   2
BRANCH   1  19
ATOM     17  C   UNL     1      48.719   6.620  15.702  0.00  0.00    +0.000 C 
ATOM     18  O   UNL     1      49.730   6.283  15.095  0.00  0.00    +0.000 OA
ATOM     19  N   UNL     1      47.603   5.821  15.730  0.00  0.00    +0.000 N 
ATOM     20  H   UNL     1      46.779   6.123  16.227  0.00  0.00    +0.000 HD
BRANCH  17  28
ATOM     21  C   UNL     1      47.727   7.451  18.888  0.00  0.00    +0.000 A 
ATOM     22  N   UNL     1      47.461   8.022  20.077  0.00  0.00    +0.000 NA
ATOM     23  C   UNL     1      47.663   9.337  20.197  0.00  0.00    +0.000 A 
ATOM     24  N   UNL     1      48.102  10.169  19.255  0.00  0.00    +0.000 NA
ATOM     25  C   UNL     1      48.369   9.553  18.092  0.00  0.00    +0.000 A 
ATOM     26  S   UNL     1      48.931  10.458  16.769  0.00  0.00    +0.000 S 
ATOM     27  C   UNL     1      49.033   9.066  15.794  0.00  0.00    +0.000 A 
ATOM     28  C   UNL     1      48.650   7.896  16.442  0.00  0.00    +0.000 A 
ATOM     29  C   UNL     1      48.232   8.197  17.811  0.00  0.00    +0.000 A 
BRANCH  21  31
ATOM     30  C   UNL     1      48.361   5.320  19.618  0.00  0.00    +0.000 C 
ATOM     31  O   UNL     1      47.524   6.094  18.763  0.00  0.00    +0.000 OA
ENDBRANCH  21  31
ENDBRANCH  17  28
ENDBRANCH   1  19
TORSDOF 8
ENDMDL
MODEL 7
REMARK VINA RESULT:    -6.478      3.022      3.821
REMARK INTER + INTRA:         -10.949
REMARK INTER:                  -9.955
REMARK INTRA:                  -0.994
REMARK UNBOUND:                -1.442
REMARK  Name = 
REMARK  9 active torsions:
REMARK  status: ('A' for Active; 'I' for Inactive)
REMARK    1  A    between atoms: C_1  and  O_2
REMARK    2  A    between atoms: O_2  and  C_3
REMARK    3  A    between atoms: C_10  and  C_11
REMARK    4  A    between atoms: N_13  and  C_14
REMARK    5  A    between atoms: C_14  and  C_15
REMARK    6  A    between atoms: C_18  and  C_19
REMARK    7  A    between atoms: C_19  and  O_20
REMARK    8  A    between atoms: O_20  and  C_21
REMARK    9  A    between atoms: C_21  and  C_22
REMARK                            x       y       z     vdW  Elec       q    Type
REMARK                         _______ _______ _______ _____ _____    ______ ____
ROOT
ATOM      1  C   UNL     1      45.628   8.388  12.777  0.00  0.00    +0.000 C 
ENDROOT
BRANCH   1   2
ATOM      2  C   UNL     1      45.044   7.032  12.443  0.00  0.00    +0.000 A 
ATOM      3  C   UNL     1      44.044   6.901  11.469  0.00  0.00    +0.000 A 
ATOM      4  C   UNL     1      43.588   5.636  11.071  0.00  0.00    +0.000 A 
ATOM      5  C   UNL     1      44.096   4.469  11.659  0.00  0.00    +0.000 A 
ATOM      6  C   UNL     1      45.036   4.604  12.691  0.00  0.00    +0.000 A 
ATOM      7  C   UNL     1      45.504   5.870  13.078  0.00  0.00    +0.000 A 
BRANCH   5   8
ATOM      8  C   UNL     1      43.629   3.105  11.199  0.00  0.00    +0.000 C 
BRANCH   8   9
ATOM      9  O   UNL     1      43.828   2.979   9.791  0.00  0.00    +0.000 OA
BRANCH   9  10
ATOM     10  C   UNL     1      44.545   1.783   9.451  0.00  0.00    +0.000 C 
BRANCH  10  11
ATOM     11  C   UNL     1      45.626   2.064   8.426  0.00  0.00    +0.000 A 
ATOM     12  C   UNL     1      45.777   3.340   7.884  0.00  0.00    +0.000 A 
ATOM     13  C   UNL     1      46.780   3.567   6.946  0.00  0.00    +0.000 A 
ATOM     14  C   UNL     1      47.623   2.525   6.586  0.00  0.00    +0.000 A 
ATOM     15  C   UNL     1      47.430   1.293   7.188  0.00  0.00    +0.000 A 
ATOM     16  N   UNL     1      46.461   1.040   8.100  0.00  0.00    +0.000 NA
ENDBRANCH  10  11
ENDBRANCH   9  10
ENDBRANCH   8   9
ENDBRANCH   5   8
ENDBRANCH   1   2
BRANCH   1  19
ATOM     17  C   UNL     1      47.814   9.166  13.633  0.00  0.00    +0.000 C 
ATOM     18  O   UNL     1      47.852  10.091  12.828  0.00  0.00    +0.000 OA
ATOM     19  N   UNL     1      46.757   8.292  13.667  0.00  0.00    +0.000 N 
ATOM     20  H   UNL     1      46.742   7.544  14.344  0.00  0.00    +0.000 HD
BRANCH  17  28
ATOM     21  C   UNL     1      51.213   8.764  13.302  0.00  0.00    +0.000 A 
ATOM     22  N   UNL     1      52.545   8.642  13.452  0.00  0.00    +0.000 NA
ATOM     23  C   UNL     1      53.025   8.510  14.691  0.00  0.00    +0.000 A 
ATOM     24  N   UNL     1      52.324   8.477  15.823  0.00  0.00    +0.000 NA
ATOM     25  C   UNL     1      51.002   8.618  15.626  0.00  0.00    +0.000 A 
ATOM     26  S   UNL     1      49.946   8.593  16.956  0.00  0.00    +0.000 S 
ATOM     27  C   UNL     1      48.592   8.830  15.950  0.00  0.00    +0.000 A 
ATOM     28  C   UNL     1      48.907   8.935  14.599  0.00  0.00    +0.000 A 
ATOM     29  C   UNL     1      50.349   8.786  14.409  0.00  0.00    +0.000 A 
BRANCH  21  31
ATOM     30  C   UNL     1      50.495   7.663  11.367  0.00  0.00    +0.000 C 
ATOM     31  O   UNL     1      50.717   8.907  12.025  0.00  0.00    +0.000 OA
ENDBRANCH  21  31
ENDBRANCH  17  28
ENDBRANCH   1  19
TORSDOF 8
ENDMDL
MODEL 8
REMARK VINA RESULT:    -6.370      3.226      7.759
REMARK INTER + INTRA:         -10.791
REMARK INTER:                  -9.253
REMARK INTRA:                  -1.539
REMARK UNBOUND:                -1.442
REMARK  Name = 
REMARK  9 active torsions:
REMARK  status: ('A' for Active; 'I' for Inactive)
REMARK    1  A    between atoms: C_1  and  O_2
REMARK    2  A    between atoms: O_2  and  C_3
REMARK    3  A    between atoms: C_10  and  C_11
REMARK    4  A    between atoms: N_13  and  C_14
REMARK    5  A    between atoms: C_14  and  C_15
REMARK    6  A    between atoms: C_18  and  C_19
REMARK    7  A    between atoms: C_19  and  O_20
REMARK    8  A    between atoms: O_20  and  C_21
REMARK    9  A    between atoms: C_21  and  C_22
REMARK                            x       y       z     vdW  Elec       q    Type
REMARK                         _______ _______ _______ _____ _____    ______ ____
ROOT
ATOM      1  C   UNL     1      48.386   8.121  11.975  0.00  0.00    +0.000 C 
ENDROOT
BRANCH   1   2
ATOM      2  C   UNL     1      48.572   7.996  13.472  0.00  0.00    +0.000 A 
ATOM      3  C   UNL     1      48.243   9.057  14.328  0.00  0.00    +0.000 A 
ATOM      4  C   UNL     1      48.299   8.902  15.720  0.00  0.00    +0.000 A 
ATOM      5  C   UNL     1      48.717   7.693  16.295  0.00  0.00    +0.000 A 
ATOM      6  C   UNL     1      49.125   6.660  15.438  0.00  0.00    +0.000 A 
ATOM      7  C   UNL     1      49.054   6.810  14.045  0.00  0.00    +0.000 A 
BRANCH   5   8
ATOM      8  C   UNL     1      48.739   7.519  17.798  0.00  0.00    +0.000 C 
BRANCH   8   9
ATOM      9  O   UNL     1      49.879   6.747  18.175  0.00  0.00    +0.000 OA
BRANCH   9  10
ATOM     10  C   UNL     1      49.526   5.623  18.992  0.00  0.00    +0.000 C 
BRANCH  10  11
ATOM     11  C   UNL     1      49.331   4.374  18.155  0.00  0.00    +0.000 A 
ATOM     12  C   UNL     1      50.420   3.579  17.801  0.00  0.00    +0.000 A 
ATOM     13  C   UNL     1      50.209   2.437  17.033  0.00  0.00    +0.000 A 
ATOM     14  C   UNL     1      48.917   2.103  16.652  0.00  0.00    +0.000 A 
ATOM     15  C   UNL     1      47.883   2.926  17.065  0.00  0.00    +0.000 A 
ATOM     16  N   UNL     1      48.057   4.044  17.809  0.00  0.00    +0.000 NA
ENDBRANCH  10  11
ENDBRANCH   9  10
ENDBRANCH   8   9
ENDBRANCH   5   8
ENDBRANCH   1   2
BRANCH   1  19
ATOM     17  C   UNL     1      46.278   6.978  11.369  0.00  0.00    +0.000 C 
ATOM     18  O   UNL     1      45.598   7.905  11.797  0.00  0.00    +0.000 OA
ATOM     19  N   UNL     1      47.649   7.014  11.422  0.00  0.00    +0.000 N 
ATOM     20  H   UNL     1      48.188   6.244  11.055  0.00  0.00    +0.000 HD
BRANCH  17  28
ATOM     21  C   UNL     1      44.520   4.342  12.706  0.00  0.00    +0.000 A 
ATOM     22  N   UNL     1      43.770   3.254  12.962  0.00  0.00    +0.000 NA
ATOM     23  C   UNL     1      43.423   2.479  11.931  0.00  0.00    +0.000 A 
ATOM     24  N   UNL     1      43.745   2.657  10.651  0.00  0.00    +0.000 NA
ATOM     25  C   UNL     1      44.480   3.762  10.442  0.00  0.00    +0.000 A 
ATOM     26  S   UNL     1      44.992   4.148   8.870  0.00  0.00    +0.000 S 
ATOM     27  C   UNL     1      45.772   5.560   9.414  0.00  0.00    +0.000 A 
ATOM     28  C   UNL     1      45.660   5.770  10.785  0.00  0.00    +0.000 A 
ATOM     29  C   UNL     1      44.904   4.679  11.398  0.00  0.00    +0.000 A 
BRANCH  21  31
ATOM     30  C   UNL     1      46.122   4.787  14.353  0.00  0.00    +0.000 C 
ATOM     31  O   UNL     1      44.874   5.146  13.768  0.00  0.00    +0.000 OA
ENDBRANCH  21  31
ENDBRANCH  17  28
ENDBRANCH   1  19
TORSDOF 8
ENDMDL
MODEL 9
REMARK VINA RESULT:    -6.368      3.150      5.101
REMARK INTER + INTRA:         -10.787
REMARK INTER:                 -10.220
REMARK INTRA:                  -0.568
REMARK UNBOUND:                -1.442
REMARK  Name = 
REMARK  9 active torsions:
REMARK  status: ('A' for Active; 'I' for Inactive)
REMARK    1  A    between atoms: C_1  and  O_2
REMARK    2  A    between atoms: O_2  and  C_3
REMARK    3  A    between atoms: C_10  and  C_11
REMARK    4  A    between atoms: N_13  and  C_14
REMARK    5  A    between atoms: C_14  and  C_15
REMARK    6  A    between atoms: C_18  and  C_19
REMARK    7  A    between atoms: C_19  and  O_20
REMARK    8  A    between atoms: O_20  and  C_21
REMARK    9  A    between atoms: C_21  and  C_22
REMARK                            x       y       z     vdW  Elec       q    Type
REMARK                         _______ _______ _______ _____ _____    ______ ____
ROOT
ATOM      1  C   UNL     1      47.567   5.583  14.672  0.00  0.00    +0.000 C 
ENDROOT
BRANCH   1   2
ATOM      2  C   UNL     1      46.542   4.983  13.733  0.00  0.00    +0.000 A 
ATOM      3  C   UNL     1      46.648   3.650  13.311  0.00  0.00    +0.000 A 
ATOM      4  C   UNL     1      45.637   3.057  12.542  0.00  0.00    +0.000 A 
ATOM      5  C   UNL     1      44.508   3.788  12.145  0.00  0.00    +0.000 A 
ATOM      6  C   UNL     1      44.443   5.144  12.499  0.00  0.00    +0.000 A 
ATOM      7  C   UNL     1      45.447   5.734  13.283  0.00  0.00    +0.000 A 
BRANCH   5   8
ATOM      8  C   UNL     1      43.403   3.133  11.348  0.00  0.00    +0.000 C 
BRANCH   8   9
ATOM      9  O   UNL     1      43.962   2.439  10.233  0.00  0.00    +0.000 OA
BRANCH   9  10
ATOM     10  C   UNL     1      44.280   3.324   9.149  0.00  0.00    +0.000 C 
BRANCH  10  11
ATOM     11  C   UNL     1      45.383   2.753   8.279  0.00  0.00    +0.000 A 
ATOM     12  C   UNL     1      46.024   3.551   7.331  0.00  0.00    +0.000 A 
ATOM     13  C   UNL     1      47.035   2.999   6.549  0.00  0.00    +0.000 A 
ATOM     14  C   UNL     1      47.398   1.673   6.742  0.00  0.00    +0.000 A 
ATOM     15  C   UNL     1      46.735   0.953   7.722  0.00  0.00    +0.000 A 
ATOM     16  N   UNL     1      45.747   1.460   8.496  0.00  0.00    +0.000 NA
ENDBRANCH  10  11
ENDBRANCH   9  10
ENDBRANCH   8   9
ENDBRANCH   5   8
ENDBRANCH   1   2
BRANCH   1  19
ATOM     17  C   UNL     1      48.725   7.197  13.198  0.00  0.00    +0.000 C 
ATOM     18  O   UNL     1      49.154   6.302  12.478  0.00  0.00    +0.000 OA
ATOM     19  N   UNL     1      47.940   6.921  14.290  0.00  0.00    +0.000 N 
ATOM     20  H   UNL     1      47.589   7.674  14.863  0.00  0.00    +0.000 HD
BRANCH  17  28
ATOM     21  C   UNL     1      51.080   8.780  11.256  0.00  0.00    +0.000 A 
ATOM     22  N   UNL     1      51.845   9.629  10.545  0.00  0.00    +0.000 NA
ATOM     23  C   UNL     1      51.613  10.938  10.673  0.00  0.00    +0.000 A 
ATOM     24  N   UNL     1      50.695  11.516  11.446  0.00  0.00    +0.000 NA
ATOM     25  C   UNL     1      49.945  10.631  12.124  0.00  0.00    +0.000 A 
ATOM     26  S   UNL     1      48.726  11.186  13.169  0.00  0.00    +0.000 S 
ATOM     27  C   UNL     1      48.281   9.595  13.579  0.00  0.00    +0.000 A 
ATOM     28  C   UNL     1      49.036   8.617  12.938  0.00  0.00    +0.000 A 
ATOM     29  C   UNL     1      50.045   9.244  12.085  0.00  0.00    +0.000 A 
BRANCH  21  31
ATOM     30  C   UNL     1      51.953   7.092   9.893  0.00  0.00    +0.000 C 
ATOM     31  O   UNL     1      51.314   7.430  11.120  0.00  0.00    +0.000 OA
ENDBRANCH  21  31
ENDBRANCH  17  28
ENDBRANCH   1  19
TORSDOF 8
ENDMDL
