MODEL 1
REMARK VINA RESULT:    -8.158      0.000      0.000
REMARK INTER + INTRA:         -12.395
REMARK INTER:                 -11.497
REMARK INTRA:                  -0.898
REMARK UNBOUND:                -0.898
REMARK  Name = 
REMARK  7 active torsions:
REMARK  status: ('A' for Active; 'I' for Inactive)
REMARK    1  A    between atoms: C_2  and  C_20
REMARK    2  A    between atoms: N_3  and  C_4
REMARK    3  A    between atoms: C_4  and  C_5
REMARK    4  A    between atoms: C_8  and  C_9
REMARK    5  A    between atoms: C_9  and  C_10
REMARK    6  A    between atoms: C_10  and  C_11
REMARK    7  A    between atoms: C_11  and  N_12
REMARK                            x       y       z     vdW  Elec       q    Type
REMARK                         _______ _______ _______ _____ _____    ______ ____
ROOT
ATOM      1  C   UNL     1      44.681   6.287  11.394  0.00  0.00    +0.000 C 
ENDROOT
BRANCH   1   2
ATOM      2  C   UNL     1      45.785   6.833  12.246  0.00  0.00    +0.000 A 
ATOM      3  C   UNL     1      45.747   8.122  12.784  0.00  0.00    +0.000 A 
ATOM      4  C   UNL     1      46.791   8.566  13.594  0.00  0.00    +0.000 A 
ATOM      5  C   UNL     1      47.844   7.699  13.860  0.00  0.00    +0.000 A 
ATOM      6  N   UNL     1      47.877   6.427  13.388  0.00  0.00    +0.000 NA
ATOM      7  C   UNL     1      46.858   6.027  12.600  0.00  0.00    +0.000 A 
BRANCH   5   8
ATOM      8  C   UNL     1      49.032   8.134  14.675  0.00  0.00    +0.000 C 
BRANCH   8   9
ATOM      9  C   UNL     1      48.969   7.586  16.107  0.00  0.00    +0.000 C 
BRANCH   9  10
ATOM     10  C   UNL     1      50.009   6.488  16.390  0.00  0.00    +0.000 C 
BRANCH  10  11
ATOM     11  N   UNL     1      49.415   5.146  16.503  0.00  0.00    +0.000 NA
ATOM     12  C   UNL     1      50.084   4.330  17.528  0.00  0.00    +0.000 C 
ATOM     13  C   UNL     1      49.527   2.907  17.525  0.00  0.00    +0.000 C 
ATOM     14  C   UNL     1      48.022   2.904  17.747  0.00  0.00    +0.000 C 
ATOM     15  C   UNL     1      47.334   3.843  16.762  0.00  0.00    +0.000 C 
ATOM     16  C   UNL     1      47.971   5.234  16.773  0.00  0.00    +0.000 C 
ENDBRANCH  10  11
ENDBRANCH   9  10
ENDBRANCH   8   9
ENDBRANCH   5   8
ENDBRANCH   1   2
BRANCH   1  19
ATOM     17  O   UNL     1      45.977   5.869   8.893  0.00  0.00    +0.000 OA
ATOM     18  C   UNL     1      45.585   4.925   9.560  0.00  0.00    +0.000 C 
ATOM     19  N   UNL     1      45.090   5.027  10.839  0.00  0.00    +0.000 N 
ATOM     20  H   UNL     1      44.582   4.219  11.184  0.00  0.00    +0.000 HD
BRANCH  18  21
ATOM     21  C   UNL     1      45.374   3.580   9.030  0.00  0.00    +0.000 A 
ATOM     22  C   UNL     1      44.502   2.656   9.567  0.00  0.00    +0.000 A 
ATOM     23  N   UNL     1      44.884   1.418   9.116  0.00  0.00    +0.000 N 
ATOM     24  C   UNL     1      45.930   1.544   8.231  0.00  0.00    +0.000 A 
ATOM     25  C   UNL     1      46.728   0.587   7.618  0.00  0.00    +0.000 A 
ATOM     26  N   UNL     1      47.663   0.983   6.722  0.00  0.00    +0.000 NA
ATOM     27  C   UNL     1      47.784   2.299   6.433  0.00  0.00    +0.000 A 
ATOM     28  C   UNL     1      47.061   3.305   7.048  0.00  0.00    +0.000 A 
ATOM     29  C   UNL     1      46.131   2.904   8.021  0.00  0.00    +0.000 A 
ATOM     30  H   UNL     1      44.500   0.539   9.437  0.00  0.00    +0.000 HD
ENDBRANCH  18  21
ENDBRANCH   1  19
TORSDOF 7
ENDMDL
MODEL 2
REMARK VINA RESULT:    -8.090      2.641      9.458
REMARK INTER + INTRA:         -12.299
REMARK INTER:                 -11.338
REMARK INTRA:                  -0.961
REMARK UNBOUND:                -0.898
REMARK  Name = 
REMARK  7 active torsions:
REMARK  status: ('A' for Active; 'I' for Inactive)
REMARK    1  A    between atoms: C_2  and  C_20
REMARK    2  A    between atoms: N_3  and  C_4
REMARK    3  A    between atoms: C_4  and  C_5
REMARK    4  A    between atoms: C_8  and  C_9
REMARK    5  A    between atoms: C_9  and  C_10
REMARK    6  A    between atoms: C_10  and  C_11
REMARK    7  A    between atoms: C_11  and  N_12
REMARK                            x       y       z     vdW  Elec       q    Type
REMARK                         _______ _______ _______ _____ _____    ______ ____
ROOT
ATOM      1  C   UNL     1      48.112   6.780  13.809  0.00  0.00    +0.000 C 
ENDROOT
BRANCH   1   2
ATOM      2  C   UNL     1      47.067   5.917  13.171  0.00  0.00    +0.000 A 
ATOM      3  C   UNL     1      46.495   6.226  11.934  0.00  0.00    +0.000 A 
ATOM      4  C   UNL     1      45.547   5.369  11.376  0.00  0.00    +0.000 A 
ATOM      5  C   UNL     1      45.206   4.212  12.066  0.00  0.00    +0.000 A 
ATOM      6  N   UNL     1      45.784   3.869  13.245  0.00  0.00    +0.000 NA
ATOM      7  C   UNL     1      46.691   4.720  13.766  0.00  0.00    +0.000 A 
BRANCH   5   8
ATOM      8  C   UNL     1      44.145   3.276  11.551  0.00  0.00    +0.000 C 
BRANCH   8   9
ATOM      9  C   UNL     1      44.094   3.266  10.017  0.00  0.00    +0.000 C 
BRANCH   9  10
ATOM     10  C   UNL     1      44.730   2.014   9.390  0.00  0.00    +0.000 C 
BRANCH  10  11
ATOM     11  N   UNL     1      45.871   2.324   8.514  0.00  0.00    +0.000 NA
ATOM     12  C   UNL     1      46.405   1.122   7.855  0.00  0.00    +0.000 C 
ATOM     13  C   UNL     1      47.664   1.463   7.060  0.00  0.00    +0.000 C 
ATOM     14  C   UNL     1      47.389   2.550   6.032  0.00  0.00    +0.000 C 
ATOM     15  C   UNL     1      46.724   3.754   6.692  0.00  0.00    +0.000 C 
ATOM     16  C   UNL     1      45.503   3.340   7.516  0.00  0.00    +0.000 C 
ENDBRANCH  10  11
ENDBRANCH   9  10
ENDBRANCH   8   9
ENDBRANCH   5   8
ENDBRANCH   1   2
BRANCH   1  19
ATOM     17  O   UNL     1      50.215   6.390  15.690  0.00  0.00    +0.000 OA
ATOM     18  C   UNL     1      49.047   6.375  16.044  0.00  0.00    +0.000 C 
ATOM     19  N   UNL     1      47.982   6.703  15.238  0.00  0.00    +0.000 N 
ATOM     20  H   UNL     1      47.069   6.420  15.573  0.00  0.00    +0.000 HD
BRANCH  18  21
ATOM     21  C   UNL     1      48.582   5.797  17.303  0.00  0.00    +0.000 A 
ATOM     22  C   UNL     1      47.792   4.671  17.401  0.00  0.00    +0.000 A 
ATOM     23  N   UNL     1      47.202   4.687  18.640  0.00  0.00    +0.000 N 
ATOM     24  C   UNL     1      47.671   5.758  19.367  0.00  0.00    +0.000 A 
ATOM     25  C   UNL     1      47.285   6.261  20.603  0.00  0.00    +0.000 A 
ATOM     26  N   UNL     1      47.966   7.305  21.131  0.00  0.00    +0.000 NA
ATOM     27  C   UNL     1      49.015   7.821  20.451  0.00  0.00    +0.000 A 
ATOM     28  C   UNL     1      49.414   7.404  19.194  0.00  0.00    +0.000 A 
ATOM     29  C   UNL     1      48.674   6.359  18.615  0.00  0.00    +0.000 A 
ATOM     30  H   UNL     1      46.481   4.049  18.949  0.00  0.00    +0.000 HD
ENDBRANCH  18  21
ENDBRANCH   1  19
TORSDOF 7
ENDMDL
MODEL 3
REMARK VINA RESULT:    -8.041      1.681      2.434
REMARK INTER + INTRA:         -12.230
REMARK INTER:                 -11.597
REMARK INTRA:                  -0.633
REMARK UNBOUND:                -0.898
REMARK  Name = 
REMARK  7 active torsions:
REMARK  status: ('A' for Active; 'I' for Inactive)
REMARK    1  A    between atoms: C_2  and  C_20
REMARK    2  A    between atoms: N_3  and  C_4
REMARK    3  A    between atoms: C_4  and  C_5
REMARK    4  A    between atoms: C_8  and  C_9
REMARK    5  A    between atoms: C_9  and  C_10
REMARK    6  A    between atoms: C_10  and  C_11
REMARK    7  A    between atoms: C_11  and  N_12
REMARK                            x       y       z     vdW  Elec       q    Type
REMARK                         _______ _______ _______ _____ _____    ______ ____
ROOT
ATOM      1  C   UNL     1      45.673   6.257  10.569  0.00  0.00    +0.000 C 
ENDROOT
BRANCH   1   2
ATOM      2  C   UNL     1      46.096   5.702  11.894  0.00  0.00    +0.000 A 
ATOM      3  C   UNL     1      47.144   6.253  12.636  0.00  0.00    +0.000 A 
ATOM      4  C   UNL     1      47.473   5.711  13.878  0.00  0.00    +0.000 A 
ATOM      5  C   UNL     1      46.733   4.636  14.354  0.00  0.00    +0.000 A 
ATOM      6  N   UNL     1      45.681   4.116  13.672  0.00  0.00    +0.000 NA
ATOM      7  C   UNL     1      45.390   4.654  12.470  0.00  0.00    +0.000 A 
BRANCH   5   8
ATOM      8  C   UNL     1      47.075   3.964  15.657  0.00  0.00    +0.000 C 
BRANCH   8   9
ATOM      9  C   UNL     1      48.219   4.684  16.383  0.00  0.00    +0.000 C 
BRANCH   9  10
ATOM     10  C   UNL     1      48.387   4.248  17.848  0.00  0.00    +0.000 C 
BRANCH  10  11
ATOM     11  N   UNL     1      49.650   3.534  18.097  0.00  0.00    +0.000 NA
ATOM     12  C   UNL     1      49.847   2.416  17.163  0.00  0.00    +0.000 C 
ATOM     13  C   UNL     1      51.099   1.624  17.534  0.00  0.00    +0.000 C 
ATOM     14  C   UNL     1      52.331   2.517  17.555  0.00  0.00    +0.000 C 
ATOM     15  C   UNL     1      52.087   3.742  18.430  0.00  0.00    +0.000 C 
ATOM     16  C   UNL     1      50.792   4.460  18.044  0.00  0.00    +0.000 C 
ENDBRANCH  10  11
ENDBRANCH   9  10
ENDBRANCH   8   9
ENDBRANCH   5   8
ENDBRANCH   1   2
BRANCH   1  19
ATOM     17  O   UNL     1      43.428   4.878   9.486  0.00  0.00    +0.000 OA
ATOM     18  C   UNL     1      44.567   4.516   9.234  0.00  0.00    +0.000 C 
ATOM     19  N   UNL     1      45.701   5.209   9.586  0.00  0.00    +0.000 N 
ATOM     20  H   UNL     1      46.571   4.692   9.532  0.00  0.00    +0.000 HD
BRANCH  18  21
ATOM     21  C   UNL     1      44.909   3.194   8.717  0.00  0.00    +0.000 A 
ATOM     22  C   UNL     1      44.450   2.005   9.246  0.00  0.00    +0.000 A 
ATOM     23  N   UNL     1      45.295   1.011   8.822  0.00  0.00    +0.000 N 
ATOM     24  C   UNL     1      46.233   1.530   7.959  0.00  0.00    +0.000 A 
ATOM     25  C   UNL     1      47.357   0.956   7.378  0.00  0.00    +0.000 A 
ATOM     26  N   UNL     1      48.088   1.681   6.499  0.00  0.00    +0.000 NA
ATOM     27  C   UNL     1      47.697   2.940   6.195  0.00  0.00    +0.000 A 
ATOM     28  C   UNL     1      46.623   3.589   6.779  0.00  0.00    +0.000 A 
ATOM     29  C   UNL     1      45.896   2.861   7.736  0.00  0.00    +0.000 A 
ATOM     30  H   UNL     1      45.274   0.053   9.146  0.00  0.00    +0.000 HD
ENDBRANCH  18  21
ENDBRANCH   1  19
TORSDOF 7
ENDMDL
MODEL 4
REMARK VINA RESULT:    -7.842      1.974      2.540
REMARK INTER + INTRA:         -11.949
REMARK INTER:                 -11.227
REMARK INTRA:                  -0.722
REMARK UNBOUND:                -0.898
REMARK  Name = 
REMARK  7 active torsions:
REMARK  status: ('A' for Active; 'I' for Inactive)
REMARK    1  A    between atoms: C_2  and  C_20
REMARK    2  A    between atoms: N_3  and  C_4
REMARK    3  A    between atoms: C_4  and  C_5
REMARK    4  A    between atoms: C_8  and  C_9
REMARK    5  A    between atoms: C_9  and  C_10
REMARK    6  A    between atoms: C_10  and  C_11
REMARK    7  A    between atoms: C_11  and  N_12
REMARK                            x       y       z     vdW  Elec       q    Type
REMARK                         _______ _______ _______ _____ _____    ______ ____
ROOT
ATOM      1  C   UNL     1      45.637   6.202  10.660  0.00  0.00    +0.000 C 
ENDROOT
BRANCH   1   2
ATOM      2  C   UNL     1      46.129   5.644  11.960  0.00  0.00    +0.000 A 
ATOM      3  C   UNL     1      47.177   6.230  12.676  0.00  0.00    +0.000 A 
ATOM      4  C   UNL     1      47.573   5.682  13.896  0.00  0.00    +0.000 A 
ATOM      5  C   UNL     1      46.898   4.567  14.377  0.00  0.00    +0.000 A 
ATOM      6  N   UNL     1      45.847   4.013  13.721  0.00  0.00    +0.000 NA
ATOM      7  C   UNL     1      45.490   4.557  12.541  0.00  0.00    +0.000 A 
BRANCH   5   8
ATOM      8  C   UNL     1      47.314   3.890  15.655  0.00  0.00    +0.000 C 
BRANCH   8   9
ATOM      9  C   UNL     1      47.927   4.884  16.651  0.00  0.00    +0.000 C 
BRANCH   9  10
ATOM     10  C   UNL     1      48.911   4.235  17.639  0.00  0.00    +0.000 C 
BRANCH  10  11
ATOM     11  N   UNL     1      48.794   4.770  19.005  0.00  0.00    +0.000 NA
ATOM     12  C   UNL     1      50.065   5.326  19.492  0.00  0.00    +0.000 C 
ATOM     13  C   UNL     1      49.937   5.751  20.954  0.00  0.00    +0.000 C 
ATOM     14  C   UNL     1      48.815   6.760  21.138  0.00  0.00    +0.000 C 
ATOM     15  C   UNL     1      47.519   6.237  20.527  0.00  0.00    +0.000 C 
ATOM     16  C   UNL     1      47.725   5.778  19.081  0.00  0.00    +0.000 C 
ENDBRANCH  10  11
ENDBRANCH   9  10
ENDBRANCH   8   9
ENDBRANCH   5   8
ENDBRANCH   1   2
BRANCH   1  19
ATOM     17  O   UNL     1      43.412   4.848   9.506  0.00  0.00    +0.000 OA
ATOM     18  C   UNL     1      44.555   4.491   9.268  0.00  0.00    +0.000 C 
ATOM     19  N   UNL     1      45.683   5.175   9.656  0.00  0.00    +0.000 N 
ATOM     20  H   UNL     1      46.553   4.657   9.609  0.00  0.00    +0.000 HD
BRANCH  18  21
ATOM     21  C   UNL     1      44.906   3.178   8.731  0.00  0.00    +0.000 A 
ATOM     22  C   UNL     1      44.447   1.979   9.235  0.00  0.00    +0.000 A 
ATOM     23  N   UNL     1      45.299   0.995   8.800  0.00  0.00    +0.000 N 
ATOM     24  C   UNL     1      46.242   1.533   7.954  0.00  0.00    +0.000 A 
ATOM     25  C   UNL     1      47.372   0.974   7.372  0.00  0.00    +0.000 A 
ATOM     26  N   UNL     1      48.108   1.716   6.512  0.00  0.00    +0.000 NA
ATOM     27  C   UNL     1      47.714   2.979   6.227  0.00  0.00    +0.000 A 
ATOM     28  C   UNL     1      46.634   3.614   6.814  0.00  0.00    +0.000 A 
ATOM     29  C   UNL     1      45.902   2.866   7.752  0.00  0.00    +0.000 A 
ATOM     30  H   UNL     1      45.279   0.032   9.107  0.00  0.00    +0.000 HD
ENDBRANCH  18  21
ENDBRANCH   1  19
TORSDOF 7
ENDMDL
MODEL 5
REMARK VINA RESULT:    -7.813      2.008      8.675
REMARK INTER + INTRA:         -11.909
REMARK INTER:                 -10.691
REMARK INTRA:                  -1.218
REMARK UNBOUND:                -0.898
REMARK  Name = 
REMARK  7 active torsions:
REMARK  status: ('A' for Active; 'I' for Inactive)
REMARK    1  A    between atoms: C_2  and  C_20
REMARK    2  A    between atoms: N_3  and  C_4
REMARK    3  A    between atoms: C_4  and  C_5
REMARK    4  A    between atoms: C_8  and  C_9
REMARK    5  A    between atoms: C_9  and  C_10
REMARK    6  A    between atoms: C_10  and  C_11
REMARK    7  A    between atoms: C_11  and  N_12
REMARK                            x       y       z     vdW  Elec       q    Type
REMARK                         _______ _______ _______ _____ _____    ______ ____
ROOT
ATOM      1  C   UNL     1      48.042   7.200  13.178  0.00  0.00    +0.000 C 
ENDROOT
BRANCH   1   2
ATOM      2  C   UNL     1      46.868   6.415  12.681  0.00  0.00    +0.000 A 
ATOM      3  C   UNL     1      46.340   5.330  13.387  0.00  0.00    +0.000 A 
ATOM      4  C   UNL     1      45.227   4.654  12.889  0.00  0.00    +0.000 A 
ATOM      5  C   UNL     1      44.658   5.091  11.699  0.00  0.00    +0.000 A 
ATOM      6  N   UNL     1      45.125   6.171  11.023  0.00  0.00    +0.000 NA
ATOM      7  C   UNL     1      46.207   6.801  11.522  0.00  0.00    +0.000 A 
BRANCH   5   8
ATOM      8  C   UNL     1      43.495   4.369  11.074  0.00  0.00    +0.000 C 
BRANCH   8   9
ATOM      9  C   UNL     1      43.875   3.743   9.726  0.00  0.00    +0.000 C 
BRANCH   9  10
ATOM     10  C   UNL     1      44.869   2.576   9.849  0.00  0.00    +0.000 C 
BRANCH  10  11
ATOM     11  N   UNL     1      45.891   2.574   8.791  0.00  0.00    +0.000 NA
ATOM     12  C   UNL     1      46.058   1.245   8.184  0.00  0.00    +0.000 C 
ATOM     13  C   UNL     1      47.213   1.254   7.185  0.00  0.00    +0.000 C 
ATOM     14  C   UNL     1      47.000   2.304   6.105  0.00  0.00    +0.000 C 
ATOM     15  C   UNL     1      46.708   3.664   6.731  0.00  0.00    +0.000 C 
ATOM     16  C   UNL     1      45.579   3.578   7.761  0.00  0.00    +0.000 C 
ENDBRANCH  10  11
ENDBRANCH   9  10
ENDBRANCH   8   9
ENDBRANCH   5   8
ENDBRANCH   1   2
BRANCH   1  19
ATOM     17  O   UNL     1      50.260   6.979  14.950  0.00  0.00    +0.000 OA
ATOM     18  C   UNL     1      49.117   6.998  15.377  0.00  0.00    +0.000 C 
ATOM     19  N   UNL     1      48.003   7.254  14.613  0.00  0.00    +0.000 N 
ATOM     20  H   UNL     1      47.113   7.005  15.029  0.00  0.00    +0.000 HD
BRANCH  18  21
ATOM     21  C   UNL     1      48.734   6.539  16.710  0.00  0.00    +0.000 A 
ATOM     22  C   UNL     1      48.898   7.272  17.867  0.00  0.00    +0.000 A 
ATOM     23  N   UNL     1      48.858   6.394  18.921  0.00  0.00    +0.000 N 
ATOM     24  C   UNL     1      48.582   5.126  18.464  0.00  0.00    +0.000 A 
ATOM     25  C   UNL     1      48.566   3.902  19.120  0.00  0.00    +0.000 A 
ATOM     26  N   UNL     1      48.191   2.793  18.439  0.00  0.00    +0.000 NA
ATOM     27  C   UNL     1      47.826   2.907  17.142  0.00  0.00    +0.000 A 
ATOM     28  C   UNL     1      47.874   4.084  16.416  0.00  0.00    +0.000 A 
ATOM     29  C   UNL     1      48.318   5.227  17.102  0.00  0.00    +0.000 A 
ATOM     30  H   UNL     1      49.066   6.631  19.882  0.00  0.00    +0.000 HD
ENDBRANCH  18  21
ENDBRANCH   1  19
TORSDOF 7
ENDMDL
MODEL 6
REMARK VINA RESULT:    -7.402      2.123      3.153
REMARK INTER + INTRA:         -11.329
REMARK INTER:                 -10.341
REMARK INTRA:                  -0.988
REMARK UNBOUND:                -0.898
REMARK  Name = 
REMARK  7 active torsions:
REMARK  status: ('A' for Active; 'I' for Inactive)
REMARK    1  A    between atoms: C_2  and  C_20
REMARK    2  A    between atoms: N_3  and  C_4
REMARK    3  A    between atoms: C_4  and  C_5
REMARK    4  A    between atoms: C_8  and  C_9
REMARK    5  A    between atoms: C_9  and  C_10
REMARK    6  A    between atoms: C_10  and  C_11
REMARK    7  A    between atoms: C_11  and  N_12
REMARK                            x       y       z     vdW  Elec       q    Type
REMARK                         _______ _______ _______ _____ _____    ______ ____
ROOT
ATOM      1  C   UNL     1      46.818   6.798  12.368  0.00  0.00    +0.000 C 
ENDROOT
BRANCH   1   2
ATOM      2  C   UNL     1      47.142   6.010  13.599  0.00  0.00    +0.000 A 
ATOM      3  C   UNL     1      48.036   6.471  14.569  0.00  0.00    +0.000 A 
ATOM      4  C   UNL     1      48.276   5.705  15.710  0.00  0.00    +0.000 A 
ATOM      5  C   UNL     1      47.601   4.500  15.859  0.00  0.00    +0.000 A 
ATOM      6  N   UNL     1      46.693   4.057  14.952  0.00  0.00    +0.000 NA
ATOM      7  C   UNL     1      46.486   4.813  13.855  0.00  0.00    +0.000 A 
BRANCH   5   8
ATOM      8  C   UNL     1      47.860   3.596  17.034  0.00  0.00    +0.000 C 
BRANCH   8   9
ATOM      9  C   UNL     1      49.356   3.512  17.366  0.00  0.00    +0.000 C 
BRANCH   9  10
ATOM     10  C   UNL     1      49.705   4.042  18.766  0.00  0.00    +0.000 C 
BRANCH  10  11
ATOM     11  N   UNL     1      48.889   5.200  19.165  0.00  0.00    +0.000 NA
ATOM     12  C   UNL     1      48.351   5.055  20.526  0.00  0.00    +0.000 C 
ATOM     13  C   UNL     1      47.408   6.210  20.854  0.00  0.00    +0.000 C 
ATOM     14  C   UNL     1      48.108   7.553  20.704  0.00  0.00    +0.000 C 
ATOM     15  C   UNL     1      48.772   7.660  19.336  0.00  0.00    +0.000 C 
ATOM     16  C   UNL     1      49.659   6.448  19.045  0.00  0.00    +0.000 C 
ENDBRANCH  10  11
ENDBRANCH   9  10
ENDBRANCH   8   9
ENDBRANCH   5   8
ENDBRANCH   1   2
BRANCH   1  19
ATOM     17  O   UNL     1      44.155   6.682  11.366  0.00  0.00    +0.000 OA
ATOM     18  C   UNL     1      44.983   5.845  11.042  0.00  0.00    +0.000 C 
ATOM     19  N   UNL     1      46.321   5.910  11.354  0.00  0.00    +0.000 N 
ATOM     20  H   UNL     1      46.845   5.051  11.239  0.00  0.00    +0.000 HD
BRANCH  18  21
ATOM     21  C   UNL     1      44.649   4.544  10.469  0.00  0.00    +0.000 A 
ATOM     22  C   UNL     1      43.892   3.581  11.103  0.00  0.00    +0.000 A 
ATOM     23  N   UNL     1      44.156   2.380  10.494  0.00  0.00    +0.000 N 
ATOM     24  C   UNL     1      45.001   2.574   9.425  0.00  0.00    +0.000 A 
ATOM     25  C   UNL     1      45.644   1.666   8.593  0.00  0.00    +0.000 A 
ATOM     26  N   UNL     1      46.381   2.129   7.557  0.00  0.00    +0.000 NA
ATOM     27  C   UNL     1      46.460   3.462   7.346  0.00  0.00    +0.000 A 
ATOM     28  C   UNL     1      45.892   4.420   8.169  0.00  0.00    +0.000 A 
ATOM     29  C   UNL     1      45.174   3.946   9.280  0.00  0.00    +0.000 A 
ATOM     30  H   UNL     1      43.834   1.479  10.822  0.00  0.00    +0.000 HD
ENDBRANCH  18  21
ENDBRANCH   1  19
TORSDOF 7
ENDMDL
MODEL 7
REMARK VINA RESULT:    -7.325      2.212      3.505
REMARK INTER + INTRA:         -11.220
REMARK INTER:                 -10.539
REMARK INTRA:                  -0.681
REMARK UNBOUND:                -0.898
REMARK  Name = 
REMARK  7 active torsions:
REMARK  status: ('A' for Active; 'I' for Inactive)
REMARK    1  A    between atoms: C_2  and  C_20
REMARK    2  A    between atoms: N_3  and  C_4
REMARK    3  A    between atoms: C_4  and  C_5
REMARK    4  A    between atoms: C_8  and  C_9
REMARK    5  A    between atoms: C_9  and  C_10
REMARK    6  A    between atoms: C_10  and  C_11
REMARK    7  A    between atoms: C_11  and  N_12
REMARK                            x       y       z     vdW  Elec       q    Type
REMARK                         _______ _______ _______ _____ _____    ______ ____
ROOT
ATOM      1  C   UNL     1      46.730   6.678  12.339  0.00  0.00    +0.000 C 
ENDROOT
BRANCH   1   2
ATOM      2  C   UNL     1      47.069   5.854  13.542  0.00  0.00    +0.000 A 
ATOM      3  C   UNL     1      47.870   6.340  14.580  0.00  0.00    +0.000 A 
ATOM      4  C   UNL     1      48.128   5.536  15.689  0.00  0.00    +0.000 A 
ATOM      5  C   UNL     1      47.564   4.268  15.741  0.00  0.00    +0.000 A 
ATOM      6  N   UNL     1      46.744   3.796  14.768  0.00  0.00    +0.000 NA
ATOM      7  C   UNL     1      46.518   4.590  13.702  0.00  0.00    +0.000 A 
BRANCH   5   8
ATOM      8  C   UNL     1      47.852   3.327  16.880  0.00  0.00    +0.000 C 
BRANCH   8   9
ATOM      9  C   UNL     1      49.112   2.490  16.618  0.00  0.00    +0.000 C 
BRANCH   9  10
ATOM     10  C   UNL     1      50.056   2.405  17.829  0.00  0.00    +0.000 C 
BRANCH  10  11
ATOM     11  N   UNL     1      51.475   2.318  17.450  0.00  0.00    +0.000 NA
ATOM     12  C   UNL     1      52.298   3.311  18.158  0.00  0.00    +0.000 C 
ATOM     13  C   UNL     1      53.736   3.276  17.644  0.00  0.00    +0.000 C 
ATOM     14  C   UNL     1      54.341   1.888  17.790  0.00  0.00    +0.000 C 
ATOM     15  C   UNL     1      53.430   0.839  17.161  0.00  0.00    +0.000 C 
ATOM     16  C   UNL     1      51.994   0.960  17.675  0.00  0.00    +0.000 C 
ENDBRANCH  10  11
ENDBRANCH   9  10
ENDBRANCH   8   9
ENDBRANCH   5   8
ENDBRANCH   1   2
BRANCH   1  19
ATOM     17  O   UNL     1      44.051   6.528  11.382  0.00  0.00    +0.000 OA
ATOM     18  C   UNL     1      44.895   5.727  11.010  0.00  0.00    +0.000 C 
ATOM     19  N   UNL     1      46.236   5.817  11.299  0.00  0.00    +0.000 N 
ATOM     20  H   UNL     1      46.781   4.977  11.141  0.00  0.00    +0.000 HD
BRANCH  18  21
ATOM     21  C   UNL     1      44.585   4.441  10.392  0.00  0.00    +0.000 A 
ATOM     22  C   UNL     1      43.818   3.456  10.979  0.00  0.00    +0.000 A 
ATOM     23  N   UNL     1      44.107   2.274  10.343  0.00  0.00    +0.000 N 
ATOM     24  C   UNL     1      44.977   2.504   9.302  0.00  0.00    +0.000 A 
ATOM     25  C   UNL     1      45.648   1.624   8.462  0.00  0.00    +0.000 A 
ATOM     26  N   UNL     1      46.409   2.121   7.459  0.00  0.00    +0.000 NA
ATOM     27  C   UNL     1      46.483   3.460   7.288  0.00  0.00    +0.000 A 
ATOM     28  C   UNL     1      45.888   4.390   8.123  0.00  0.00    +0.000 A 
ATOM     29  C   UNL     1      45.145   3.880   9.200  0.00  0.00    +0.000 A 
ATOM     30  H   UNL     1      43.781   1.363  10.636  0.00  0.00    +0.000 HD
ENDBRANCH  18  21
ENDBRANCH   1  19
TORSDOF 7
ENDMDL
MODEL 8
REMARK VINA RESULT:    -7.308      1.763      2.208
REMARK INTER + INTRA:         -11.197
REMARK INTER:                 -10.324
REMARK INTRA:                  -0.873
REMARK UNBOUND:                -0.898
REMARK  Name = 
REMARK  7 active torsions:
REMARK  status: ('A' for Active; 'I' for Inactive)
REMARK    1  A    between atoms: C_2  and  C_20
REMARK    2  A    between atoms: N_3  and  C_4
REMARK    3  A    between atoms: C_4  and  C_5
REMARK    4  A    between atoms: C_8  and  C_9
REMARK    5  A    between atoms: C_9  and  C_10
REMARK    6  A    between atoms: C_10  and  C_11
REMARK    7  A    between atoms: C_11  and  N_12
REMARK                            x       y       z     vdW  Elec       q    Type
REMARK                         _______ _______ _______ _____ _____    ______ ____
ROOT
ATOM      1  C   UNL     1      44.633   6.026  11.798  0.00  0.00    +0.000 C 
ENDROOT
BRANCH   1   2
ATOM      2  C   UNL     1      45.769   6.578  12.604  0.00  0.00    +0.000 A 
ATOM      3  C   UNL     1      46.734   5.759  13.196  0.00  0.00    +0.000 A 
ATOM      4  C   UNL     1      47.785   6.332  13.911  0.00  0.00    +0.000 A 
ATOM      5  C   UNL     1      47.854   7.717  14.002  0.00  0.00    +0.000 A 
ATOM      6  N   UNL     1      46.955   8.532  13.393  0.00  0.00    +0.000 NA
ATOM      7  C   UNL     1      45.944   7.951  12.716  0.00  0.00    +0.000 A 
BRANCH   5   8
ATOM      8  C   UNL     1      48.926   8.398  14.809  0.00  0.00    +0.000 C 
BRANCH   8   9
ATOM      9  C   UNL     1      49.178   7.675  16.140  0.00  0.00    +0.000 C 
BRANCH   9  10
ATOM     10  C   UNL     1      48.891   8.545  17.375  0.00  0.00    +0.000 C 
BRANCH  10  11
ATOM     11  N   UNL     1      48.064   7.862  18.382  0.00  0.00    +0.000 NA
ATOM     12  C   UNL     1      48.133   6.399  18.255  0.00  0.00    +0.000 C 
ATOM     13  C   UNL     1      47.165   5.731  19.230  0.00  0.00    +0.000 C 
ATOM     14  C   UNL     1      47.451   6.150  20.664  0.00  0.00    +0.000 C 
ATOM     15  C   UNL     1      47.499   7.670  20.778  0.00  0.00    +0.000 C 
ATOM     16  C   UNL     1      48.443   8.282  19.741  0.00  0.00    +0.000 C 
ENDBRANCH  10  11
ENDBRANCH   9  10
ENDBRANCH   8   9
ENDBRANCH   5   8
ENDBRANCH   1   2
BRANCH   1  19
ATOM     17  O   UNL     1      45.715   5.868   9.168  0.00  0.00    +0.000 OA
ATOM     18  C   UNL     1      45.447   4.857   9.797  0.00  0.00    +0.000 C 
ATOM     19  N   UNL     1      45.068   4.837  11.119  0.00  0.00    +0.000 N 
ATOM     20  H   UNL     1      44.648   3.975  11.447  0.00  0.00    +0.000 HD
BRANCH  18  21
ATOM     21  C   UNL     1      45.274   3.539   9.191  0.00  0.00    +0.000 A 
ATOM     22  C   UNL     1      44.408   2.572   9.657  0.00  0.00    +0.000 A 
ATOM     23  N   UNL     1      44.824   1.366   9.150  0.00  0.00    +0.000 N 
ATOM     24  C   UNL     1      45.886   1.560   8.296  0.00  0.00    +0.000 A 
ATOM     25  C   UNL     1      46.716   0.651   7.651  0.00  0.00    +0.000 A 
ATOM     26  N   UNL     1      47.662   1.112   6.800  0.00  0.00    +0.000 NA
ATOM     27  C   UNL     1      47.765   2.444   6.584  0.00  0.00    +0.000 A 
ATOM     28  C   UNL     1      47.009   3.402   7.236  0.00  0.00    +0.000 A 
ATOM     29  C   UNL     1      46.066   2.932   8.165  0.00  0.00    +0.000 A 
ATOM     30  H   UNL     1      44.450   0.465   9.414  0.00  0.00    +0.000 HD
ENDBRANCH  18  21
ENDBRANCH   1  19
TORSDOF 7
ENDMDL
MODEL 9
REMARK VINA RESULT:    -7.176      2.356      8.982
REMARK INTER + INTRA:         -11.010
REMARK INTER:                 -10.158
REMARK INTRA:                  -0.852
REMARK UNBOUND:                -0.898
REMARK  Name = 
REMARK  7 active torsions:
REMARK  status: ('A' for Active; 'I' for Inactive)
REMARK    1  A    between atoms: C_2  and  C_20
REMARK    2  A    between atoms: N_3  and  C_4
REMARK    3  A    between atoms: C_4  and  C_5
REMARK    4  A    between atoms: C_8  and  C_9
REMARK    5  A    between atoms: C_9  and  C_10
REMARK    6  A    between atoms: C_10  and  C_11
REMARK    7  A    between atoms: C_11  and  N_12
REMARK                            x       y       z     vdW  Elec       q    Type
REMARK                         _______ _______ _______ _____ _____    ______ ____
ROOT
ATOM      1  C   UNL     1      45.670   8.667  12.890  0.00  0.00    +0.000 C 
ENDROOT
BRANCH   1   2
ATOM      2  C   UNL     1      45.430   7.224  12.569  0.00  0.00    +0.000 A 
ATOM      3  C   UNL     1      45.839   6.190  13.415  0.00  0.00    +0.000 A 
ATOM      4  C   UNL     1      45.563   4.866  13.077  0.00  0.00    +0.000 A 
ATOM      5  C   UNL     1      44.866   4.610  11.902  0.00  0.00    +0.000 A 
ATOM      6  N   UNL     1      44.418   5.601  11.090  0.00  0.00    +0.000 NA
ATOM      7  C   UNL     1      44.706   6.871  11.437  0.00  0.00    +0.000 A 
BRANCH   5   8
ATOM      8  C   UNL     1      44.589   3.202  11.446  0.00  0.00    +0.000 C 
BRANCH   8   9
ATOM      9  C   UNL     1      44.173   3.157   9.970  0.00  0.00    +0.000 C 
BRANCH   9  10
ATOM     10  C   UNL     1      44.733   1.942   9.211  0.00  0.00    +0.000 C 
BRANCH  10  11
ATOM     11  N   UNL     1      45.885   2.275   8.359  0.00  0.00    +0.000 NA
ATOM     12  C   UNL     1      46.485   1.080   7.746  0.00  0.00    +0.000 C 
ATOM     13  C   UNL     1      47.751   1.451   6.977  0.00  0.00    +0.000 C 
ATOM     14  C   UNL     1      47.462   2.500   5.914  0.00  0.00    +0.000 C 
ATOM     15  C   UNL     1      46.732   3.692   6.523  0.00  0.00    +0.000 C 
ATOM     16  C   UNL     1      45.506   3.251   7.325  0.00  0.00    +0.000 C 
ENDBRANCH  10  11
ENDBRANCH   9  10
ENDBRANCH   8   9
ENDBRANCH   5   8
ENDBRANCH   1   2
BRANCH   1  19
ATOM     17  O   UNL     1      48.444   9.253  12.623  0.00  0.00    +0.000 OA
ATOM     18  C   UNL     1      47.977   8.914  13.699  0.00  0.00    +0.000 C 
ATOM     19  N   UNL     1      46.634   8.761  13.952  0.00  0.00    +0.000 N 
ATOM     20  H   UNL     1      46.397   8.252  14.795  0.00  0.00    +0.000 HD
BRANCH  18  21
ATOM     21  C   UNL     1      48.773   8.407  14.814  0.00  0.00    +0.000 A 
ATOM     22  C   UNL     1      49.660   7.355  14.726  0.00  0.00    +0.000 A 
ATOM     23  N   UNL     1      49.870   6.885  15.999  0.00  0.00    +0.000 N 
ATOM     24  C   UNL     1      49.203   7.677  16.905  0.00  0.00    +0.000 A 
ATOM     25  C   UNL     1      49.010   7.534  18.274  0.00  0.00    +0.000 A 
ATOM     26  N   UNL     1      48.359   8.507  18.953  0.00  0.00    +0.000 NA
ATOM     27  C   UNL     1      47.927   9.602  18.286  0.00  0.00    +0.000 A 
ATOM     28  C   UNL     1      48.037   9.779  16.918  0.00  0.00    +0.000 A 
ATOM     29  C   UNL     1      48.660   8.745  16.200  0.00  0.00    +0.000 A 
ATOM     30  H   UNL     1      50.383   6.045  16.230  0.00  0.00    +0.000 HD
ENDBRANCH  18  21
ENDBRANCH   1  19
TORSDOF 7
ENDMDL
