MODEL 1
REMARK VINA RESULT:    -7.390      0.000      0.000
REMARK INTER + INTRA:         -11.218
REMARK INTER:                  -9.982
REMARK INTRA:                  -1.236
REMARK UNBOUND:                -1.236
REMARK  Name = 
REMARK  7 active torsions:
REMARK  status: ('A' for Active; 'I' for Inactive)
REMARK    1  A    between atoms: C_1  and  O_2
REMARK    2  A    between atoms: O_2  and  C_3
REMARK    3  A    between atoms: C_5  and  C_6
REMARK    4  A    between atoms: C_11  and  O_12
REMARK    5  A    between atoms: O_12  and  C_13
REMARK    6  A    between atoms: C_13  and  C_14
REMARK    7  A    between atoms: C_18  and  C_19
REMARK                            x       y       z     vdW  Elec       q    Type
REMARK                         _______ _______ _______ _____ _____    ______ ____
ROOT
ATOM      1  O   UNL     1      44.156   6.590  12.611  0.00  0.00    +0.000 OA
ENDROOT
BRANCH   1   7
ATOM      2  C   UNL     1      46.450   5.828  13.272  0.00  0.00    +0.000 A 
ATOM      3  C   UNL     1      47.812   6.159  13.262  0.00  0.00    +0.000 A 
ATOM      4  C   UNL     1      48.284   7.328  12.649  0.00  0.00    +0.000 A 
ATOM      5  C   UNL     1      47.365   8.184  12.034  0.00  0.00    +0.000 A 
ATOM      6  C   UNL     1      46.000   7.871  12.053  0.00  0.00    +0.000 A 
ATOM      7  C   UNL     1      45.525   6.706  12.675  0.00  0.00    +0.000 A 
BRANCH   4   8
ATOM      8  C   UNL     1      49.752   7.575  12.695  0.00  0.00    +0.000 C 
ATOM      9  N   UNL     1      50.387   7.539  13.902  0.00  0.00    +0.000 N 
ATOM     10  O   UNL     1      50.394   7.812  11.677  0.00  0.00    +0.000 OA
ATOM     11  H   UNL     1      49.951   7.359  14.789  0.00  0.00    +0.000 HD
ATOM     12  H   UNL     1      51.385   7.719  13.892  0.00  0.00    +0.000 HD
ENDBRANCH   4   8
BRANCH   2  14
ATOM     13  C   UNL     1      46.519   3.437  13.249  0.00  0.00    +0.000 C 
ATOM     14  O   UNL     1      45.996   4.645  13.788  0.00  0.00    +0.000 OA
ENDBRANCH   2  14
ENDBRANCH   1   7
BRANCH   1  15
ATOM     15  C   UNL     1      43.575   6.312  11.335  0.00  0.00    +0.000 C 
BRANCH  15  16
ATOM     16  C   UNL     1      43.632   4.837  10.998  0.00  0.00    +0.000 A 
ATOM     17  C   UNL     1      43.123   3.884  11.872  0.00  0.00    +0.000 A 
ATOM     18  C   UNL     1      43.313   2.538  11.574  0.00  0.00    +0.000 A 
ATOM     19  C   UNL     1      43.997   2.178  10.415  0.00  0.00    +0.000 A 
ATOM     20  C   UNL     1      44.469   3.181   9.575  0.00  0.00    +0.000 A 
ATOM     21  N   UNL     1      44.294   4.494   9.863  0.00  0.00    +0.000 NA
BRANCH  20  22
ATOM     22  C   UNL     1      45.208   2.847   8.294  0.00  0.00    +0.000 C 
ATOM     23  C   UNL     1      46.012   1.546   8.444  0.00  0.00    +0.000 C 
ATOM     24  C   UNL     1      46.918   1.314   7.243  0.00  0.00    +0.000 C 
ATOM     25  O   UNL     1      47.759   2.441   7.011  0.00  0.00    +0.000 OA
ATOM     26  C   UNL     1      47.008   3.613   6.702  0.00  0.00    +0.000 C 
ATOM     27  C   UNL     1      46.115   4.010   7.868  0.00  0.00    +0.000 C 
ENDBRANCH  20  22
ENDBRANCH  15  16
ENDBRANCH   1  15
TORSDOF 6
ENDMDL
MODEL 2
REMARK VINA RESULT:    -7.167      2.135      6.403
REMARK INTER + INTRA:         -10.916
REMARK INTER:                 -10.817
REMARK INTRA:                  -0.100
REMARK UNBOUND:                -1.236
REMARK  Name = 
REMARK  7 active torsions:
REMARK  status: ('A' for Active; 'I' for Inactive)
REMARK    1  A    between atoms: C_1  and  O_2
REMARK    2  A    between atoms: O_2  and  C_3
REMARK    3  A    between atoms: C_5  and  C_6
REMARK    4  A    between atoms: C_11  and  O_12
REMARK    5  A    between atoms: O_12  and  C_13
REMARK    6  A    between atoms: C_13  and  C_14
REMARK    7  A    between atoms: C_18  and  C_19
REMARK                            x       y       z     vdW  Elec       q    Type
REMARK                         _______ _______ _______ _____ _____    ______ ____
ROOT
ATOM      1  O   UNL     1      43.997   4.889  10.182  0.00  0.00    +0.000 OA
ENDROOT
BRANCH   1   7
ATOM      2  C   UNL     1      44.733   2.622   9.410  0.00  0.00    +0.000 A 
ATOM      3  C   UNL     1      45.620   1.931   8.572  0.00  0.00    +0.000 A 
ATOM      4  C   UNL     1      46.504   2.604   7.717  0.00  0.00    +0.000 A 
ATOM      5  C   UNL     1      46.497   4.001   7.705  0.00  0.00    +0.000 A 
ATOM      6  C   UNL     1      45.626   4.701   8.552  0.00  0.00    +0.000 A 
ATOM      7  C   UNL     1      44.748   4.029   9.415  0.00  0.00    +0.000 A 
BRANCH   4   8
ATOM      8  C   UNL     1      47.397   1.768   6.868  0.00  0.00    +0.000 C 
ATOM      9  N   UNL     1      48.533   2.327   6.358  0.00  0.00    +0.000 N 
ATOM     10  O   UNL     1      47.131   0.597   6.617  0.00  0.00    +0.000 OA
ATOM     11  H   UNL     1      48.836   3.273   6.502  0.00  0.00    +0.000 HD
ATOM     12  H   UNL     1      49.110   1.727   5.780  0.00  0.00    +0.000 HD
ENDBRANCH   4   8
BRANCH   2  14
ATOM     13  C   UNL     1      43.525   2.491  11.471  0.00  0.00    +0.000 C 
ATOM     14  O   UNL     1      43.806   1.970  10.178  0.00  0.00    +0.000 OA
ENDBRANCH   2  14
ENDBRANCH   1   7
BRANCH   1  15
ATOM     15  C   UNL     1      44.642   6.062  10.683  0.00  0.00    +0.000 C 
BRANCH  15  16
ATOM     16  C   UNL     1      45.597   5.743  11.813  0.00  0.00    +0.000 A 
ATOM     17  C   UNL     1      45.187   4.982  12.901  0.00  0.00    +0.000 A 
ATOM     18  C   UNL     1      46.065   4.823  13.970  0.00  0.00    +0.000 A 
ATOM     19  C   UNL     1      47.323   5.419  13.924  0.00  0.00    +0.000 A 
ATOM     20  C   UNL     1      47.676   6.156  12.799  0.00  0.00    +0.000 A 
ATOM     21  N   UNL     1      46.825   6.320  11.758  0.00  0.00    +0.000 NA
BRANCH  20  22
ATOM     22  C   UNL     1      49.039   6.813  12.689  0.00  0.00    +0.000 C 
ATOM     23  C   UNL     1      49.449   7.458  14.022  0.00  0.00    +0.000 C 
ATOM     24  C   UNL     1      50.710   8.296  13.867  0.00  0.00    +0.000 C 
ATOM     25  O   UNL     1      50.558   9.261  12.828  0.00  0.00    +0.000 OA
ATOM     26  C   UNL     1      50.346   8.649  11.557  0.00  0.00    +0.000 C 
ATOM     27  C   UNL     1      49.056   7.842  11.550  0.00  0.00    +0.000 C 
ENDBRANCH  20  22
ENDBRANCH  15  16
ENDBRANCH   1  15
TORSDOF 6
ENDMDL
MODEL 3
REMARK VINA RESULT:    -7.139      2.471      6.762
REMARK INTER + INTRA:         -10.879
REMARK INTER:                 -10.637
REMARK INTRA:                  -0.243
REMARK UNBOUND:                -1.236
REMARK  Name = 
REMARK  7 active torsions:
REMARK  status: ('A' for Active; 'I' for Inactive)
REMARK    1  A    between atoms: C_1  and  O_2
REMARK    2  A    between atoms: O_2  and  C_3
REMARK    3  A    between atoms: C_5  and  C_6
REMARK    4  A    between atoms: C_11  and  O_12
REMARK    5  A    between atoms: O_12  and  C_13
REMARK    6  A    between atoms: C_13  and  C_14
REMARK    7  A    between atoms: C_18  and  C_19
REMARK                            x       y       z     vdW  Elec       q    Type
REMARK                         _______ _______ _______ _____ _____    ______ ____
ROOT
ATOM      1  O   UNL     1      44.096   5.227   9.938  0.00  0.00    +0.000 OA
ENDROOT
BRANCH   1   7
ATOM      2  C   UNL     1      44.480   2.766   9.663  0.00  0.00    +0.000 A 
ATOM      3  C   UNL     1      45.250   1.795   9.008  0.00  0.00    +0.000 A 
ATOM      4  C   UNL     1      46.223   2.140   8.059  0.00  0.00    +0.000 A 
ATOM      5  C   UNL     1      46.426   3.490   7.764  0.00  0.00    +0.000 A 
ATOM      6  C   UNL     1      45.674   4.470   8.426  0.00  0.00    +0.000 A 
ATOM      7  C   UNL     1      44.707   4.127   9.382  0.00  0.00    +0.000 A 
BRANCH   4   8
ATOM      8  C   UNL     1      46.977   1.024   7.423  0.00  0.00    +0.000 C 
ATOM      9  N   UNL     1      46.661  -0.260   7.761  0.00  0.00    +0.000 N 
ATOM     10  O   UNL     1      47.870   1.236   6.610  0.00  0.00    +0.000 OA
ATOM     11  H   UNL     1      45.952  -0.536   8.416  0.00  0.00    +0.000 HD
ATOM     12  H   UNL     1      47.202  -0.990   7.311  0.00  0.00    +0.000 HD
ENDBRANCH   4   8
BRANCH   2  14
ATOM     13  C   UNL     1      43.794   2.221  11.889  0.00  0.00    +0.000 C 
ATOM     14  O   UNL     1      43.467   2.431  10.521  0.00  0.00    +0.000 OA
ENDBRANCH   2  14
ENDBRANCH   1   7
BRANCH   1  15
ATOM     15  C   UNL     1      44.024   5.293  11.364  0.00  0.00    +0.000 C 
BRANCH  15  16
ATOM     16  C   UNL     1      45.328   5.759  11.975  0.00  0.00    +0.000 A 
ATOM     17  C   UNL     1      46.195   6.582  11.266  0.00  0.00    +0.000 A 
ATOM     18  C   UNL     1      47.436   6.878  11.822  0.00  0.00    +0.000 A 
ATOM     19  C   UNL     1      47.777   6.354  13.067  0.00  0.00    +0.000 A 
ATOM     20  C   UNL     1      46.858   5.548  13.730  0.00  0.00    +0.000 A 
ATOM     21  N   UNL     1      45.651   5.249  13.192  0.00  0.00    +0.000 NA
BRANCH  20  22
ATOM     22  C   UNL     1      47.170   4.963  15.094  0.00  0.00    +0.000 C 
ATOM     23  C   UNL     1      48.323   5.723  15.770  0.00  0.00    +0.000 C 
ATOM     24  C   UNL     1      48.782   5.018  17.038  0.00  0.00    +0.000 C 
ATOM     25  O   UNL     1      49.118   3.658  16.774  0.00  0.00    +0.000 OA
ATOM     26  C   UNL     1      47.997   2.911  16.307  0.00  0.00    +0.000 C 
ATOM     27  C   UNL     1      47.488   3.465  14.984  0.00  0.00    +0.000 C 
ENDBRANCH  20  22
ENDBRANCH  15  16
ENDBRANCH   1  15
TORSDOF 6
ENDMDL
MODEL 4
REMARK VINA RESULT:    -7.080      2.260      6.449
REMARK INTER + INTRA:         -10.800
REMARK INTER:                  -9.741
REMARK INTRA:                  -1.058
REMARK UNBOUND:                -1.236
REMARK  Name = 
REMARK  7 active torsions:
REMARK  status: ('A' for Active; 'I' for Inactive)
REMARK    1  A    between atoms: C_1  and  O_2
REMARK    2  A    between atoms: O_2  and  C_3
REMARK    3  A    between atoms: C_5  and  C_6
REMARK    4  A    between atoms: C_11  and  O_12
REMARK    5  A    between atoms: O_12  and  C_13
REMARK    6  A    between atoms: C_13  and  C_14
REMARK    7  A    between atoms: C_18  and  C_19
REMARK                            x       y       z     vdW  Elec       q    Type
REMARK                         _______ _______ _______ _____ _____    ______ ____
ROOT
ATOM      1  O   UNL     1      43.446   3.892  10.330  0.00  0.00    +0.000 OA
ENDROOT
BRANCH   1   7
ATOM      2  C   UNL     1      45.365   4.254   8.760  0.00  0.00    +0.000 A 
ATOM      3  C   UNL     1      46.288   3.620   7.916  0.00  0.00    +0.000 A 
ATOM      4  C   UNL     1      46.342   2.224   7.796  0.00  0.00    +0.000 A 
ATOM      5  C   UNL     1      45.448   1.450   8.540  0.00  0.00    +0.000 A 
ATOM      6  C   UNL     1      44.510   2.074   9.373  0.00  0.00    +0.000 A 
ATOM      7  C   UNL     1      44.448   3.471   9.487  0.00  0.00    +0.000 A 
BRANCH   4   8
ATOM      8  C   UNL     1      47.367   1.660   6.874  0.00  0.00    +0.000 C 
ATOM      9  N   UNL     1      48.421   2.444   6.505  0.00  0.00    +0.000 N 
ATOM     10  O   UNL     1      47.279   0.516   6.442  0.00  0.00    +0.000 OA
ATOM     11  H   UNL     1      48.580   3.391   6.799  0.00  0.00    +0.000 HD
ATOM     12  H   UNL     1      49.093   2.026   5.871  0.00  0.00    +0.000 HD
ENDBRANCH   4   8
BRANCH   2  14
ATOM     13  C   UNL     1      46.502   6.192   9.583  0.00  0.00    +0.000 C 
ATOM     14  O   UNL     1      45.369   5.609   8.950  0.00  0.00    +0.000 OA
ENDBRANCH   2  14
ENDBRANCH   1   7
BRANCH   1  15
ATOM     15  C   UNL     1      43.557   3.545  11.712  0.00  0.00    +0.000 C 
BRANCH  15  16
ATOM     16  C   UNL     1      44.827   4.089  12.331  0.00  0.00    +0.000 A 
ATOM     17  C   UNL     1      45.784   3.235  12.867  0.00  0.00    +0.000 A 
ATOM     18  C   UNL     1      46.871   3.790  13.535  0.00  0.00    +0.000 A 
ATOM     19  C   UNL     1      46.980   5.174  13.646  0.00  0.00    +0.000 A 
ATOM     20  C   UNL     1      45.995   5.973  13.075  0.00  0.00    +0.000 A 
ATOM     21  N   UNL     1      44.930   5.440  12.430  0.00  0.00    +0.000 NA
BRANCH  20  22
ATOM     22  C   UNL     1      46.070   7.485  13.153  0.00  0.00    +0.000 C 
ATOM     23  C   UNL     1      45.006   8.139  12.257  0.00  0.00    +0.000 C 
ATOM     24  C   UNL     1      45.208   9.644  12.165  0.00  0.00    +0.000 C 
ATOM     25  O   UNL     1      46.533   9.958  11.741  0.00  0.00    +0.000 OA
ATOM     26  C   UNL     1      47.514   9.496  12.667  0.00  0.00    +0.000 C 
ATOM     27  C   UNL     1      47.477   7.980  12.788  0.00  0.00    +0.000 C 
ENDBRANCH  20  22
ENDBRANCH  15  16
ENDBRANCH   1  15
TORSDOF 6
ENDMDL
MODEL 5
REMARK VINA RESULT:    -6.954      1.034      2.125
REMARK INTER + INTRA:         -10.630
REMARK INTER:                  -9.704
REMARK INTRA:                  -0.926
REMARK UNBOUND:                -1.236
REMARK  Name = 
REMARK  7 active torsions:
REMARK  status: ('A' for Active; 'I' for Inactive)
REMARK    1  A    between atoms: C_1  and  O_2
REMARK    2  A    between atoms: O_2  and  C_3
REMARK    3  A    between atoms: C_5  and  C_6
REMARK    4  A    between atoms: C_11  and  O_12
REMARK    5  A    between atoms: O_12  and  C_13
REMARK    6  A    between atoms: C_13  and  C_14
REMARK    7  A    between atoms: C_18  and  C_19
REMARK                            x       y       z     vdW  Elec       q    Type
REMARK                         _______ _______ _______ _____ _____    ______ ____
ROOT
ATOM      1  O   UNL     1      44.240   6.622  12.606  0.00  0.00    +0.000 OA
ENDROOT
BRANCH   1   7
ATOM      2  C   UNL     1      46.051   8.321  12.280  0.00  0.00    +0.000 A 
ATOM      3  C   UNL     1      47.438   8.527  12.270  0.00  0.00    +0.000 A 
ATOM      4  C   UNL     1      48.340   7.499  12.579  0.00  0.00    +0.000 A 
ATOM      5  C   UNL     1      47.836   6.236  12.904  0.00  0.00    +0.000 A 
ATOM      6  C   UNL     1      46.452   6.016  12.900  0.00  0.00    +0.000 A 
ATOM      7  C   UNL     1      45.549   7.041  12.582  0.00  0.00    +0.000 A 
BRANCH   4   8
ATOM      8  C   UNL     1      49.791   7.833  12.542  0.00  0.00    +0.000 C 
ATOM      9  N   UNL     1      50.570   7.275  11.570  0.00  0.00    +0.000 N 
ATOM     10  O   UNL     1      50.295   8.592  13.363  0.00  0.00    +0.000 OA
ATOM     11  H   UNL     1      50.254   6.642  10.857  0.00  0.00    +0.000 HD
ATOM     12  H   UNL     1      51.552   7.523  11.583  0.00  0.00    +0.000 HD
ENDBRANCH   4   8
BRANCH   2  14
ATOM     13  C   UNL     1      45.691  10.634  11.783  0.00  0.00    +0.000 C 
ATOM     14  O   UNL     1      45.166   9.343  12.069  0.00  0.00    +0.000 OA
ENDBRANCH   2  14
ENDBRANCH   1   7
BRANCH   1  15
ATOM     15  C   UNL     1      43.613   6.339  11.352  0.00  0.00    +0.000 C 
BRANCH  15  16
ATOM     16  C   UNL     1      43.659   4.863  11.018  0.00  0.00    +0.000 A 
ATOM     17  C   UNL     1      43.145   3.916  11.896  0.00  0.00    +0.000 A 
ATOM     18  C   UNL     1      43.325   2.568  11.600  0.00  0.00    +0.000 A 
ATOM     19  C   UNL     1      44.003   2.201  10.440  0.00  0.00    +0.000 A 
ATOM     20  C   UNL     1      44.480   3.199   9.597  0.00  0.00    +0.000 A 
ATOM     21  N   UNL     1      44.315   4.513   9.882  0.00  0.00    +0.000 NA
BRANCH  20  22
ATOM     22  C   UNL     1      45.212   2.856   8.314  0.00  0.00    +0.000 C 
ATOM     23  C   UNL     1      46.024   1.561   8.471  0.00  0.00    +0.000 C 
ATOM     24  C   UNL     1      46.924   1.322   7.267  0.00  0.00    +0.000 C 
ATOM     25  O   UNL     1      47.758   2.452   7.019  0.00  0.00    +0.000 OA
ATOM     26  C   UNL     1      46.999   3.617   6.705  0.00  0.00    +0.000 C 
ATOM     27  C   UNL     1      46.111   4.020   7.872  0.00  0.00    +0.000 C 
ENDBRANCH  20  22
ENDBRANCH  15  16
ENDBRANCH   1  15
TORSDOF 6
ENDMDL
MODEL 6
REMARK VINA RESULT:    -6.826      2.497      3.621
REMARK INTER + INTRA:         -10.457
REMARK INTER:                  -9.590
REMARK INTRA:                  -0.867
REMARK UNBOUND:                -1.236
REMARK  Name = 
REMARK  7 active torsions:
REMARK  status: ('A' for Active; 'I' for Inactive)
REMARK    1  A    between atoms: C_1  and  O_2
REMARK    2  A    between atoms: O_2  and  C_3
REMARK    3  A    between atoms: C_5  and  C_6
REMARK    4  A    between atoms: C_11  and  O_12
REMARK    5  A    between atoms: O_12  and  C_13
REMARK    6  A    between atoms: C_13  and  C_14
REMARK    7  A    between atoms: C_18  and  C_19
REMARK                            x       y       z     vdW  Elec       q    Type
REMARK                         _______ _______ _______ _____ _____    ______ ____
ROOT
ATOM      1  O   UNL     1      47.551   6.286  12.234  0.00  0.00    +0.000 OA
ENDROOT
BRANCH   1   7
ATOM      2  C   UNL     1      48.364   6.543  14.590  0.00  0.00    +0.000 A 
ATOM      3  C   UNL     1      48.399   5.948  15.859  0.00  0.00    +0.000 A 
ATOM      4  C   UNL     1      47.741   4.739  16.127  0.00  0.00    +0.000 A 
ATOM      5  C   UNL     1      47.033   4.115  15.096  0.00  0.00    +0.000 A 
ATOM      6  C   UNL     1      47.007   4.692  13.819  0.00  0.00    +0.000 A 
ATOM      7  C   UNL     1      47.673   5.897  13.547  0.00  0.00    +0.000 A 
BRANCH   4   8
ATOM      8  C   UNL     1      47.842   4.202  17.512  0.00  0.00    +0.000 C 
ATOM      9  N   UNL     1      47.087   3.118  17.855  0.00  0.00    +0.000 N 
ATOM     10  O   UNL     1      48.582   4.715  18.346  0.00  0.00    +0.000 OA
ATOM     11  H   UNL     1      46.450   2.632  17.249  0.00  0.00    +0.000 HD
ATOM     12  H   UNL     1      47.179   2.788  18.808  0.00  0.00    +0.000 HD
ENDBRANCH   4   8
BRANCH   2  14
ATOM     13  C   UNL     1      48.168   8.926  14.668  0.00  0.00    +0.000 C 
ATOM     14  O   UNL     1      48.927   7.766  14.348  0.00  0.00    +0.000 OA
ENDBRANCH   2  14
ENDBRANCH   1   7
BRANCH   1  15
ATOM     15  C   UNL     1      46.408   7.069  11.880  0.00  0.00    +0.000 C 
BRANCH  15  16
ATOM     16  C   UNL     1      45.301   6.219  11.295  0.00  0.00    +0.000 A 
ATOM     17  C   UNL     1      44.028   6.222  11.854  0.00  0.00    +0.000 A 
ATOM     18  C   UNL     1      43.082   5.330  11.358  0.00  0.00    +0.000 A 
ATOM     19  C   UNL     1      43.424   4.467  10.319  0.00  0.00    +0.000 A 
ATOM     20  C   UNL     1      44.711   4.526   9.795  0.00  0.00    +0.000 A 
ATOM     21  N   UNL     1      45.640   5.386  10.278  0.00  0.00    +0.000 NA
BRANCH  20  22
ATOM     22  C   UNL     1      45.134   3.621   8.654  0.00  0.00    +0.000 C 
ATOM     23  C   UNL     1      45.493   2.217   9.167  0.00  0.00    +0.000 C 
ATOM     24  C   UNL     1      46.116   1.369   8.068  0.00  0.00    +0.000 C 
ATOM     25  O   UNL     1      47.237   2.030   7.484  0.00  0.00    +0.000 OA
ATOM     26  C   UNL     1      46.867   3.256   6.857  0.00  0.00    +0.000 C 
ATOM     27  C   UNL     1      46.304   4.238   7.874  0.00  0.00    +0.000 C 
ENDBRANCH  20  22
ENDBRANCH  15  16
ENDBRANCH   1  15
TORSDOF 6
ENDMDL
MODEL 7
REMARK VINA RESULT:    -6.380      2.092      2.278
REMARK INTER + INTRA:          -9.853
REMARK INTER:                  -8.862
REMARK INTRA:                  -0.991
REMARK UNBOUND:                -1.236
REMARK  Name = 
REMARK  7 active torsions:
REMARK  status: ('A' for Active; 'I' for Inactive)
REMARK    1  A    between atoms: C_1  and  O_2
REMARK    2  A    between atoms: O_2  and  C_3
REMARK    3  A    between atoms: C_5  and  C_6
REMARK    4  A    between atoms: C_11  and  O_12
REMARK    5  A    between atoms: O_12  and  C_13
REMARK    6  A    between atoms: C_13  and  C_14
REMARK    7  A    between atoms: C_18  and  C_19
REMARK                            x       y       z     vdW  Elec       q    Type
REMARK                         _______ _______ _______ _____ _____    ______ ____
ROOT
ATOM      1  O   UNL     1      46.569   7.303  11.846  0.00  0.00    +0.000 OA
ENDROOT
BRANCH   1   7
ATOM      2  C   UNL     1      47.872   6.358  13.766  0.00  0.00    +0.000 A 
ATOM      3  C   UNL     1      48.541   6.670  14.958  0.00  0.00    +0.000 A 
ATOM      4  C   UNL     1      48.674   7.992  15.406  0.00  0.00    +0.000 A 
ATOM      5  C   UNL     1      48.123   9.022  14.640  0.00  0.00    +0.000 A 
ATOM      6  C   UNL     1      47.438   8.719  13.455  0.00  0.00    +0.000 A 
ATOM      7  C   UNL     1      47.295   7.396  13.011  0.00  0.00    +0.000 A 
BRANCH   4   8
ATOM      8  C   UNL     1      49.409   8.205  16.684  0.00  0.00    +0.000 C 
ATOM      9  N   UNL     1      50.681   7.724  16.800  0.00  0.00    +0.000 N 
ATOM     10  O   UNL     1      48.896   8.797  17.628  0.00  0.00    +0.000 OA
ATOM     11  H   UNL     1      51.186   7.225  16.089  0.00  0.00    +0.000 HD
ATOM     12  H   UNL     1      51.144   7.884  17.687  0.00  0.00    +0.000 HD
ENDBRANCH   4   8
BRANCH   2  14
ATOM     13  C   UNL     1      46.803   4.218  13.776  0.00  0.00    +0.000 C 
ATOM     14  O   UNL     1      47.818   5.080  13.279  0.00  0.00    +0.000 OA
ENDBRANCH   2  14
ENDBRANCH   1   7
BRANCH   1  15
ATOM     15  C   UNL     1      45.145   7.383  11.947  0.00  0.00    +0.000 C 
BRANCH  15  16
ATOM     16  C   UNL     1      44.481   6.060  11.628  0.00  0.00    +0.000 A 
ATOM     17  C   UNL     1      43.582   5.480  12.515  0.00  0.00    +0.000 A 
ATOM     18  C   UNL     1      43.097   4.206  12.233  0.00  0.00    +0.000 A 
ATOM     19  C   UNL     1      43.514   3.549  11.077  0.00  0.00    +0.000 A 
ATOM     20  C   UNL     1      44.406   4.192  10.225  0.00  0.00    +0.000 A 
ATOM     21  N   UNL     1      44.887   5.428  10.496  0.00  0.00    +0.000 NA
BRANCH  20  22
ATOM     22  C   UNL     1      44.882   3.529   8.946  0.00  0.00    +0.000 C 
ATOM     23  C   UNL     1      45.429   2.121   9.225  0.00  0.00    +0.000 C 
ATOM     24  C   UNL     1      46.099   1.533   7.991  0.00  0.00    +0.000 C 
ATOM     25  O   UNL     1      47.104   2.410   7.488  0.00  0.00    +0.000 OA
ATOM     26  C   UNL     1      46.562   3.660   7.070  0.00  0.00    +0.000 C 
ATOM     27  C   UNL     1      45.932   4.400   8.241  0.00  0.00    +0.000 C 
ENDBRANCH  20  22
ENDBRANCH  15  16
ENDBRANCH   1  15
TORSDOF 6
ENDMDL
MODEL 8
REMARK VINA RESULT:    -6.286      4.984      8.590
REMARK INTER + INTRA:          -9.727
REMARK INTER:                  -9.100
REMARK INTRA:                  -0.627
REMARK UNBOUND:                -1.236
REMARK  Name = 
REMARK  7 active torsions:
REMARK  status: ('A' for Active; 'I' for Inactive)
REMARK    1  A    between atoms: C_1  and  O_2
REMARK    2  A    between atoms: O_2  and  C_3
REMARK    3  A    between atoms: C_5  and  C_6
REMARK    4  A    between atoms: C_11  and  O_12
REMARK    5  A    between atoms: O_12  and  C_13
REMARK    6  A    between atoms: C_13  and  C_14
REMARK    7  A    between atoms: C_18  and  C_19
REMARK                            x       y       z     vdW  Elec       q    Type
REMARK                         _______ _______ _______ _____ _____    ______ ____
ROOT
ATOM      1  O   UNL     1      47.879   4.975  14.810  0.00  0.00    +0.000 OA
ENDROOT
BRANCH   1   7
ATOM      2  C   UNL     1      46.368   5.938  13.058  0.00  0.00    +0.000 A 
ATOM      3  C   UNL     1      45.409   5.634  12.082  0.00  0.00    +0.000 A 
ATOM      4  C   UNL     1      45.040   4.312  11.796  0.00  0.00    +0.000 A 
ATOM      5  C   UNL     1      45.647   3.274  12.508  0.00  0.00    +0.000 A 
ATOM      6  C   UNL     1      46.595   3.569  13.498  0.00  0.00    +0.000 A 
ATOM      7  C   UNL     1      46.958   4.891  13.792  0.00  0.00    +0.000 A 
BRANCH   4   8
ATOM      8  C   UNL     1      44.014   4.107  10.736  0.00  0.00    +0.000 C 
ATOM      9  N   UNL     1      44.170   4.743   9.538  0.00  0.00    +0.000 N 
ATOM     10  O   UNL     1      43.039   3.385  10.918  0.00  0.00    +0.000 OA
ATOM     11  H   UNL     1      44.928   5.354   9.294  0.00  0.00    +0.000 HD
ATOM     12  H   UNL     1      43.448   4.583   8.846  0.00  0.00    +0.000 HD
ENDBRANCH   4   8
BRANCH   2  14
ATOM     13  C   UNL     1      45.936   8.286  12.899  0.00  0.00    +0.000 C 
ATOM     14  O   UNL     1      46.797   7.219  13.277  0.00  0.00    +0.000 OA
ENDBRANCH   2  14
ENDBRANCH   1   7
BRANCH   1  15
ATOM     15  C   UNL     1      47.516   4.421  16.077  0.00  0.00    +0.000 C 
BRANCH  15  16
ATOM     16  C   UNL     1      48.595   4.634  17.117  0.00  0.00    +0.000 A 
ATOM     17  C   UNL     1      48.489   5.653  18.057  0.00  0.00    +0.000 A 
ATOM     18  C   UNL     1      49.564   5.886  18.909  0.00  0.00    +0.000 A 
ATOM     19  C   UNL     1      50.709   5.099  18.807  0.00  0.00    +0.000 A 
ATOM     20  C   UNL     1      50.745   4.087  17.853  0.00  0.00    +0.000 A 
ATOM     21  N   UNL     1      49.705   3.859  17.015  0.00  0.00    +0.000 NA
BRANCH  20  22
ATOM     22  C   UNL     1      51.960   3.191  17.707  0.00  0.00    +0.000 C 
ATOM     23  C   UNL     1      51.544   1.725  17.510  0.00  0.00    +0.000 C 
ATOM     24  C   UNL     1      52.747   0.795  17.573  0.00  0.00    +0.000 C 
ATOM     25  O   UNL     1      53.479   0.987  18.782  0.00  0.00    +0.000 OA
ATOM     26  C   UNL     1      54.010   2.306  18.880  0.00  0.00    +0.000 C 
ATOM     27  C   UNL     1      52.895   3.341  18.916  0.00  0.00    +0.000 C 
ENDBRANCH  20  22
ENDBRANCH  15  16
ENDBRANCH   1  15
TORSDOF 6
ENDMDL
MODEL 9
REMARK VINA RESULT:    -6.188      2.029      2.727
REMARK INTER + INTRA:          -9.594
REMARK INTER:                  -8.800
REMARK INTRA:                  -0.794
REMARK UNBOUND:                -1.236
REMARK  Name = 
REMARK  7 active torsions:
REMARK  status: ('A' for Active; 'I' for Inactive)
REMARK    1  A    between atoms: C_1  and  O_2
REMARK    2  A    between atoms: O_2  and  C_3
REMARK    3  A    between atoms: C_5  and  C_6
REMARK    4  A    between atoms: C_11  and  O_12
REMARK    5  A    between atoms: O_12  and  C_13
REMARK    6  A    between atoms: C_13  and  C_14
REMARK    7  A    between atoms: C_18  and  C_19
REMARK                            x       y       z     vdW  Elec       q    Type
REMARK                         _______ _______ _______ _____ _____    ______ ____
ROOT
ATOM      1  O   UNL     1      47.526   5.059  13.311  0.00  0.00    +0.000 OA
ENDROOT
BRANCH   1   7
ATOM      2  C   UNL     1      48.361   7.082  14.532  0.00  0.00    +0.000 A 
ATOM      3  C   UNL     1      48.654   8.448  14.415  0.00  0.00    +0.000 A 
ATOM      4  C   UNL     1      48.531   9.128  13.195  0.00  0.00    +0.000 A 
ATOM      5  C   UNL     1      48.103   8.420  12.069  0.00  0.00    +0.000 A 
ATOM      6  C   UNL     1      47.791   7.059  12.179  0.00  0.00    +0.000 A 
ATOM      7  C   UNL     1      47.904   6.379  13.401  0.00  0.00    +0.000 A 
BRANCH   4   8
ATOM      8  C   UNL     1      48.875  10.578  13.188  0.00  0.00    +0.000 C 
ATOM      9  N   UNL     1      48.731  11.294  14.341  0.00  0.00    +0.000 N 
ATOM     10  O   UNL     1      49.280  11.135  12.173  0.00  0.00    +0.000 OA
ATOM     11  H   UNL     1      48.404  10.932  15.219  0.00  0.00    +0.000 HD
ATOM     12  H   UNL     1      48.969  12.278  14.293  0.00  0.00    +0.000 HD
ENDBRANCH   4   8
BRANCH   2  14
ATOM     13  C   UNL     1      49.017   7.123  16.832  0.00  0.00    +0.000 C 
ATOM     14  O   UNL     1      48.566   6.394  15.697  0.00  0.00    +0.000 OA
ENDBRANCH   2  14
ENDBRANCH   1   7
BRANCH   1  15
ATOM     15  C   UNL     1      46.243   4.702  13.832  0.00  0.00    +0.000 C 
BRANCH  15  16
ATOM     16  C   UNL     1      45.155   4.828  12.786  0.00  0.00    +0.000 A 
ATOM     17  C   UNL     1      43.920   5.381  13.104  0.00  0.00    +0.000 A 
ATOM     18  C   UNL     1      42.914   5.358  12.142  0.00  0.00    +0.000 A 
ATOM     19  C   UNL     1      43.165   4.793  10.894  0.00  0.00    +0.000 A 
ATOM     20  C   UNL     1      44.428   4.269  10.636  0.00  0.00    +0.000 A 
ATOM     21  N   UNL     1      45.410   4.281  11.569  0.00  0.00    +0.000 NA
BRANCH  20  22
ATOM     22  C   UNL     1      44.761   3.655   9.290  0.00  0.00    +0.000 C 
ATOM     23  C   UNL     1      45.231   2.201   9.448  0.00  0.00    +0.000 C 
ATOM     24  C   UNL     1      45.765   1.646   8.135  0.00  0.00    +0.000 C 
ATOM     25  O   UNL     1      46.787   2.486   7.603  0.00  0.00    +0.000 OA
ATOM     26  C   UNL     1      46.301   3.791   7.297  0.00  0.00    +0.000 C 
ATOM     27  C   UNL     1      45.811   4.498   8.552  0.00  0.00    +0.000 C 
ENDBRANCH  20  22
ENDBRANCH  15  16
ENDBRANCH   1  15
TORSDOF 6
ENDMDL
