MODEL 1
REMARK VINA RESULT:    -7.511      0.000      0.000
REMARK INTER + INTRA:         -11.234
REMARK INTER:                 -10.145
REMARK INTRA:                  -1.089
REMARK UNBOUND:                -1.089
REMARK  Name = 
REMARK  8 active torsions:
REMARK  status: ('A' for Active; 'I' for Inactive)
REMARK    1  A    between atoms: C_1  and  C_2
REMARK    2  A    between atoms: C_4  and  C_5
REMARK    3  A    between atoms: C_10  and  N_11
REMARK    4  A    between atoms: N_11  and  C_12
REMARK    5  A    between atoms: C_12  and  C_13
REMARK    6  A    between atoms: C_13  and  C_14
REMARK    7  A    between atoms: C_13  and  C_15
REMARK    8  A    between atoms: C_19  and  C_20
REMARK                            x       y       z     vdW  Elec       q    Type
REMARK                         _______ _______ _______ _____ _____    ______ ____
ROOT
ATOM      1  N   UNL     1      43.775   3.335  10.604  0.00  0.00    +0.000 N 
ATOM      2  H   UNL     1      43.194   4.139  10.388  0.00  0.00    +0.000 HD
ENDROOT
BRANCH   1   9
ATOM      3  C   UNL     1      45.279   5.530   9.409  0.00  0.00    +0.000 C 
ATOM      4  C   UNL     1      45.445   4.090   8.998  0.00  0.00    +0.000 A 
ATOM      5  C   UNL     1      46.326   3.801   7.934  0.00  0.00    +0.000 A 
ATOM      6  C   UNL     1      46.528   2.491   7.486  0.00  0.00    +0.000 A 
ATOM      7  C   UNL     1      45.855   1.456   8.129  0.00  0.00    +0.000 A 
ATOM      8  C   UNL     1      44.971   1.739   9.180  0.00  0.00    +0.000 A 
ATOM      9  C   UNL     1      44.748   3.044   9.645  0.00  0.00    +0.000 A 
BRANCH   6  10
ATOM     10  C   UNL     1      47.436   2.279   6.318  0.00  0.00    +0.000 C 
ATOM     11  N   UNL     1      47.357   3.139   5.258  0.00  0.00    +0.000 N 
ATOM     12  O   UNL     1      48.252   1.366   6.299  0.00  0.00    +0.000 OA
ATOM     13  H   UNL     1      46.744   3.937   5.195  0.00  0.00    +0.000 HD
ATOM     14  H   UNL     1      48.011   2.985   4.503  0.00  0.00    +0.000 HD
ENDBRANCH   6  10
ENDBRANCH   1   9
BRANCH   1  15
ATOM     15  C   UNL     1      43.998   3.078  12.027  0.00  0.00    +0.000 C 
BRANCH  15  16
ATOM     16  C   UNL     1      43.882   4.352  12.905  0.00  0.00    +0.000 C 
ATOM     17  C   UNL     1      42.623   5.146  12.521  0.00  0.00    +0.000 C 
BRANCH  16  18
ATOM     18  C   UNL     1      45.124   5.239  13.020  0.00  0.00    +0.000 A 
ATOM     19  C   UNL     1      46.362   4.773  13.485  0.00  0.00    +0.000 A 
ATOM     20  C   UNL     1      47.445   5.645  13.656  0.00  0.00    +0.000 A 
ATOM     21  C   UNL     1      47.315   6.998  13.353  0.00  0.00    +0.000 A 
ATOM     22  C   UNL     1      46.100   7.488  12.873  0.00  0.00    +0.000 A 
ATOM     23  C   UNL     1      45.012   6.614  12.726  0.00  0.00    +0.000 A 
BRANCH  22  24
ATOM     24  C   UNL     1      45.960   8.874  12.528  0.00  0.00    +0.000 C 
ATOM     25  N   UNL     1      45.838   9.990  12.238  0.00  0.00    +0.000 NA
ENDBRANCH  22  24
ENDBRANCH  16  18
ENDBRANCH  15  16
ENDBRANCH   1  15
TORSDOF 6
ENDMDL
MODEL 2
REMARK VINA RESULT:    -7.480      2.152      3.035
REMARK INTER + INTRA:         -11.192
REMARK INTER:                 -10.241
REMARK INTRA:                  -0.951
REMARK UNBOUND:                -1.089
REMARK  Name = 
REMARK  8 active torsions:
REMARK  status: ('A' for Active; 'I' for Inactive)
REMARK    1  A    between atoms: C_1  and  C_2
REMARK    2  A    between atoms: C_4  and  C_5
REMARK    3  A    between atoms: C_10  and  N_11
REMARK    4  A    between atoms: N_11  and  C_12
REMARK    5  A    between atoms: C_12  and  C_13
REMARK    6  A    between atoms: C_13  and  C_14
REMARK    7  A    between atoms: C_13  and  C_15
REMARK    8  A    between atoms: C_19  and  C_20
REMARK                            x       y       z     vdW  Elec       q    Type
REMARK                         _______ _______ _______ _____ _____    ______ ____
ROOT
ATOM      1  N   UNL     1      44.197   5.186  10.157  0.00  0.00    +0.000 N 
ATOM      2  H   UNL     1      43.315   5.529   9.791  0.00  0.00    +0.000 HD
ENDROOT
BRANCH   1   9
ATOM      3  C   UNL     1      43.751   2.381  10.818  0.00  0.00    +0.000 C 
ATOM      4  C   UNL     1      44.669   2.837   9.713  0.00  0.00    +0.000 A 
ATOM      5  C   UNL     1      45.398   1.855   9.009  0.00  0.00    +0.000 A 
ATOM      6  C   UNL     1      46.279   2.197   7.977  0.00  0.00    +0.000 A 
ATOM      7  C   UNL     1      46.410   3.540   7.632  0.00  0.00    +0.000 A 
ATOM      8  C   UNL     1      45.695   4.520   8.335  0.00  0.00    +0.000 A 
ATOM      9  C   UNL     1      44.809   4.202   9.377  0.00  0.00    +0.000 A 
BRANCH   6  10
ATOM     10  C   UNL     1      47.053   1.102   7.320  0.00  0.00    +0.000 C 
ATOM     11  N   UNL     1      46.771  -0.194   7.653  0.00  0.00    +0.000 N 
ATOM     12  O   UNL     1      47.919   1.340   6.487  0.00  0.00    +0.000 OA
ATOM     13  H   UNL     1      46.058  -0.492   8.299  0.00  0.00    +0.000 HD
ATOM     14  H   UNL     1      47.291  -0.909   7.161  0.00  0.00    +0.000 HD
ENDBRANCH   6  10
ENDBRANCH   1   9
BRANCH   1  15
ATOM     15  C   UNL     1      44.980   6.150  10.930  0.00  0.00    +0.000 C 
BRANCH  15  16
ATOM     16  C   UNL     1      45.894   5.483  11.992  0.00  0.00    +0.000 C 
ATOM     17  C   UNL     1      45.044   4.911  13.138  0.00  0.00    +0.000 C 
BRANCH  16  18
ATOM     18  C   UNL     1      47.089   6.295  12.496  0.00  0.00    +0.000 A 
ATOM     19  C   UNL     1      47.852   7.135  11.672  0.00  0.00    +0.000 A 
ATOM     20  C   UNL     1      48.991   7.788  12.161  0.00  0.00    +0.000 A 
ATOM     21  C   UNL     1      49.382   7.624  13.488  0.00  0.00    +0.000 A 
ATOM     22  C   UNL     1      48.634   6.808  14.336  0.00  0.00    +0.000 A 
ATOM     23  C   UNL     1      47.508   6.137  13.834  0.00  0.00    +0.000 A 
BRANCH  22  24
ATOM     24  C   UNL     1      49.008   6.652  15.713  0.00  0.00    +0.000 C 
ATOM     25  N   UNL     1      49.322   6.519  16.821  0.00  0.00    +0.000 NA
ENDBRANCH  22  24
ENDBRANCH  16  18
ENDBRANCH  15  16
ENDBRANCH   1  15
TORSDOF 6
ENDMDL
MODEL 3
REMARK VINA RESULT:    -7.408      2.806      6.437
REMARK INTER + INTRA:         -11.095
REMARK INTER:                  -9.778
REMARK INTRA:                  -1.317
REMARK UNBOUND:                -1.089
REMARK  Name = 
REMARK  8 active torsions:
REMARK  status: ('A' for Active; 'I' for Inactive)
REMARK    1  A    between atoms: C_1  and  C_2
REMARK    2  A    between atoms: C_4  and  C_5
REMARK    3  A    between atoms: C_10  and  N_11
REMARK    4  A    between atoms: N_11  and  C_12
REMARK    5  A    between atoms: C_12  and  C_13
REMARK    6  A    between atoms: C_13  and  C_14
REMARK    7  A    between atoms: C_13  and  C_15
REMARK    8  A    between atoms: C_19  and  C_20
REMARK                            x       y       z     vdW  Elec       q    Type
REMARK                         _______ _______ _______ _____ _____    ______ ____
ROOT
ATOM      1  N   UNL     1      44.067   5.197  12.819  0.00  0.00    +0.000 N 
ATOM      2  H   UNL     1      44.091   4.493  13.550  0.00  0.00    +0.000 HD
ENDROOT
BRANCH   1   9
ATOM      3  C   UNL     1      46.567   3.855  13.491  0.00  0.00    +0.000 C 
ATOM      4  C   UNL     1      46.496   5.278  13.000  0.00  0.00    +0.000 A 
ATOM      5  C   UNL     1      47.696   6.016  12.927  0.00  0.00    +0.000 A 
ATOM      6  C   UNL     1      47.713   7.345  12.491  0.00  0.00    +0.000 A 
ATOM      7  C   UNL     1      46.513   7.933  12.101  0.00  0.00    +0.000 A 
ATOM      8  C   UNL     1      45.315   7.207  12.182  0.00  0.00    +0.000 A 
ATOM      9  C   UNL     1      45.272   5.874  12.620  0.00  0.00    +0.000 A 
BRANCH   6  10
ATOM     10  C   UNL     1      49.019   8.070  12.496  0.00  0.00    +0.000 C 
ATOM     11  N   UNL     1      50.167   7.361  12.278  0.00  0.00    +0.000 N 
ATOM     12  O   UNL     1      49.078   9.281  12.677  0.00  0.00    +0.000 OA
ATOM     13  H   UNL     1      50.218   6.373  12.087  0.00  0.00    +0.000 HD
ATOM     14  H   UNL     1      51.027   7.892  12.253  0.00  0.00    +0.000 HD
ENDBRANCH   6  10
ENDBRANCH   1   9
BRANCH   1  15
ATOM     15  C   UNL     1      43.144   4.933  11.715  0.00  0.00    +0.000 C 
BRANCH  15  16
ATOM     16  C   UNL     1      43.397   3.570  11.019  0.00  0.00    +0.000 C 
ATOM     17  C   UNL     1      43.589   2.465  12.070  0.00  0.00    +0.000 C 
BRANCH  16  18
ATOM     18  C   UNL     1      44.465   3.531   9.923  0.00  0.00    +0.000 A 
ATOM     19  C   UNL     1      44.949   4.679   9.280  0.00  0.00    +0.000 A 
ATOM     20  C   UNL     1      45.862   4.584   8.221  0.00  0.00    +0.000 A 
ATOM     21  C   UNL     1      46.319   3.338   7.794  0.00  0.00    +0.000 A 
ATOM     22  C   UNL     1      45.867   2.180   8.426  0.00  0.00    +0.000 A 
ATOM     23  C   UNL     1      44.934   2.281   9.470  0.00  0.00    +0.000 A 
BRANCH  22  24
ATOM     24  C   UNL     1      46.351   0.892   8.017  0.00  0.00    +0.000 C 
ATOM     25  N   UNL     1      46.735  -0.147   7.673  0.00  0.00    +0.000 NA
ENDBRANCH  22  24
ENDBRANCH  16  18
ENDBRANCH  15  16
ENDBRANCH   1  15
TORSDOF 6
ENDMDL
MODEL 4
REMARK VINA RESULT:    -7.405      1.341      2.325
REMARK INTER + INTRA:         -11.091
REMARK INTER:                 -10.383
REMARK INTRA:                  -0.708
REMARK UNBOUND:                -1.089
REMARK  Name = 
REMARK  8 active torsions:
REMARK  status: ('A' for Active; 'I' for Inactive)
REMARK    1  A    between atoms: C_1  and  C_2
REMARK    2  A    between atoms: C_4  and  C_5
REMARK    3  A    between atoms: C_10  and  N_11
REMARK    4  A    between atoms: N_11  and  C_12
REMARK    5  A    between atoms: C_12  and  C_13
REMARK    6  A    between atoms: C_13  and  C_14
REMARK    7  A    between atoms: C_13  and  C_15
REMARK    8  A    between atoms: C_19  and  C_20
REMARK                            x       y       z     vdW  Elec       q    Type
REMARK                         _______ _______ _______ _____ _____    ______ ____
ROOT
ATOM      1  N   UNL     1      43.935   5.024  10.191  0.00  0.00    +0.000 N 
ATOM      2  H   UNL     1      43.572   5.853   9.733  0.00  0.00    +0.000 HD
ENDROOT
BRANCH   1   9
ATOM      3  C   UNL     1      43.787   2.144  10.627  0.00  0.00    +0.000 C 
ATOM      4  C   UNL     1      44.680   2.782   9.594  0.00  0.00    +0.000 A 
ATOM      5  C   UNL     1      45.535   1.944   8.847  0.00  0.00    +0.000 A 
ATOM      6  C   UNL     1      46.402   2.459   7.878  0.00  0.00    +0.000 A 
ATOM      7  C   UNL     1      46.392   3.830   7.638  0.00  0.00    +0.000 A 
ATOM      8  C   UNL     1      45.552   4.669   8.384  0.00  0.00    +0.000 A 
ATOM      9  C   UNL     1      44.676   4.176   9.365  0.00  0.00    +0.000 A 
BRANCH   6  10
ATOM     10  C   UNL     1      47.313   1.509   7.172  0.00  0.00    +0.000 C 
ATOM     11  N   UNL     1      48.372   2.012   6.468  0.00  0.00    +0.000 N 
ATOM     12  O   UNL     1      47.139   0.297   7.223  0.00  0.00    +0.000 OA
ATOM     13  H   UNL     1      48.617   2.987   6.394  0.00  0.00    +0.000 HD
ATOM     14  H   UNL     1      48.986   1.337   6.034  0.00  0.00    +0.000 HD
ENDBRANCH   6  10
ENDBRANCH   1   9
BRANCH   1  15
ATOM     15  C   UNL     1      44.242   5.169  11.614  0.00  0.00    +0.000 C 
BRANCH  15  16
ATOM     16  C   UNL     1      45.758   5.331  11.900  0.00  0.00    +0.000 C 
ATOM     17  C   UNL     1      46.157   4.498  13.129  0.00  0.00    +0.000 C 
BRANCH  16  18
ATOM     18  C   UNL     1      46.312   6.756  11.951  0.00  0.00    +0.000 A 
ATOM     19  C   UNL     1      47.675   7.047  12.110  0.00  0.00    +0.000 A 
ATOM     20  C   UNL     1      48.121   8.368  12.240  0.00  0.00    +0.000 A 
ATOM     21  C   UNL     1      47.215   9.426  12.200  0.00  0.00    +0.000 A 
ATOM     22  C   UNL     1      45.856   9.168  12.027  0.00  0.00    +0.000 A 
ATOM     23  C   UNL     1      45.412   7.842  11.922  0.00  0.00    +0.000 A 
BRANCH  22  24
ATOM     24  C   UNL     1      44.914  10.249  11.956  0.00  0.00    +0.000 C 
ATOM     25  N   UNL     1      44.143  11.114  11.905  0.00  0.00    +0.000 NA
ENDBRANCH  22  24
ENDBRANCH  16  18
ENDBRANCH  15  16
ENDBRANCH   1  15
TORSDOF 6
ENDMDL
MODEL 5
REMARK VINA RESULT:    -7.319      1.588      2.340
REMARK INTER + INTRA:         -10.976
REMARK INTER:                  -9.988
REMARK INTRA:                  -0.988
REMARK UNBOUND:                -1.089
REMARK  Name = 
REMARK  8 active torsions:
REMARK  status: ('A' for Active; 'I' for Inactive)
REMARK    1  A    between atoms: C_1  and  C_2
REMARK    2  A    between atoms: C_4  and  C_5
REMARK    3  A    between atoms: C_10  and  N_11
REMARK    4  A    between atoms: N_11  and  C_12
REMARK    5  A    between atoms: C_12  and  C_13
REMARK    6  A    between atoms: C_13  and  C_14
REMARK    7  A    between atoms: C_13  and  C_15
REMARK    8  A    between atoms: C_19  and  C_20
REMARK                            x       y       z     vdW  Elec       q    Type
REMARK                         _______ _______ _______ _____ _____    ______ ____
ROOT
ATOM      1  N   UNL     1      44.164   5.120  10.101  0.00  0.00    +0.000 N 
ATOM      2  H   UNL     1      43.270   5.436   9.739  0.00  0.00    +0.000 HD
ENDROOT
BRANCH   1   9
ATOM      3  C   UNL     1      43.912   2.247  10.532  0.00  0.00    +0.000 C 
ATOM      4  C   UNL     1      44.812   2.853   9.486  0.00  0.00    +0.000 A 
ATOM      5  C   UNL     1      45.622   1.985   8.724  0.00  0.00    +0.000 A 
ATOM      6  C   UNL     1      46.492   2.469   7.741  0.00  0.00    +0.000 A 
ATOM      7  C   UNL     1      46.532   3.841   7.505  0.00  0.00    +0.000 A 
ATOM      8  C   UNL     1      45.736   4.709   8.267  0.00  0.00    +0.000 A 
ATOM      9  C   UNL     1      44.859   4.247   9.260  0.00  0.00    +0.000 A 
BRANCH   6  10
ATOM     10  C   UNL     1      47.354   1.487   7.019  0.00  0.00    +0.000 C 
ATOM     11  N   UNL     1      48.474   1.940   6.378  0.00  0.00    +0.000 N 
ATOM     12  O   UNL     1      47.087   0.291   7.000  0.00  0.00    +0.000 OA
ATOM     13  H   UNL     1      48.796   2.894   6.364  0.00  0.00    +0.000 HD
ATOM     14  H   UNL     1      49.051   1.240   5.931  0.00  0.00    +0.000 HD
ENDBRANCH   6  10
ENDBRANCH   1   9
BRANCH   1  15
ATOM     15  C   UNL     1      44.863   6.063  10.975  0.00  0.00    +0.000 C 
BRANCH  15  16
ATOM     16  C   UNL     1      45.799   5.368  11.998  0.00  0.00    +0.000 C 
ATOM     17  C   UNL     1      44.969   4.672  13.089  0.00  0.00    +0.000 C 
BRANCH  16  18
ATOM     18  C   UNL     1      46.947   6.201  12.575  0.00  0.00    +0.000 A 
ATOM     19  C   UNL     1      47.564   5.916  13.801  0.00  0.00    +0.000 A 
ATOM     20  C   UNL     1      48.550   6.761  14.327  0.00  0.00    +0.000 A 
ATOM     21  C   UNL     1      48.947   7.900  13.631  0.00  0.00    +0.000 A 
ATOM     22  C   UNL     1      48.362   8.201  12.401  0.00  0.00    +0.000 A 
ATOM     23  C   UNL     1      47.358   7.364  11.891  0.00  0.00    +0.000 A 
BRANCH  22  24
ATOM     24  C   UNL     1      48.781   9.355  11.659  0.00  0.00    +0.000 C 
ATOM     25  N   UNL     1      49.108  10.288  11.051  0.00  0.00    +0.000 NA
ENDBRANCH  22  24
ENDBRANCH  16  18
ENDBRANCH  15  16
ENDBRANCH   1  15
TORSDOF 6
ENDMDL
MODEL 6
REMARK VINA RESULT:    -7.302      2.200      3.168
REMARK INTER + INTRA:         -10.952
REMARK INTER:                 -10.194
REMARK INTRA:                  -0.758
REMARK UNBOUND:                -1.089
REMARK  Name = 
REMARK  8 active torsions:
REMARK  status: ('A' for Active; 'I' for Inactive)
REMARK    1  A    between atoms: C_1  and  C_2
REMARK    2  A    between atoms: C_4  and  C_5
REMARK    3  A    between atoms: C_10  and  N_11
REMARK    4  A    between atoms: N_11  and  C_12
REMARK    5  A    between atoms: C_12  and  C_13
REMARK    6  A    between atoms: C_13  and  C_14
REMARK    7  A    between atoms: C_13  and  C_15
REMARK    8  A    between atoms: C_19  and  C_20
REMARK                            x       y       z     vdW  Elec       q    Type
REMARK                         _______ _______ _______ _____ _____    ______ ____
ROOT
ATOM      1  N   UNL     1      43.978   5.052   9.878  0.00  0.00    +0.000 N 
ATOM      2  H   UNL     1      43.237   5.522   9.367  0.00  0.00    +0.000 HD
ENDROOT
BRANCH   1   9
ATOM      3  C   UNL     1      43.672   2.264  10.677  0.00  0.00    +0.000 C 
ATOM      4  C   UNL     1      44.578   2.712   9.560  0.00  0.00    +0.000 A 
ATOM      5  C   UNL     1      45.366   1.736   8.913  0.00  0.00    +0.000 A 
ATOM      6  C   UNL     1      46.240   2.072   7.873  0.00  0.00    +0.000 A 
ATOM      7  C   UNL     1      46.305   3.401   7.462  0.00  0.00    +0.000 A 
ATOM      8  C   UNL     1      45.531   4.376   8.108  0.00  0.00    +0.000 A 
ATOM      9  C   UNL     1      44.650   4.064   9.155  0.00  0.00    +0.000 A 
BRANCH   6  10
ATOM     10  C   UNL     1      47.079   0.988   7.281  0.00  0.00    +0.000 C 
ATOM     11  N   UNL     1      46.865  -0.302   7.680  0.00  0.00    +0.000 N 
ATOM     12  O   UNL     1      47.938   1.229   6.441  0.00  0.00    +0.000 OA
ATOM     13  H   UNL     1      46.162  -0.604   8.336  0.00  0.00    +0.000 HD
ATOM     14  H   UNL     1      47.427  -1.012   7.230  0.00  0.00    +0.000 HD
ENDBRANCH   6  10
ENDBRANCH   1   9
BRANCH   1  15
ATOM     15  C   UNL     1      44.657   5.857  10.893  0.00  0.00    +0.000 C 
BRANCH  15  16
ATOM     16  C   UNL     1      44.646   5.205  12.301  0.00  0.00    +0.000 C 
ATOM     17  C   UNL     1      43.287   5.439  12.982  0.00  0.00    +0.000 C 
BRANCH  16  18
ATOM     18  C   UNL     1      45.827   5.511  13.224  0.00  0.00    +0.000 A 
ATOM     19  C   UNL     1      46.646   6.640  13.077  0.00  0.00    +0.000 A 
ATOM     20  C   UNL     1      47.769   6.829  13.893  0.00  0.00    +0.000 A 
ATOM     21  C   UNL     1      48.087   5.899  14.881  0.00  0.00    +0.000 A 
ATOM     22  C   UNL     1      47.282   4.776  15.061  0.00  0.00    +0.000 A 
ATOM     23  C   UNL     1      46.172   4.579  14.225  0.00  0.00    +0.000 A 
BRANCH  22  24
ATOM     24  C   UNL     1      47.580   3.825  16.094  0.00  0.00    +0.000 C 
ATOM     25  N   UNL     1      47.830   3.066  16.935  0.00  0.00    +0.000 NA
ENDBRANCH  22  24
ENDBRANCH  16  18
ENDBRANCH  15  16
ENDBRANCH   1  15
TORSDOF 6
ENDMDL
MODEL 7
REMARK VINA RESULT:    -6.212      2.953      7.342
REMARK INTER + INTRA:          -9.480
REMARK INTER:                  -8.755
REMARK INTRA:                  -0.725
REMARK UNBOUND:                -1.089
REMARK  Name = 
REMARK  8 active torsions:
REMARK  status: ('A' for Active; 'I' for Inactive)
REMARK    1  A    between atoms: C_1  and  C_2
REMARK    2  A    between atoms: C_4  and  C_5
REMARK    3  A    between atoms: C_10  and  N_11
REMARK    4  A    between atoms: N_11  and  C_12
REMARK    5  A    between atoms: C_12  and  C_13
REMARK    6  A    between atoms: C_13  and  C_14
REMARK    7  A    between atoms: C_13  and  C_15
REMARK    8  A    between atoms: C_19  and  C_20
REMARK                            x       y       z     vdW  Elec       q    Type
REMARK                         _______ _______ _______ _____ _____    ______ ____
ROOT
ATOM      1  N   UNL     1      45.614   6.262  11.195  0.00  0.00    +0.000 N 
ATOM      2  H   UNL     1      44.624   6.200  11.409  0.00  0.00    +0.000 HD
ENDROOT
BRANCH   1   9
ATOM      3  C   UNL     1      45.596   3.844  12.825  0.00  0.00    +0.000 C 
ATOM      4  C   UNL     1      46.421   5.061  13.156  0.00  0.00    +0.000 A 
ATOM      5  C   UNL     1      47.171   5.049  14.351  0.00  0.00    +0.000 A 
ATOM      6  C   UNL     1      47.954   6.143  14.735  0.00  0.00    +0.000 A 
ATOM      7  C   UNL     1      48.004   7.253  13.895  0.00  0.00    +0.000 A 
ATOM      8  C   UNL     1      47.253   7.273  12.711  0.00  0.00    +0.000 A 
ATOM      9  C   UNL     1      46.457   6.190  12.307  0.00  0.00    +0.000 A 
BRANCH   6  10
ATOM     10  C   UNL     1      48.673   6.070  16.042  0.00  0.00    +0.000 C 
ATOM     11  N   UNL     1      48.381   6.995  17.006  0.00  0.00    +0.000 N 
ATOM     12  O   UNL     1      49.501   5.197  16.270  0.00  0.00    +0.000 OA
ATOM     13  H   UNL     1      47.694   7.728  16.926  0.00  0.00    +0.000 HD
ATOM     14  H   UNL     1      48.861   6.892  17.889  0.00  0.00    +0.000 HD
ENDBRANCH   6  10
ENDBRANCH   1   9
BRANCH   1  15
ATOM     15  C   UNL     1      46.015   5.733   9.892  0.00  0.00    +0.000 C 
BRANCH  15  16
ATOM     16  C   UNL     1      44.918   4.869   9.218  0.00  0.00    +0.000 C 
ATOM     17  C   UNL     1      43.668   4.809  10.111  0.00  0.00    +0.000 C 
BRANCH  16  18
ATOM     18  C   UNL     1      45.333   3.492   8.694  0.00  0.00    +0.000 A 
ATOM     19  C   UNL     1      44.842   2.289   9.220  0.00  0.00    +0.000 A 
ATOM     20  C   UNL     1      45.321   1.053   8.766  0.00  0.00    +0.000 A 
ATOM     21  C   UNL     1      46.292   0.997   7.768  0.00  0.00    +0.000 A 
ATOM     22  C   UNL     1      46.788   2.177   7.216  0.00  0.00    +0.000 A 
ATOM     23  C   UNL     1      46.322   3.412   7.691  0.00  0.00    +0.000 A 
BRANCH  22  24
ATOM     24  C   UNL     1      47.767   2.134   6.167  0.00  0.00    +0.000 C 
ATOM     25  N   UNL     1      48.560   2.086   5.322  0.00  0.00    +0.000 NA
ENDBRANCH  22  24
ENDBRANCH  16  18
ENDBRANCH  15  16
ENDBRANCH   1  15
TORSDOF 6
ENDMDL
MODEL 8
REMARK VINA RESULT:    -6.001      4.021      7.504
REMARK INTER + INTRA:          -9.195
REMARK INTER:                  -8.029
REMARK INTRA:                  -1.166
REMARK UNBOUND:                -1.089
REMARK  Name = 
REMARK  8 active torsions:
REMARK  status: ('A' for Active; 'I' for Inactive)
REMARK    1  A    between atoms: C_1  and  C_2
REMARK    2  A    between atoms: C_4  and  C_5
REMARK    3  A    between atoms: C_10  and  N_11
REMARK    4  A    between atoms: N_11  and  C_12
REMARK    5  A    between atoms: C_12  and  C_13
REMARK    6  A    between atoms: C_13  and  C_14
REMARK    7  A    between atoms: C_13  and  C_15
REMARK    8  A    between atoms: C_19  and  C_20
REMARK                            x       y       z     vdW  Elec       q    Type
REMARK                         _______ _______ _______ _____ _____    ______ ____
ROOT
ATOM      1  N   UNL     1      47.438   6.355  12.960  0.00  0.00    +0.000 N 
ATOM      2  H   UNL     1      48.206   6.369  12.296  0.00  0.00    +0.000 HD
ENDROOT
BRANCH   1   9
ATOM      3  C   UNL     1      46.551   3.666  13.657  0.00  0.00    +0.000 C 
ATOM      4  C   UNL     1      47.289   4.570  14.611  0.00  0.00    +0.000 A 
ATOM      5  C   UNL     1      47.500   4.112  15.930  0.00  0.00    +0.000 A 
ATOM      6  C   UNL     1      48.167   4.895  16.878  0.00  0.00    +0.000 A 
ATOM      7  C   UNL     1      48.648   6.143  16.491  0.00  0.00    +0.000 A 
ATOM      8  C   UNL     1      48.431   6.607  15.185  0.00  0.00    +0.000 A 
ATOM      9  C   UNL     1      47.762   5.842  14.217  0.00  0.00    +0.000 A 
BRANCH   6  10
ATOM     10  C   UNL     1      48.300   4.359  18.266  0.00  0.00    +0.000 C 
ATOM     11  N   UNL     1      47.820   3.108  18.536  0.00  0.00    +0.000 N 
ATOM     12  O   UNL     1      48.838   5.007  19.155  0.00  0.00    +0.000 OA
ATOM     13  H   UNL     1      47.393   2.486  17.868  0.00  0.00    +0.000 HD
ATOM     14  H   UNL     1      47.960   2.765  19.477  0.00  0.00    +0.000 HD
ENDBRANCH   6  10
ENDBRANCH   1   9
BRANCH   1  15
ATOM     15  C   UNL     1      46.440   7.412  12.796  0.00  0.00    +0.000 C 
BRANCH  15  16
ATOM     16  C   UNL     1      45.509   7.191  11.575  0.00  0.00    +0.000 C 
ATOM     17  C   UNL     1      44.630   8.431  11.347  0.00  0.00    +0.000 C 
BRANCH  16  18
ATOM     18  C   UNL     1      44.708   5.887  11.532  0.00  0.00    +0.000 A 
ATOM     19  C   UNL     1      43.660   5.598  12.417  0.00  0.00    +0.000 A 
ATOM     20  C   UNL     1      43.017   4.354  12.394  0.00  0.00    +0.000 A 
ATOM     21  C   UNL     1      43.401   3.378  11.476  0.00  0.00    +0.000 A 
ATOM     22  C   UNL     1      44.429   3.643  10.572  0.00  0.00    +0.000 A 
ATOM     23  C   UNL     1      45.086   4.883  10.616  0.00  0.00    +0.000 A 
BRANCH  22  24
ATOM     24  C   UNL     1      44.816   2.659   9.602  0.00  0.00    +0.000 C 
ATOM     25  N   UNL     1      45.123   1.854   8.825  0.00  0.00    +0.000 NA
ENDBRANCH  22  24
ENDBRANCH  16  18
ENDBRANCH  15  16
ENDBRANCH   1  15
TORSDOF 6
ENDMDL
MODEL 9
REMARK VINA RESULT:    -5.974      3.256      6.989
REMARK INTER + INTRA:          -9.159
REMARK INTER:                  -8.379
REMARK INTRA:                  -0.780
REMARK UNBOUND:                -1.089
REMARK  Name = 
REMARK  8 active torsions:
REMARK  status: ('A' for Active; 'I' for Inactive)
REMARK    1  A    between atoms: C_1  and  C_2
REMARK    2  A    between atoms: C_4  and  C_5
REMARK    3  A    between atoms: C_10  and  N_11
REMARK    4  A    between atoms: N_11  and  C_12
REMARK    5  A    between atoms: C_12  and  C_13
REMARK    6  A    between atoms: C_13  and  C_14
REMARK    7  A    between atoms: C_13  and  C_15
REMARK    8  A    between atoms: C_19  and  C_20
REMARK                            x       y       z     vdW  Elec       q    Type
REMARK                         _______ _______ _______ _____ _____    ______ ____
ROOT
ATOM      1  N   UNL     1      46.968   6.962  12.808  0.00  0.00    +0.000 N 
ATOM      2  H   UNL     1      46.341   7.712  13.083  0.00  0.00    +0.000 HD
ENDROOT
BRANCH   1   9
ATOM      3  C   UNL     1      48.573   7.560  15.168  0.00  0.00    +0.000 C 
ATOM      4  C   UNL     1      47.976   6.205  14.893  0.00  0.00    +0.000 A 
ATOM      5  C   UNL     1      48.266   5.157  15.793  0.00  0.00    +0.000 A 
ATOM      6  C   UNL     1      47.759   3.867  15.603  0.00  0.00    +0.000 A 
ATOM      7  C   UNL     1      46.930   3.632  14.509  0.00  0.00    +0.000 A 
ATOM      8  C   UNL     1      46.647   4.668  13.606  0.00  0.00    +0.000 A 
ATOM      9  C   UNL     1      47.147   5.968  13.773  0.00  0.00    +0.000 A 
BRANCH   6  10
ATOM     10  C   UNL     1      48.160   2.803  16.572  0.00  0.00    +0.000 C 
ATOM     11  N   UNL     1      47.535   2.750  17.787  0.00  0.00    +0.000 N 
ATOM     12  O   UNL     1      49.021   1.977  16.296  0.00  0.00    +0.000 OA
ATOM     13  H   UNL     1      46.794   3.361  18.092  0.00  0.00    +0.000 HD
ATOM     14  H   UNL     1      47.808   1.995  18.401  0.00  0.00    +0.000 HD
ENDBRANCH   6  10
ENDBRANCH   1   9
BRANCH   1  15
ATOM     15  C   UNL     1      47.004   6.658  11.378  0.00  0.00    +0.000 C 
BRANCH  15  16
ATOM     16  C   UNL     1      45.595   6.521  10.745  0.00  0.00    +0.000 C 
ATOM     17  C   UNL     1      44.522   7.014  11.730  0.00  0.00    +0.000 C 
BRANCH  16  18
ATOM     18  C   UNL     1      45.239   5.172  10.114  0.00  0.00    +0.000 A 
ATOM     19  C   UNL     1      44.435   4.214  10.748  0.00  0.00    +0.000 A 
ATOM     20  C   UNL     1      44.212   2.959  10.168  0.00  0.00    +0.000 A 
ATOM     21  C   UNL     1      44.777   2.643   8.934  0.00  0.00    +0.000 A 
ATOM     22  C   UNL     1      45.568   3.582   8.272  0.00  0.00    +0.000 A 
ATOM     23  C   UNL     1      45.808   4.828   8.870  0.00  0.00    +0.000 A 
BRANCH  22  24
ATOM     24  C   UNL     1      46.133   3.281   6.987  0.00  0.00    +0.000 C 
ATOM     25  N   UNL     1      46.577   3.032   5.945  0.00  0.00    +0.000 NA
ENDBRANCH  22  24
ENDBRANCH  16  18
ENDBRANCH  15  16
ENDBRANCH   1  15
TORSDOF 6
ENDMDL
