MODEL 1
REMARK VINA RESULT:    -9.539      0.000      0.000
REMARK INTER + INTRA:         -15.704
REMARK INTER:                 -14.279
REMARK INTRA:                  -1.425
REMARK UNBOUND:                -1.425
REMARK  Name = 
REMARK  10 active torsions:
REMARK  status: ('A' for Active; 'I' for Inactive)
REMARK    1  A    between atoms: C_1  and  C_2
REMARK    2  A    between atoms: C_2  and  O_3
REMARK    3  A    between atoms: C_5  and  O_6
REMARK    4  A    between atoms: O_6  and  C_7
REMARK    5  A    between atoms: C_9  and  C_10
REMARK    6  A    between atoms: C_15  and  C_16
REMARK    7  A    between atoms: C_16  and  C_19
REMARK    8  A    between atoms: C_19  and  N_20
REMARK    9  A    between atoms: N_20  and  C_21
REMARK   10  A    between atoms: C_24  and  C_25
REMARK                            x       y       z     vdW  Elec       q    Type
REMARK                         _______ _______ _______ _____ _____    ______ ____
ROOT
ATOM      1  C   UNL     1      46.944   4.850  14.092  0.00  0.00    +0.000 A 
ATOM      2  C   UNL     1      47.717   5.875  13.559  0.00  0.00    +0.000 A 
ATOM      3  C   UNL     1      47.153   6.796  12.661  0.00  0.00    +0.000 A 
ATOM      4  C   UNL     1      45.794   6.665  12.306  0.00  0.00    +0.000 A 
ATOM      5  C   UNL     1      45.009   5.615  12.813  0.00  0.00    +0.000 A 
ATOM      6  C   UNL     1      45.612   4.719  13.712  0.00  0.00    +0.000 A 
ENDROOT
BRANCH   3   7
ATOM      7  C   UNL     1      47.989   7.904  12.065  0.00  0.00    +0.000 C 
ATOM      8  F   UNL     1      47.271   9.012  11.732  0.00  0.00    +0.000 F 
ATOM      9  F   UNL     1      48.961   8.333  12.918  0.00  0.00    +0.000 F 
ATOM     10  F   UNL     1      48.631   7.517  10.929  0.00  0.00    +0.000 F 
ENDBRANCH   3   7
BRANCH   5  11
ATOM     11  C   UNL     1      43.557   5.465  12.361  0.00  0.00    +0.000 C 
ATOM     12  F   UNL     1      42.732   5.236  13.425  0.00  0.00    +0.000 F 
ATOM     13  F   UNL     1      43.098   6.625  11.795  0.00  0.00    +0.000 F 
BRANCH  11  14
ATOM     14  C   UNL     1      43.360   4.326  11.323  0.00  0.00    +0.000 C 
BRANCH  14  15
ATOM     15  N   UNL     1      43.662   4.663   9.923  0.00  0.00    +0.000 N 
ATOM     16  H   UNL     1      43.731   5.664   9.748  0.00  0.00    +0.000 HD
BRANCH  15  17
ATOM     17  C   UNL     1      44.648   3.916   9.265  0.00  0.00    +0.000 A 
ATOM     18  C   UNL     1      44.712   2.513   9.290  0.00  0.00    +0.000 A 
ATOM     19  C   UNL     1      45.660   1.810   8.538  0.00  0.00    +0.000 A 
ATOM     20  C   UNL     1      46.543   2.496   7.703  0.00  0.00    +0.000 A 
ATOM     21  C   UNL     1      46.487   3.891   7.651  0.00  0.00    +0.000 A 
ATOM     22  C   UNL     1      45.542   4.587   8.419  0.00  0.00    +0.000 A 
BRANCH  20  23
ATOM     23  C   UNL     1      47.505   1.703   6.896  0.00  0.00    +0.000 C 
ATOM     24  N   UNL     1      48.545   2.375   6.319  0.00  0.00    +0.000 N 
ATOM     25  O   UNL     1      47.351   0.500   6.713  0.00  0.00    +0.000 OA
ATOM     26  H   UNL     1      48.557   3.380   6.233  0.00  0.00    +0.000 HD
ATOM     27  H   UNL     1      49.115   1.844   5.676  0.00  0.00    +0.000 HD
ENDBRANCH  20  23
ENDBRANCH  15  17
ENDBRANCH  14  15
ENDBRANCH  11  14
ENDBRANCH   5  11
BRANCH   1  28
ATOM     28  O   UNL     1      47.565   3.981  14.955  0.00  0.00    +0.000 OA
BRANCH  28  32
ATOM     29  C   UNL     1      49.156   4.135  19.166  0.00  0.00    +0.000 C 
ATOM     30  C   UNL     1      48.818   4.089  17.686  0.00  0.00    +0.000 C 
ATOM     31  C   UNL     1      47.720   5.093  17.248  0.00  0.00    +0.000 C 
ATOM     32  C   UNL     1      47.138   3.978  16.343  0.00  0.00    +0.000 C 
ATOM     33  C   UNL     1      47.846   2.957  17.262  0.00  0.00    +0.000 C 
BRANCH  30  34
ATOM     34  O   UNL     1      50.042   4.136  16.922  0.00  0.00    +0.000 OA
ATOM     35  H   UNL     1      50.095   3.283  16.458  0.00  0.00    +0.000 HD
ENDBRANCH  30  34
ENDBRANCH  28  32
ENDBRANCH   1  28
TORSDOF 9
ENDMDL
MODEL 2
REMARK VINA RESULT:    -8.771      2.508      4.264
REMARK INTER + INTRA:         -14.554
REMARK INTER:                 -13.077
REMARK INTRA:                  -1.477
REMARK UNBOUND:                -1.425
REMARK  Name = 
REMARK  10 active torsions:
REMARK  status: ('A' for Active; 'I' for Inactive)
REMARK    1  A    between atoms: C_1  and  C_2
REMARK    2  A    between atoms: C_2  and  O_3
REMARK    3  A    between atoms: C_5  and  O_6
REMARK    4  A    between atoms: O_6  and  C_7
REMARK    5  A    between atoms: C_9  and  C_10
REMARK    6  A    between atoms: C_15  and  C_16
REMARK    7  A    between atoms: C_16  and  C_19
REMARK    8  A    between atoms: C_19  and  N_20
REMARK    9  A    between atoms: N_20  and  C_21
REMARK   10  A    between atoms: C_24  and  C_25
REMARK                            x       y       z     vdW  Elec       q    Type
REMARK                         _______ _______ _______ _____ _____    ______ ____
ROOT
ATOM      1  C   UNL     1      47.427   6.840  13.676  0.00  0.00    +0.000 A 
ATOM      2  C   UNL     1      47.882   5.979  14.669  0.00  0.00    +0.000 A 
ATOM      3  C   UNL     1      47.192   4.789  14.948  0.00  0.00    +0.000 A 
ATOM      4  C   UNL     1      46.030   4.479  14.210  0.00  0.00    +0.000 A 
ATOM      5  C   UNL     1      45.541   5.354  13.225  0.00  0.00    +0.000 A 
ATOM      6  C   UNL     1      46.265   6.532  12.975  0.00  0.00    +0.000 A 
ENDROOT
BRANCH   3   7
ATOM      7  C   UNL     1      47.671   3.855  16.034  0.00  0.00    +0.000 C 
ATOM      8  F   UNL     1      48.791   4.290  16.675  0.00  0.00    +0.000 F 
ATOM      9  F   UNL     1      46.734   3.671  17.006  0.00  0.00    +0.000 F 
ATOM     10  F   UNL     1      47.968   2.614  15.560  0.00  0.00    +0.000 F 
ENDBRANCH   3   7
BRANCH   5  11
ATOM     11  C   UNL     1      44.245   5.020  12.486  0.00  0.00    +0.000 C 
ATOM     12  F   UNL     1      44.060   3.669  12.407  0.00  0.00    +0.000 F 
ATOM     13  F   UNL     1      43.157   5.491  13.170  0.00  0.00    +0.000 F 
BRANCH  11  14
ATOM     14  C   UNL     1      44.194   5.616  11.053  0.00  0.00    +0.000 C 
BRANCH  14  15
ATOM     15  N   UNL     1      43.729   4.713   9.988  0.00  0.00    +0.000 N 
ATOM     16  H   UNL     1      43.033   5.131   9.372  0.00  0.00    +0.000 HD
BRANCH  15  17
ATOM     17  C   UNL     1      44.687   3.951   9.307  0.00  0.00    +0.000 A 
ATOM     18  C   UNL     1      44.767   2.551   9.381  0.00  0.00    +0.000 A 
ATOM     19  C   UNL     1      45.681   1.828   8.605  0.00  0.00    +0.000 A 
ATOM     20  C   UNL     1      46.512   2.491   7.701  0.00  0.00    +0.000 A 
ATOM     21  C   UNL     1      46.439   3.882   7.601  0.00  0.00    +0.000 A 
ATOM     22  C   UNL     1      45.528   4.598   8.391  0.00  0.00    +0.000 A 
BRANCH  20  23
ATOM     23  C   UNL     1      47.440   1.677   6.874  0.00  0.00    +0.000 C 
ATOM     24  N   UNL     1      48.556   2.295   6.388  0.00  0.00    +0.000 N 
ATOM     25  O   UNL     1      47.194   0.507   6.596  0.00  0.00    +0.000 OA
ATOM     26  H   UNL     1      48.657   3.299   6.378  0.00  0.00    +0.000 HD
ATOM     27  H   UNL     1      49.108   1.763   5.729  0.00  0.00    +0.000 HD
ENDBRANCH  20  23
ENDBRANCH  15  17
ENDBRANCH  14  15
ENDBRANCH  11  14
ENDBRANCH   5  11
BRANCH   1  28
ATOM     28  O   UNL     1      48.146   7.990  13.466  0.00  0.00    +0.000 OA
BRANCH  28  32
ATOM     29  C   UNL     1      51.737   8.442  10.785  0.00  0.00    +0.000 C 
ATOM     30  C   UNL     1      50.661   8.246  11.840  0.00  0.00    +0.000 C 
ATOM     31  C   UNL     1      49.490   7.330  11.398  0.00  0.00    +0.000 C 
ATOM     32  C   UNL     1      48.525   8.316  12.103  0.00  0.00    +0.000 C 
ATOM     33  C   UNL     1      49.623   9.393  11.950  0.00  0.00    +0.000 C 
BRANCH  30  34
ATOM     34  O   UNL     1      51.289   7.892  13.091  0.00  0.00    +0.000 OA
ATOM     35  H   UNL     1      51.359   8.721  13.593  0.00  0.00    +0.000 HD
ENDBRANCH  30  34
ENDBRANCH  28  32
ENDBRANCH   1  28
TORSDOF 9
ENDMDL
MODEL 3
REMARK VINA RESULT:    -7.896      3.195      4.079
REMARK INTER + INTRA:         -13.245
REMARK INTER:                 -11.680
REMARK INTRA:                  -1.565
REMARK UNBOUND:                -1.425
REMARK  Name = 
REMARK  10 active torsions:
REMARK  status: ('A' for Active; 'I' for Inactive)
REMARK    1  A    between atoms: C_1  and  C_2
REMARK    2  A    between atoms: C_2  and  O_3
REMARK    3  A    between atoms: C_5  and  O_6
REMARK    4  A    between atoms: O_6  and  C_7
REMARK    5  A    between atoms: C_9  and  C_10
REMARK    6  A    between atoms: C_15  and  C_16
REMARK    7  A    between atoms: C_16  and  C_19
REMARK    8  A    between atoms: C_19  and  N_20
REMARK    9  A    between atoms: N_20  and  C_21
REMARK   10  A    between atoms: C_24  and  C_25
REMARK                            x       y       z     vdW  Elec       q    Type
REMARK                         _______ _______ _______ _____ _____    ______ ____
ROOT
ATOM      1  C   UNL     1      46.210   7.952  12.849  0.00  0.00    +0.000 A 
ATOM      2  C   UNL     1      45.768   9.084  12.173  0.00  0.00    +0.000 A 
ATOM      3  C   UNL     1      44.583   9.045  11.421  0.00  0.00    +0.000 A 
ATOM      4  C   UNL     1      43.848   7.842  11.359  0.00  0.00    +0.000 A 
ATOM      5  C   UNL     1      44.299   6.681  12.012  0.00  0.00    +0.000 A 
ATOM      6  C   UNL     1      45.487   6.767  12.757  0.00  0.00    +0.000 A 
ENDROOT
BRANCH   3   7
ATOM      7  C   UNL     1      44.103  10.265  10.672  0.00  0.00    +0.000 C 
ATOM      8  F   UNL     1      43.461  11.173  11.458  0.00  0.00    +0.000 F 
ATOM      9  F   UNL     1      45.125  10.942  10.080  0.00  0.00    +0.000 F 
ATOM     10  F   UNL     1      43.232   9.953   9.673  0.00  0.00    +0.000 F 
ENDBRANCH   3   7
BRANCH   5  11
ATOM     11  C   UNL     1      43.513   5.377  11.875  0.00  0.00    +0.000 C 
ATOM     12  F   UNL     1      42.683   5.189  12.943  0.00  0.00    +0.000 F 
ATOM     13  F   UNL     1      42.687   5.417  10.783  0.00  0.00    +0.000 F 
BRANCH  11  14
ATOM     14  C   UNL     1      44.428   4.131  11.727  0.00  0.00    +0.000 C 
BRANCH  14  15
ATOM     15  N   UNL     1      44.028   3.148  10.708  0.00  0.00    +0.000 N 
ATOM     16  H   UNL     1      43.024   3.119  10.538  0.00  0.00    +0.000 HD
BRANCH  15  17
ATOM     17  C   UNL     1      44.791   3.068   9.535  0.00  0.00    +0.000 A 
ATOM     18  C   UNL     1      45.230   4.189   8.812  0.00  0.00    +0.000 A 
ATOM     19  C   UNL     1      46.070   4.060   7.701  0.00  0.00    +0.000 A 
ATOM     20  C   UNL     1      46.530   2.801   7.311  0.00  0.00    +0.000 A 
ATOM     21  C   UNL     1      46.118   1.674   8.025  0.00  0.00    +0.000 A 
ATOM     22  C   UNL     1      45.265   1.813   9.130  0.00  0.00    +0.000 A 
BRANCH  20  23
ATOM     23  C   UNL     1      47.450   2.720   6.147  0.00  0.00    +0.000 C 
ATOM     24  N   UNL     1      48.765   2.455   6.403  0.00  0.00    +0.000 N 
ATOM     25  O   UNL     1      47.058   2.928   5.003  0.00  0.00    +0.000 OA
ATOM     26  H   UNL     1      49.162   2.535   7.328  0.00  0.00    +0.000 HD
ATOM     27  H   UNL     1      49.395   2.525   5.616  0.00  0.00    +0.000 HD
ENDBRANCH  20  23
ENDBRANCH  15  17
ENDBRANCH  14  15
ENDBRANCH  11  14
ENDBRANCH   5  11
BRANCH   1  28
ATOM     28  O   UNL     1      47.383   8.061  13.554  0.00  0.00    +0.000 OA
BRANCH  28  32
ATOM     29  C   UNL     1      51.276   8.219  11.295  0.00  0.00    +0.000 C 
ATOM     30  C   UNL     1      49.944   8.366  12.009  0.00  0.00    +0.000 C 
ATOM     31  C   UNL     1      49.919   7.786  13.447  0.00  0.00    +0.000 C 
ATOM     32  C   UNL     1      48.503   7.235  13.142  0.00  0.00    +0.000 C 
ATOM     33  C   UNL     1      48.874   7.304  11.643  0.00  0.00    +0.000 C 
BRANCH  30  34
ATOM     34  O   UNL     1      49.490   9.731  11.881  0.00  0.00    +0.000 OA
ATOM     35  H   UNL     1      50.133  10.268  12.373  0.00  0.00    +0.000 HD
ENDBRANCH  30  34
ENDBRANCH  28  32
ENDBRANCH   1  28
TORSDOF 9
ENDMDL
MODEL 4
REMARK VINA RESULT:    -7.788      3.274      5.418
REMARK INTER + INTRA:         -13.082
REMARK INTER:                 -12.002
REMARK INTRA:                  -1.080
REMARK UNBOUND:                -1.425
REMARK  Name = 
REMARK  10 active torsions:
REMARK  status: ('A' for Active; 'I' for Inactive)
REMARK    1  A    between atoms: C_1  and  C_2
REMARK    2  A    between atoms: C_2  and  O_3
REMARK    3  A    between atoms: C_5  and  O_6
REMARK    4  A    between atoms: O_6  and  C_7
REMARK    5  A    between atoms: C_9  and  C_10
REMARK    6  A    between atoms: C_15  and  C_16
REMARK    7  A    between atoms: C_16  and  C_19
REMARK    8  A    between atoms: C_19  and  N_20
REMARK    9  A    between atoms: N_20  and  C_21
REMARK   10  A    between atoms: C_24  and  C_25
REMARK                            x       y       z     vdW  Elec       q    Type
REMARK                         _______ _______ _______ _____ _____    ______ ____
ROOT
ATOM      1  C   UNL     1      45.410   8.676  12.200  0.00  0.00    +0.000 A 
ATOM      2  C   UNL     1      46.747   8.538  12.557  0.00  0.00    +0.000 A 
ATOM      3  C   UNL     1      47.265   7.277  12.893  0.00  0.00    +0.000 A 
ATOM      4  C   UNL     1      46.411   6.154  12.866  0.00  0.00    +0.000 A 
ATOM      5  C   UNL     1      45.051   6.284  12.537  0.00  0.00    +0.000 A 
ATOM      6  C   UNL     1      44.576   7.563  12.203  0.00  0.00    +0.000 A 
ENDROOT
BRANCH   3   7
ATOM      7  C   UNL     1      48.712   7.120  13.296  0.00  0.00    +0.000 C 
ATOM      8  F   UNL     1      49.531   6.763  12.268  0.00  0.00    +0.000 F 
ATOM      9  F   UNL     1      49.234   8.270  13.806  0.00  0.00    +0.000 F 
ATOM     10  F   UNL     1      48.884   6.172  14.258  0.00  0.00    +0.000 F 
ENDBRANCH   3   7
BRANCH   5  11
ATOM     11  C   UNL     1      44.139   5.058  12.577  0.00  0.00    +0.000 C 
ATOM     12  F   UNL     1      44.836   3.939  12.934  0.00  0.00    +0.000 F 
ATOM     13  F   UNL     1      43.172   5.200  13.538  0.00  0.00    +0.000 F 
BRANCH  11  14
ATOM     14  C   UNL     1      43.422   4.791  11.226  0.00  0.00    +0.000 C 
BRANCH  14  15
ATOM     15  N   UNL     1      43.574   3.440  10.664  0.00  0.00    +0.000 N 
ATOM     16  H   UNL     1      42.688   2.987  10.443  0.00  0.00    +0.000 HD
BRANCH  15  17
ATOM     17  C   UNL     1      44.558   3.240   9.687  0.00  0.00    +0.000 A 
ATOM     18  C   UNL     1      45.008   1.974   9.281  0.00  0.00    +0.000 A 
ATOM     19  C   UNL     1      45.923   1.824   8.232  0.00  0.00    +0.000 A 
ATOM     20  C   UNL     1      46.379   2.943   7.534  0.00  0.00    +0.000 A 
ATOM     21  C   UNL     1      45.932   4.212   7.912  0.00  0.00    +0.000 A 
ATOM     22  C   UNL     1      45.025   4.352   8.972  0.00  0.00    +0.000 A 
BRANCH  20  23
ATOM     23  C   UNL     1      47.321   2.730   6.405  0.00  0.00    +0.000 C 
ATOM     24  N   UNL     1      48.428   1.967   6.646  0.00  0.00    +0.000 N 
ATOM     25  O   UNL     1      47.141   3.254   5.310  0.00  0.00    +0.000 OA
ATOM     26  H   UNL     1      48.736   1.742   7.581  0.00  0.00    +0.000 HD
ATOM     27  H   UNL     1      49.116   1.936   5.907  0.00  0.00    +0.000 HD
ENDBRANCH  20  23
ENDBRANCH  15  17
ENDBRANCH  14  15
ENDBRANCH  11  14
ENDBRANCH   5  11
BRANCH   1  28
ATOM     28  O   UNL     1      44.971   9.941  11.895  0.00  0.00    +0.000 OA
BRANCH  28  32
ATOM     29  C   UNL     1      41.026  11.358  10.246  0.00  0.00    +0.000 C 
ATOM     30  C   UNL     1      42.277  10.922  10.989  0.00  0.00    +0.000 C 
ATOM     31  C   UNL     1      43.596  11.515  10.429  0.00  0.00    +0.000 C 
ATOM     32  C   UNL     1      44.250  10.128  10.649  0.00  0.00    +0.000 C 
ATOM     33  C   UNL     1      42.828   9.526  10.597  0.00  0.00    +0.000 C 
BRANCH  30  34
ATOM     34  O   UNL     1      42.068  11.099  12.406  0.00  0.00    +0.000 OA
ATOM     35  H   UNL     1      42.945  11.012  12.814  0.00  0.00    +0.000 HD
ENDBRANCH  30  34
ENDBRANCH  28  32
ENDBRANCH   1  28
TORSDOF 9
ENDMDL
MODEL 5
REMARK VINA RESULT:    -7.441      2.822      8.011
REMARK INTER + INTRA:         -12.563
REMARK INTER:                 -11.139
REMARK INTRA:                  -1.424
REMARK UNBOUND:                -1.425
REMARK  Name = 
REMARK  10 active torsions:
REMARK  status: ('A' for Active; 'I' for Inactive)
REMARK    1  A    between atoms: C_1  and  C_2
REMARK    2  A    between atoms: C_2  and  O_3
REMARK    3  A    between atoms: C_5  and  O_6
REMARK    4  A    between atoms: O_6  and  C_7
REMARK    5  A    between atoms: C_9  and  C_10
REMARK    6  A    between atoms: C_15  and  C_16
REMARK    7  A    between atoms: C_16  and  C_19
REMARK    8  A    between atoms: C_19  and  N_20
REMARK    9  A    between atoms: N_20  and  C_21
REMARK   10  A    between atoms: C_24  and  C_25
REMARK                            x       y       z     vdW  Elec       q    Type
REMARK                         _______ _______ _______ _____ _____    ______ ____
ROOT
ATOM      1  C   UNL     1      45.717   5.416   9.634  0.00  0.00    +0.000 A 
ATOM      2  C   UNL     1      44.561   4.939  10.240  0.00  0.00    +0.000 A 
ATOM      3  C   UNL     1      44.192   5.389  11.518  0.00  0.00    +0.000 A 
ATOM      4  C   UNL     1      45.012   6.327  12.179  0.00  0.00    +0.000 A 
ATOM      5  C   UNL     1      46.200   6.795  11.591  0.00  0.00    +0.000 A 
ATOM      6  C   UNL     1      46.528   6.322  10.309  0.00  0.00    +0.000 A 
ENDROOT
BRANCH   3   7
ATOM      7  C   UNL     1      42.945   4.866  12.191  0.00  0.00    +0.000 C 
ATOM      8  F   UNL     1      41.817   5.555  11.865  0.00  0.00    +0.000 F 
ATOM      9  F   UNL     1      42.693   3.566  11.871  0.00  0.00    +0.000 F 
ATOM     10  F   UNL     1      43.030   4.907  13.549  0.00  0.00    +0.000 F 
ENDBRANCH   3   7
BRANCH   5  11
ATOM     11  C   UNL     1      47.099   7.764  12.359  0.00  0.00    +0.000 C 
ATOM     12  F   UNL     1      47.358   8.883  11.619  0.00  0.00    +0.000 F 
ATOM     13  F   UNL     1      46.473   8.220  13.489  0.00  0.00    +0.000 F 
BRANCH  11  14
ATOM     14  C   UNL     1      48.447   7.127  12.792  0.00  0.00    +0.000 C 
BRANCH  14  15
ATOM     15  N   UNL     1      48.839   7.326  14.196  0.00  0.00    +0.000 N 
ATOM     16  H   UNL     1      48.714   8.282  14.525  0.00  0.00    +0.000 HD
BRANCH  15  17
ATOM     17  C   UNL     1      48.443   6.362  15.133  0.00  0.00    +0.000 A 
ATOM     18  C   UNL     1      47.501   5.355  14.865  0.00  0.00    +0.000 A 
ATOM     19  C   UNL     1      47.210   4.357  15.803  0.00  0.00    +0.000 A 
ATOM     20  C   UNL     1      47.892   4.318  17.020  0.00  0.00    +0.000 A 
ATOM     21  C   UNL     1      48.843   5.301  17.300  0.00  0.00    +0.000 A 
ATOM     22  C   UNL     1      49.118   6.305  16.360  0.00  0.00    +0.000 A 
BRANCH  20  23
ATOM     23  C   UNL     1      47.574   3.218  17.967  0.00  0.00    +0.000 C 
ATOM     24  N   UNL     1      48.320   3.136  19.108  0.00  0.00    +0.000 N 
ATOM     25  O   UNL     1      46.709   2.385  17.716  0.00  0.00    +0.000 OA
ATOM     26  H   UNL     1      49.191   3.634  19.221  0.00  0.00    +0.000 HD
ATOM     27  H   UNL     1      48.174   2.314  19.677  0.00  0.00    +0.000 HD
ENDBRANCH  20  23
ENDBRANCH  15  17
ENDBRANCH  14  15
ENDBRANCH  11  14
ENDBRANCH   5  11
BRANCH   1  28
ATOM     28  O   UNL     1      46.020   4.923   8.388  0.00  0.00    +0.000 OA
BRANCH  28  32
ATOM     29  C   UNL     1      47.085   0.975   6.499  0.00  0.00    +0.000 C 
ATOM     30  C   UNL     1      46.924   2.359   7.105  0.00  0.00    +0.000 C 
ATOM     31  C   UNL     1      46.205   2.378   8.479  0.00  0.00    +0.000 C 
ATOM     32  C   UNL     1      45.449   3.645   8.005  0.00  0.00    +0.000 C 
ATOM     33  C   UNL     1      45.734   3.189   6.556  0.00  0.00    +0.000 C 
BRANCH  30  34
ATOM     34  O   UNL     1      48.194   3.043   7.058  0.00  0.00    +0.000 OA
ATOM     35  H   UNL     1      48.271   3.394   6.155  0.00  0.00    +0.000 HD
ENDBRANCH  30  34
ENDBRANCH  28  32
ENDBRANCH   1  28
TORSDOF 9
ENDMDL
MODEL 6
REMARK VINA RESULT:    -7.326      3.413      6.632
REMARK INTER + INTRA:         -12.392
REMARK INTER:                 -10.020
REMARK INTRA:                  -2.372
REMARK UNBOUND:                -1.425
REMARK  Name = 
REMARK  10 active torsions:
REMARK  status: ('A' for Active; 'I' for Inactive)
REMARK    1  A    between atoms: C_1  and  C_2
REMARK    2  A    between atoms: C_2  and  O_3
REMARK    3  A    between atoms: C_5  and  O_6
REMARK    4  A    between atoms: O_6  and  C_7
REMARK    5  A    between atoms: C_9  and  C_10
REMARK    6  A    between atoms: C_15  and  C_16
REMARK    7  A    between atoms: C_16  and  C_19
REMARK    8  A    between atoms: C_19  and  N_20
REMARK    9  A    between atoms: N_20  and  C_21
REMARK   10  A    between atoms: C_24  and  C_25
REMARK                            x       y       z     vdW  Elec       q    Type
REMARK                         _______ _______ _______ _____ _____    ______ ____
ROOT
ATOM      1  C   UNL     1      46.124   4.529  13.678  0.00  0.00    +0.000 A 
ATOM      2  C   UNL     1      45.491   3.805  12.675  0.00  0.00    +0.000 A 
ATOM      3  C   UNL     1      45.147   4.422  11.461  0.00  0.00    +0.000 A 
ATOM      4  C   UNL     1      45.450   5.788  11.276  0.00  0.00    +0.000 A 
ATOM      5  C   UNL     1      46.062   6.541  12.293  0.00  0.00    +0.000 A 
ATOM      6  C   UNL     1      46.392   5.881  13.489  0.00  0.00    +0.000 A 
ENDROOT
BRANCH   3   7
ATOM      7  C   UNL     1      44.447   3.647  10.371  0.00  0.00    +0.000 C 
ATOM      8  F   UNL     1      43.460   2.827  10.829  0.00  0.00    +0.000 F 
ATOM      9  F   UNL     1      43.857   4.463   9.454  0.00  0.00    +0.000 F 
ATOM     10  F   UNL     1      45.299   2.850   9.669  0.00  0.00    +0.000 F 
ENDBRANCH   3   7
BRANCH   5  11
ATOM     11  C   UNL     1      46.320   8.033  12.085  0.00  0.00    +0.000 C 
ATOM     12  F   UNL     1      47.521   8.241  11.468  0.00  0.00    +0.000 F 
ATOM     13  F   UNL     1      45.386   8.578  11.244  0.00  0.00    +0.000 F 
BRANCH  11  14
ATOM     14  C   UNL     1      46.291   8.844  13.409  0.00  0.00    +0.000 C 
BRANCH  14  15
ATOM     15  N   UNL     1      47.555   9.479  13.811  0.00  0.00    +0.000 N 
ATOM     16  H   UNL     1      47.461  10.467  14.044  0.00  0.00    +0.000 HD
BRANCH  15  17
ATOM     17  C   UNL     1      48.392   8.780  14.691  0.00  0.00    +0.000 A 
ATOM     18  C   UNL     1      48.218   8.762  16.085  0.00  0.00    +0.000 A 
ATOM     19  C   UNL     1      49.023   7.970  16.912  0.00  0.00    +0.000 A 
ATOM     20  C   UNL     1      49.997   7.139  16.357  0.00  0.00    +0.000 A 
ATOM     21  C   UNL     1      50.176   7.130  14.971  0.00  0.00    +0.000 A 
ATOM     22  C   UNL     1      49.373   7.937  14.152  0.00  0.00    +0.000 A 
BRANCH  20  23
ATOM     23  C   UNL     1      50.800   6.290  17.273  0.00  0.00    +0.000 C 
ATOM     24  N   UNL     1      51.139   6.820  18.486  0.00  0.00    +0.000 N 
ATOM     25  O   UNL     1      51.187   5.174  16.941  0.00  0.00    +0.000 OA
ATOM     26  H   UNL     1      51.063   7.806  18.685  0.00  0.00    +0.000 HD
ATOM     27  H   UNL     1      51.786   6.279  19.043  0.00  0.00    +0.000 HD
ENDBRANCH  20  23
ENDBRANCH  15  17
ENDBRANCH  14  15
ENDBRANCH  11  14
ENDBRANCH   5  11
BRANCH   1  28
ATOM     28  O   UNL     1      46.419   3.863  14.841  0.00  0.00    +0.000 OA
BRANCH  28  32
ATOM     29  C   UNL     1      48.462   3.390  18.828  0.00  0.00    +0.000 C 
ATOM     30  C   UNL     1      47.625   3.427  17.561  0.00  0.00    +0.000 C 
ATOM     31  C   UNL     1      48.421   3.151  16.258  0.00  0.00    +0.000 C 
ATOM     32  C   UNL     1      47.598   4.276  15.582  0.00  0.00    +0.000 C 
ATOM     33  C   UNL     1      47.338   4.843  16.996  0.00  0.00    +0.000 C 
BRANCH  30  34
ATOM     34  O   UNL     1      46.446   2.616  17.753  0.00  0.00    +0.000 OA
ATOM     35  H   UNL     1      46.700   1.717  17.484  0.00  0.00    +0.000 HD
ENDBRANCH  30  34
ENDBRANCH  28  32
ENDBRANCH   1  28
TORSDOF 9
ENDMDL
MODEL 7
REMARK VINA RESULT:    -6.703      3.738      7.679
REMARK INTER + INTRA:         -11.458
REMARK INTER:                  -9.321
REMARK INTRA:                  -2.137
REMARK UNBOUND:                -1.425
REMARK  Name = 
REMARK  10 active torsions:
REMARK  status: ('A' for Active; 'I' for Inactive)
REMARK    1  A    between atoms: C_1  and  C_2
REMARK    2  A    between atoms: C_2  and  O_3
REMARK    3  A    between atoms: C_5  and  O_6
REMARK    4  A    between atoms: O_6  and  C_7
REMARK    5  A    between atoms: C_9  and  C_10
REMARK    6  A    between atoms: C_15  and  C_16
REMARK    7  A    between atoms: C_16  and  C_19
REMARK    8  A    between atoms: C_19  and  N_20
REMARK    9  A    between atoms: N_20  and  C_21
REMARK   10  A    between atoms: C_24  and  C_25
REMARK                            x       y       z     vdW  Elec       q    Type
REMARK                         _______ _______ _______ _____ _____    ______ ____
ROOT
ATOM      1  C   UNL     1      46.597   4.924  14.215  0.00  0.00    +0.000 A 
ATOM      2  C   UNL     1      45.730   4.581  13.184  0.00  0.00    +0.000 A 
ATOM      3  C   UNL     1      45.814   5.229  11.941  0.00  0.00    +0.000 A 
ATOM      4  C   UNL     1      46.786   6.235  11.755  0.00  0.00    +0.000 A 
ATOM      5  C   UNL     1      47.649   6.613  12.798  0.00  0.00    +0.000 A 
ATOM      6  C   UNL     1      47.533   5.935  14.024  0.00  0.00    +0.000 A 
ENDROOT
BRANCH   3   7
ATOM      7  C   UNL     1      44.867   4.874  10.820  0.00  0.00    +0.000 C 
ATOM      8  F   UNL     1      45.358   5.151   9.580  0.00  0.00    +0.000 F 
ATOM      9  F   UNL     1      44.555   3.548  10.808  0.00  0.00    +0.000 F 
ATOM     10  F   UNL     1      43.681   5.537  10.909  0.00  0.00    +0.000 F 
ENDBRANCH   3   7
BRANCH   5  11
ATOM     11  C   UNL     1      48.650   7.748  12.584  0.00  0.00    +0.000 C 
ATOM     12  F   UNL     1      49.934   7.304  12.728  0.00  0.00    +0.000 F 
ATOM     13  F   UNL     1      48.579   8.227  11.302  0.00  0.00    +0.000 F 
BRANCH  11  14
ATOM     14  C   UNL     1      48.423   8.946  13.546  0.00  0.00    +0.000 C 
BRANCH  14  15
ATOM     15  N   UNL     1      49.514   9.238  14.490  0.00  0.00    +0.000 N 
ATOM     16  H   UNL     1      49.965  10.137  14.328  0.00  0.00    +0.000 HD
BRANCH  15  17
ATOM     17  C   UNL     1      49.301   8.960  15.846  0.00  0.00    +0.000 A 
ATOM     18  C   UNL     1      48.116   9.274  16.531  0.00  0.00    +0.000 A 
ATOM     19  C   UNL     1      47.916   8.889  17.862  0.00  0.00    +0.000 A 
ATOM     20  C   UNL     1      48.885   8.137  18.528  0.00  0.00    +0.000 A 
ATOM     21  C   UNL     1      50.065   7.801  17.861  0.00  0.00    +0.000 A 
ATOM     22  C   UNL     1      50.261   8.203  16.532  0.00  0.00    +0.000 A 
BRANCH  20  23
ATOM     23  C   UNL     1      48.609   7.721  19.928  0.00  0.00    +0.000 C 
ATOM     24  N   UNL     1      49.676   7.617  20.773  0.00  0.00    +0.000 N 
ATOM     25  O   UNL     1      47.476   7.436  20.302  0.00  0.00    +0.000 OA
ATOM     26  H   UNL     1      50.629   7.590  20.441  0.00  0.00    +0.000 HD
ATOM     27  H   UNL     1      49.487   7.215  21.681  0.00  0.00    +0.000 HD
ENDBRANCH  20  23
ENDBRANCH  15  17
ENDBRANCH  14  15
ENDBRANCH  11  14
ENDBRANCH   5  11
BRANCH   1  28
ATOM     28  O   UNL     1      46.450   4.257  15.406  0.00  0.00    +0.000 OA
BRANCH  28  32
ATOM     29  C   UNL     1      48.613   4.181  19.356  0.00  0.00    +0.000 C 
ATOM     30  C   UNL     1      47.743   4.325  18.120  0.00  0.00    +0.000 C 
ATOM     31  C   UNL     1      47.441   2.990  17.389  0.00  0.00    +0.000 C 
ATOM     32  C   UNL     1      47.645   3.740  16.049  0.00  0.00    +0.000 C 
ATOM     33  C   UNL     1      48.485   4.773  16.834  0.00  0.00    +0.000 C 
BRANCH  30  34
ATOM     34  O   UNL     1      46.589   5.128  18.448  0.00  0.00    +0.000 OA
ATOM     35  H   UNL     1      46.941   5.978  18.760  0.00  0.00    +0.000 HD
ENDBRANCH  30  34
ENDBRANCH  28  32
ENDBRANCH   1  28
TORSDOF 9
ENDMDL
MODEL 8
REMARK VINA RESULT:    -6.562      3.492      6.273
REMARK INTER + INTRA:         -11.247
REMARK INTER:                  -9.890
REMARK INTRA:                  -1.357
REMARK UNBOUND:                -1.425
REMARK  Name = 
REMARK  10 active torsions:
REMARK  status: ('A' for Active; 'I' for Inactive)
REMARK    1  A    between atoms: C_1  and  C_2
REMARK    2  A    between atoms: C_2  and  O_3
REMARK    3  A    between atoms: C_5  and  O_6
REMARK    4  A    between atoms: O_6  and  C_7
REMARK    5  A    between atoms: C_9  and  C_10
REMARK    6  A    between atoms: C_15  and  C_16
REMARK    7  A    between atoms: C_16  and  C_19
REMARK    8  A    between atoms: C_19  and  N_20
REMARK    9  A    between atoms: N_20  and  C_21
REMARK   10  A    between atoms: C_24  and  C_25
REMARK                            x       y       z     vdW  Elec       q    Type
REMARK                         _______ _______ _______ _____ _____    ______ ____
ROOT
ATOM      1  C   UNL     1      46.519   4.236  13.567  0.00  0.00    +0.000 A 
ATOM      2  C   UNL     1      45.871   3.435  12.634  0.00  0.00    +0.000 A 
ATOM      3  C   UNL     1      45.205   4.014  11.542  0.00  0.00    +0.000 A 
ATOM      4  C   UNL     1      45.200   5.419  11.407  0.00  0.00    +0.000 A 
ATOM      5  C   UNL     1      45.824   6.242  12.359  0.00  0.00    +0.000 A 
ATOM      6  C   UNL     1      46.483   5.621  13.434  0.00  0.00    +0.000 A 
ENDROOT
BRANCH   3   7
ATOM      7  C   UNL     1      44.486   3.153  10.531  0.00  0.00    +0.000 C 
ATOM      8  F   UNL     1      45.302   2.282   9.875  0.00  0.00    +0.000 F 
ATOM      9  F   UNL     1      43.511   2.392  11.101  0.00  0.00    +0.000 F 
ATOM     10  F   UNL     1      43.870   3.889   9.565  0.00  0.00    +0.000 F 
ENDBRANCH   3   7
BRANCH   5  11
ATOM     11  C   UNL     1      45.748   7.762  12.218  0.00  0.00    +0.000 C 
ATOM     12  F   UNL     1      44.885   8.120  11.220  0.00  0.00    +0.000 F 
ATOM     13  F   UNL     1      45.238   8.334  13.353  0.00  0.00    +0.000 F 
BRANCH  11  14
ATOM     14  C   UNL     1      47.129   8.416  11.942  0.00  0.00    +0.000 C 
BRANCH  14  15
ATOM     15  N   UNL     1      48.233   7.496  11.625  0.00  0.00    +0.000 N 
ATOM     16  H   UNL     1      48.301   7.265  10.635  0.00  0.00    +0.000 HD
BRANCH  15  17
ATOM     17  C   UNL     1      49.476   7.728  12.227  0.00  0.00    +0.000 A 
ATOM     18  C   UNL     1      50.610   8.175  11.530  0.00  0.00    +0.000 A 
ATOM     19  C   UNL     1      51.803   8.485  12.193  0.00  0.00    +0.000 A 
ATOM     20  C   UNL     1      51.876   8.395  13.584  0.00  0.00    +0.000 A 
ATOM     21  C   UNL     1      50.755   7.966  14.299  0.00  0.00    +0.000 A 
ATOM     22  C   UNL     1      49.568   7.646  13.624  0.00  0.00    +0.000 A 
BRANCH  20  23
ATOM     23  C   UNL     1      53.152   8.769  14.245  0.00  0.00    +0.000 C 
ATOM     24  N   UNL     1      54.041   9.511  13.521  0.00  0.00    +0.000 N 
ATOM     25  O   UNL     1      53.422   8.390  15.381  0.00  0.00    +0.000 OA
ATOM     26  H   UNL     1      53.967   9.617  12.520  0.00  0.00    +0.000 HD
ATOM     27  H   UNL     1      54.950   9.650  13.941  0.00  0.00    +0.000 HD
ENDBRANCH  20  23
ENDBRANCH  15  17
ENDBRANCH  14  15
ENDBRANCH  11  14
ENDBRANCH   5  11
BRANCH   1  28
ATOM     28  O   UNL     1      47.140   3.601  14.615  0.00  0.00    +0.000 OA
BRANCH  28  32
ATOM     29  C   UNL     1      49.296   3.701  18.568  0.00  0.00    +0.000 C 
ATOM     30  C   UNL     1      48.703   3.519  17.181  0.00  0.00    +0.000 C 
ATOM     31  C   UNL     1      48.478   4.841  16.401  0.00  0.00    +0.000 C 
ATOM     32  C   UNL     1      47.130   4.257  15.910  0.00  0.00    +0.000 C 
ATOM     33  C   UNL     1      47.166   3.320  17.138  0.00  0.00    +0.000 C 
BRANCH  30  34
ATOM     34  O   UNL     1      49.452   2.503  16.480  0.00  0.00    +0.000 OA
ATOM     35  H   UNL     1      49.601   1.793  17.127  0.00  0.00    +0.000 HD
ENDBRANCH  30  34
ENDBRANCH  28  32
ENDBRANCH   1  28
TORSDOF 9
ENDMDL
