MODEL 1
REMARK VINA RESULT:    -9.024      0.000      0.000
REMARK INTER + INTRA:         -12.427
REMARK INTER:                 -11.662
REMARK INTRA:                  -0.765
REMARK UNBOUND:                -0.765
REMARK  Name = 
REMARK  5 active torsions:
REMARK  status: ('A' for Active; 'I' for Inactive)
REMARK    1  A    between atoms: C_2  and  C_4
REMARK    2  A    between atoms: C_7  and  O_8
REMARK    3  A    between atoms: O_8  and  C_9
REMARK    4  A    between atoms: C_9  and  C_10
REMARK    5  A    between atoms: C_12  and  C_13
REMARK                            x       y       z     vdW  Elec       q    Type
REMARK                         _______ _______ _______ _____ _____    ______ ____
ROOT
ATOM      1  C   UNL     1      43.773   3.176  11.647  0.00  0.00    +0.000 C 
ENDROOT
BRANCH   1   2
ATOM      2  C   UNL     1      44.909   3.950  12.276  0.00  0.00    +0.000 A 
ATOM      3  C   UNL     1      45.095   5.308  12.010  0.00  0.00    +0.000 A 
ATOM      4  C   UNL     1      46.171   6.002  12.584  0.00  0.00    +0.000 A 
ATOM      5  C   UNL     1      47.042   5.258  13.391  0.00  0.00    +0.000 A 
ATOM      6  C   UNL     1      46.809   3.907  13.585  0.00  0.00    +0.000 A 
ATOM      7  N   UNL     1      45.769   3.240  13.047  0.00  0.00    +0.000 NA
BRANCH   4   8
ATOM      8  C   UNL     1      46.369   7.455  12.363  0.00  0.00    +0.000 A 
ATOM      9  C   UNL     1      45.288   8.360  12.403  0.00  0.00    +0.000 A 
ATOM     10  C   UNL     1      45.472   9.737  12.227  0.00  0.00    +0.000 A 
ATOM     11  C   UNL     1      46.750  10.243  12.018  0.00  0.00    +0.000 A 
ATOM     12  C   UNL     1      47.824   9.368  11.968  0.00  0.00    +0.000 A 
ATOM     13  F   UNL     1      49.057   9.850  11.770  0.00  0.00    +0.000 F 
ATOM     14  C   UNL     1      47.644   7.996  12.127  0.00  0.00    +0.000 A 
ENDBRANCH   4   8
ENDBRANCH   1   2
BRANCH   1  15
ATOM     15  O   UNL     1      43.565   3.555  10.281  0.00  0.00    +0.000 OA
BRANCH  15  19
ATOM     16  C   UNL     1      46.459   2.557   7.449  0.00  0.00    +0.000 A 
ATOM     17  C   UNL     1      45.974   1.551   8.290  0.00  0.00    +0.000 A 
ATOM     18  C   UNL     1      45.004   1.847   9.254  0.00  0.00    +0.000 A 
ATOM     19  C   UNL     1      44.517   3.149   9.386  0.00  0.00    +0.000 A 
ATOM     20  C   UNL     1      45.020   4.156   8.557  0.00  0.00    +0.000 A 
ATOM     21  C   UNL     1      45.992   3.867   7.596  0.00  0.00    +0.000 A 
BRANCH  16  23
ATOM     22  N   UNL     1      47.506   3.091   5.319  0.00  0.00    +0.000 N 
ATOM     23  C   UNL     1      47.477   2.266   6.409  0.00  0.00    +0.000 C 
ATOM     24  O   UNL     1      48.283   1.352   6.534  0.00  0.00    +0.000 OA
ATOM     25  H   UNL     1      48.272   2.952   4.673  0.00  0.00    +0.000 HD
ATOM     26  H   UNL     1      47.044   3.988   5.312  0.00  0.00    +0.000 HD
ENDBRANCH  16  23
ENDBRANCH  15  19
ENDBRANCH   1  15
TORSDOF 5
ENDMDL
MODEL 2
REMARK VINA RESULT:    -8.942      0.895      1.327
REMARK INTER + INTRA:         -12.321
REMARK INTER:                 -11.562
REMARK INTRA:                  -0.758
REMARK UNBOUND:                -0.765
REMARK  Name = 
REMARK  5 active torsions:
REMARK  status: ('A' for Active; 'I' for Inactive)
REMARK    1  A    between atoms: C_2  and  C_4
REMARK    2  A    between atoms: C_7  and  O_8
REMARK    3  A    between atoms: O_8  and  C_9
REMARK    4  A    between atoms: C_9  and  C_10
REMARK    5  A    between atoms: C_12  and  C_13
REMARK                            x       y       z     vdW  Elec       q    Type
REMARK                         _______ _______ _______ _____ _____    ______ ____
ROOT
ATOM      1  C   UNL     1      43.784   3.591  11.528  0.00  0.00    +0.000 C 
ENDROOT
BRANCH   1   2
ATOM      2  C   UNL     1      44.971   4.240  12.205  0.00  0.00    +0.000 A 
ATOM      3  C   UNL     1      45.327   5.561  11.932  0.00  0.00    +0.000 A 
ATOM      4  C   UNL     1      46.447   6.136  12.551  0.00  0.00    +0.000 A 
ATOM      5  C   UNL     1      47.184   5.312  13.411  0.00  0.00    +0.000 A 
ATOM      6  C   UNL     1      46.785   4.000  13.610  0.00  0.00    +0.000 A 
ATOM      7  N   UNL     1      45.703   3.449  13.028  0.00  0.00    +0.000 NA
BRANCH   4   8
ATOM      8  C   UNL     1      46.825   7.552  12.321  0.00  0.00    +0.000 A 
ATOM      9  C   UNL     1      48.156   7.922  12.036  0.00  0.00    +0.000 A 
ATOM     10  C   UNL     1      48.515   9.253  11.787  0.00  0.00    +0.000 A 
ATOM     11  C   UNL     1      47.543  10.246  11.805  0.00  0.00    +0.000 A 
ATOM     12  C   UNL     1      46.230   9.902  12.092  0.00  0.00    +0.000 A 
ATOM     13  F   UNL     1      45.289  10.855  12.108  0.00  0.00    +0.000 F 
ATOM     14  C   UNL     1      45.871   8.583  12.356  0.00  0.00    +0.000 A 
ENDBRANCH   4   8
ENDBRANCH   1   2
BRANCH   1  15
ATOM     15  O   UNL     1      43.686   3.970  10.151  0.00  0.00    +0.000 OA
BRANCH  15  19
ATOM     16  C   UNL     1      46.602   2.637   7.482  0.00  0.00    +0.000 A 
ATOM     17  C   UNL     1      45.959   1.697   8.294  0.00  0.00    +0.000 A 
ATOM     18  C   UNL     1      44.977   2.105   9.202  0.00  0.00    +0.000 A 
ATOM     19  C   UNL     1      44.634   3.455   9.309  0.00  0.00    +0.000 A 
ATOM     20  C   UNL     1      45.294   4.395   8.511  0.00  0.00    +0.000 A 
ATOM     21  C   UNL     1      46.279   3.992   7.605  0.00  0.00    +0.000 A 
BRANCH  16  23
ATOM     22  N   UNL     1      47.796   3.022   5.399  0.00  0.00    +0.000 N 
ATOM     23  C   UNL     1      47.636   2.227   6.500  0.00  0.00    +0.000 C 
ATOM     24  O   UNL     1      48.344   1.244   6.683  0.00  0.00    +0.000 OA
ATOM     25  H   UNL     1      48.576   2.796   4.794  0.00  0.00    +0.000 HD
ATOM     26  H   UNL     1      47.423   3.958   5.353  0.00  0.00    +0.000 HD
ENDBRANCH  16  23
ENDBRANCH  15  19
ENDBRANCH   1  15
TORSDOF 5
ENDMDL
MODEL 3
REMARK VINA RESULT:    -8.373      1.591      2.169
REMARK INTER + INTRA:         -11.585
REMARK INTER:                 -10.788
REMARK INTRA:                  -0.797
REMARK UNBOUND:                -0.765
REMARK  Name = 
REMARK  5 active torsions:
REMARK  status: ('A' for Active; 'I' for Inactive)
REMARK    1  A    between atoms: C_2  and  C_4
REMARK    2  A    between atoms: C_7  and  O_8
REMARK    3  A    between atoms: O_8  and  C_9
REMARK    4  A    between atoms: C_9  and  C_10
REMARK    5  A    between atoms: C_12  and  C_13
REMARK                            x       y       z     vdW  Elec       q    Type
REMARK                         _______ _______ _______ _____ _____    ______ ____
ROOT
ATOM      1  C   UNL     1      43.845   5.081  10.948  0.00  0.00    +0.000 C 
ENDROOT
BRANCH   1   2
ATOM      2  C   UNL     1      44.984   5.076  11.943  0.00  0.00    +0.000 A 
ATOM      3  C   UNL     1      46.044   5.977  11.834  0.00  0.00    +0.000 A 
ATOM      4  C   UNL     1      47.105   5.939  12.752  0.00  0.00    +0.000 A 
ATOM      5  C   UNL     1      47.050   4.944  13.737  0.00  0.00    +0.000 A 
ATOM      6  C   UNL     1      45.978   4.066  13.763  0.00  0.00    +0.000 A 
ATOM      7  N   UNL     1      44.953   4.109  12.892  0.00  0.00    +0.000 NA
BRANCH   4   8
ATOM      8  C   UNL     1      48.221   6.913  12.696  0.00  0.00    +0.000 A 
ATOM      9  C   UNL     1      48.426   7.735  11.568  0.00  0.00    +0.000 A 
ATOM     10  C   UNL     1      49.458   8.680  11.521  0.00  0.00    +0.000 A 
ATOM     11  C   UNL     1      50.307   8.832  12.611  0.00  0.00    +0.000 A 
ATOM     12  C   UNL     1      50.127   8.027  13.726  0.00  0.00    +0.000 A 
ATOM     13  F   UNL     1      50.939   8.172  14.780  0.00  0.00    +0.000 F 
ATOM     14  C   UNL     1      49.111   7.075  13.772  0.00  0.00    +0.000 A 
ENDBRANCH   4   8
ENDBRANCH   1   2
BRANCH   1  15
ATOM     15  O   UNL     1      43.715   3.819  10.284  0.00  0.00    +0.000 OA
BRANCH  15  19
ATOM     16  C   UNL     1      46.608   2.688   7.500  0.00  0.00    +0.000 A 
ATOM     17  C   UNL     1      46.245   4.036   7.575  0.00  0.00    +0.000 A 
ATOM     18  C   UNL     1      45.278   4.454   8.495  0.00  0.00    +0.000 A 
ATOM     19  C   UNL     1      44.664   3.528   9.341  0.00  0.00    +0.000 A 
ATOM     20  C   UNL     1      45.014   2.178   9.248  0.00  0.00    +0.000 A 
ATOM     21  C   UNL     1      45.976   1.754   8.328  0.00  0.00    +0.000 A 
BRANCH  16  23
ATOM     22  N   UNL     1      47.796   2.944   5.394  0.00  0.00    +0.000 N 
ATOM     23  C   UNL     1      47.642   2.221   6.544  0.00  0.00    +0.000 C 
ATOM     24  O   UNL     1      48.356   1.255   6.787  0.00  0.00    +0.000 OA
ATOM     25  H   UNL     1      48.575   2.684   4.803  0.00  0.00    +0.000 HD
ATOM     26  H   UNL     1      47.417   3.873   5.288  0.00  0.00    +0.000 HD
ENDBRANCH  16  23
ENDBRANCH  15  19
ENDBRANCH   1  15
TORSDOF 5
ENDMDL
MODEL 4
REMARK VINA RESULT:    -8.157      3.633      6.883
REMARK INTER + INTRA:         -11.307
REMARK INTER:                 -10.463
REMARK INTRA:                  -0.843
REMARK UNBOUND:                -0.765
REMARK  Name = 
REMARK  5 active torsions:
REMARK  status: ('A' for Active; 'I' for Inactive)
REMARK    1  A    between atoms: C_2  and  C_4
REMARK    2  A    between atoms: C_7  and  O_8
REMARK    3  A    between atoms: O_8  and  C_9
REMARK    4  A    between atoms: C_9  and  C_10
REMARK    5  A    between atoms: C_12  and  C_13
REMARK                            x       y       z     vdW  Elec       q    Type
REMARK                         _______ _______ _______ _____ _____    ______ ____
ROOT
ATOM      1  C   UNL     1      44.113   6.570  11.672  0.00  0.00    +0.000 C 
ENDROOT
BRANCH   1   2
ATOM      2  C   UNL     1      44.110   5.117  11.250  0.00  0.00    +0.000 A 
ATOM      3  C   UNL     1      44.826   4.686  10.133  0.00  0.00    +0.000 A 
ATOM      4  C   UNL     1      44.789   3.339   9.743  0.00  0.00    +0.000 A 
ATOM      5  C   UNL     1      43.983   2.484  10.506  0.00  0.00    +0.000 A 
ATOM      6  C   UNL     1      43.277   2.992  11.585  0.00  0.00    +0.000 A 
ATOM      7  N   UNL     1      43.322   4.282  11.970  0.00  0.00    +0.000 NA
BRANCH   4   8
ATOM      8  C   UNL     1      45.578   2.838   8.592  0.00  0.00    +0.000 A 
ATOM      9  C   UNL     1      46.026   3.704   7.572  0.00  0.00    +0.000 A 
ATOM     10  C   UNL     1      46.798   3.243   6.499  0.00  0.00    +0.000 A 
ATOM     11  C   UNL     1      47.150   1.901   6.426  0.00  0.00    +0.000 A 
ATOM     12  C   UNL     1      46.712   1.032   7.414  0.00  0.00    +0.000 A 
ATOM     13  F   UNL     1      47.051  -0.262   7.350  0.00  0.00    +0.000 F 
ATOM     14  C   UNL     1      45.931   1.482   8.476  0.00  0.00    +0.000 A 
ENDBRANCH   4   8
ENDBRANCH   1   2
BRANCH   1  15
ATOM     15  O   UNL     1      44.827   6.764  12.899  0.00  0.00    +0.000 OA
BRANCH  15  19
ATOM     16  C   UNL     1      48.898   7.541  12.430  0.00  0.00    +0.000 A 
ATOM     17  C   UNL     1      48.513   6.365  13.084  0.00  0.00    +0.000 A 
ATOM     18  C   UNL     1      47.158   6.071  13.261  0.00  0.00    +0.000 A 
ATOM     19  C   UNL     1      46.179   6.949  12.792  0.00  0.00    +0.000 A 
ATOM     20  C   UNL     1      46.568   8.134  12.158  0.00  0.00    +0.000 A 
ATOM     21  C   UNL     1      47.921   8.434  11.982  0.00  0.00    +0.000 A 
BRANCH  16  23
ATOM     22  N   UNL     1      51.129   7.914  13.323  0.00  0.00    +0.000 N 
ATOM     23  C   UNL     1      50.329   7.869  12.215  0.00  0.00    +0.000 C 
ATOM     24  O   UNL     1      50.787   8.053  11.094  0.00  0.00    +0.000 OA
ATOM     25  H   UNL     1      52.120   8.029  13.155  0.00  0.00    +0.000 HD
ATOM     26  H   UNL     1      50.846   7.518  14.207  0.00  0.00    +0.000 HD
ENDBRANCH  16  23
ENDBRANCH  15  19
ENDBRANCH   1  15
TORSDOF 5
ENDMDL
MODEL 5
REMARK VINA RESULT:    -8.088      2.488      3.982
REMARK INTER + INTRA:         -11.218
REMARK INTER:                 -10.717
REMARK INTRA:                  -0.501
REMARK UNBOUND:                -0.765
REMARK  Name = 
REMARK  5 active torsions:
REMARK  status: ('A' for Active; 'I' for Inactive)
REMARK    1  A    between atoms: C_2  and  C_4
REMARK    2  A    between atoms: C_7  and  O_8
REMARK    3  A    between atoms: O_8  and  C_9
REMARK    4  A    between atoms: C_9  and  C_10
REMARK    5  A    between atoms: C_12  and  C_13
REMARK                            x       y       z     vdW  Elec       q    Type
REMARK                         _______ _______ _______ _____ _____    ______ ____
ROOT
ATOM      1  C   UNL     1      44.203   3.883  11.774  0.00  0.00    +0.000 C 
ENDROOT
BRANCH   1   2
ATOM      2  C   UNL     1      45.317   4.679  12.416  0.00  0.00    +0.000 A 
ATOM      3  C   UNL     1      45.910   4.261  13.608  0.00  0.00    +0.000 A 
ATOM      4  C   UNL     1      46.925   5.027  14.202  0.00  0.00    +0.000 A 
ATOM      5  C   UNL     1      47.271   6.222  13.557  0.00  0.00    +0.000 A 
ATOM      6  C   UNL     1      46.616   6.585  12.392  0.00  0.00    +0.000 A 
ATOM      7  N   UNL     1      45.652   5.845  11.813  0.00  0.00    +0.000 NA
BRANCH   4   8
ATOM      8  C   UNL     1      47.611   4.588  15.441  0.00  0.00    +0.000 A 
ATOM      9  C   UNL     1      47.587   3.240  15.859  0.00  0.00    +0.000 A 
ATOM     10  C   UNL     1      48.259   2.812  17.010  0.00  0.00    +0.000 A 
ATOM     11  C   UNL     1      48.984   3.725  17.767  0.00  0.00    +0.000 A 
ATOM     12  C   UNL     1      49.013   5.056  17.377  0.00  0.00    +0.000 A 
ATOM     13  F   UNL     1      49.712   5.938  18.101  0.00  0.00    +0.000 F 
ATOM     14  C   UNL     1      48.333   5.489  16.241  0.00  0.00    +0.000 A 
ENDBRANCH   4   8
ENDBRANCH   1   2
BRANCH   1  15
ATOM     15  O   UNL     1      44.010   4.251  10.403  0.00  0.00    +0.000 OA
BRANCH  15  19
ATOM     16  C   UNL     1      46.573   2.674   7.516  0.00  0.00    +0.000 A 
ATOM     17  C   UNL     1      45.934   1.792   8.393  0.00  0.00    +0.000 A 
ATOM     18  C   UNL     1      45.068   2.284   9.376  0.00  0.00    +0.000 A 
ATOM     19  C   UNL     1      44.840   3.657   9.491  0.00  0.00    +0.000 A 
ATOM     20  C   UNL     1      45.498   4.536   8.626  0.00  0.00    +0.000 A 
ATOM     21  C   UNL     1      46.367   4.050   7.645  0.00  0.00    +0.000 A 
BRANCH  16  23
ATOM     22  N   UNL     1      47.759   3.029   5.422  0.00  0.00    +0.000 N 
ATOM     23  C   UNL     1      47.484   2.177   6.455  0.00  0.00    +0.000 C 
ATOM     24  O   UNL     1      48.000   1.067   6.517  0.00  0.00    +0.000 OA
ATOM     25  H   UNL     1      48.465   2.723   4.765  0.00  0.00    +0.000 HD
ATOM     26  H   UNL     1      47.567   4.018   5.476  0.00  0.00    +0.000 HD
ENDBRANCH  16  23
ENDBRANCH  15  19
ENDBRANCH   1  15
TORSDOF 5
ENDMDL
MODEL 6
REMARK VINA RESULT:    -7.761      3.813      7.676
REMARK INTER + INTRA:         -10.795
REMARK INTER:                 -10.235
REMARK INTRA:                  -0.559
REMARK UNBOUND:                -0.765
REMARK  Name = 
REMARK  5 active torsions:
REMARK  status: ('A' for Active; 'I' for Inactive)
REMARK    1  A    between atoms: C_2  and  C_4
REMARK    2  A    between atoms: C_7  and  O_8
REMARK    3  A    between atoms: O_8  and  C_9
REMARK    4  A    between atoms: C_9  and  C_10
REMARK    5  A    between atoms: C_12  and  C_13
REMARK                            x       y       z     vdW  Elec       q    Type
REMARK                         _______ _______ _______ _____ _____    ______ ____
ROOT
ATOM      1  C   UNL     1      45.822   7.086  12.253  0.00  0.00    +0.000 C 
ENDROOT
BRANCH   1   2
ATOM      2  C   UNL     1      45.076   6.016  11.485  0.00  0.00    +0.000 A 
ATOM      3  C   UNL     1      45.701   5.279  10.479  0.00  0.00    +0.000 A 
ATOM      4  C   UNL     1      44.985   4.309   9.762  0.00  0.00    +0.000 A 
ATOM      5  C   UNL     1      43.630   4.157  10.088  0.00  0.00    +0.000 A 
ATOM      6  C   UNL     1      43.073   4.947  11.080  0.00  0.00    +0.000 A 
ATOM      7  N   UNL     1      43.761   5.869  11.779  0.00  0.00    +0.000 NA
BRANCH   4   8
ATOM      8  C   UNL     1      45.630   3.473   8.721  0.00  0.00    +0.000 A 
ATOM      9  C   UNL     1      46.265   4.050   7.601  0.00  0.00    +0.000 A 
ATOM     10  C   UNL     1      46.904   3.269   6.630  0.00  0.00    +0.000 A 
ATOM     11  C   UNL     1      46.933   1.886   6.765  0.00  0.00    +0.000 A 
ATOM     12  C   UNL     1      46.307   1.299   7.855  0.00  0.00    +0.000 A 
ATOM     13  F   UNL     1      46.335  -0.032   7.992  0.00  0.00    +0.000 F 
ATOM     14  C   UNL     1      45.657   2.071   8.815  0.00  0.00    +0.000 A 
ENDBRANCH   4   8
ENDBRANCH   1   2
BRANCH   1  15
ATOM     15  O   UNL     1      47.175   6.700  12.521  0.00  0.00    +0.000 OA
BRANCH  15  19
ATOM     16  C   UNL     1      48.055   4.989  16.222  0.00  0.00    +0.000 A 
ATOM     17  C   UNL     1      47.141   4.339  15.386  0.00  0.00    +0.000 A 
ATOM     18  C   UNL     1      46.819   4.883  14.139  0.00  0.00    +0.000 A 
ATOM     19  C   UNL     1      47.404   6.080  13.720  0.00  0.00    +0.000 A 
ATOM     20  C   UNL     1      48.301   6.737  14.567  0.00  0.00    +0.000 A 
ATOM     21  C   UNL     1      48.622   6.201  15.816  0.00  0.00    +0.000 A 
BRANCH  16  23
ATOM     22  N   UNL     1      47.447   3.762  18.231  0.00  0.00    +0.000 N 
ATOM     23  C   UNL     1      48.425   4.425  17.544  0.00  0.00    +0.000 C 
ATOM     24  O   UNL     1      49.564   4.514  17.987  0.00  0.00    +0.000 OA
ATOM     25  H   UNL     1      47.738   3.288  19.077  0.00  0.00    +0.000 HD
ATOM     26  H   UNL     1      46.596   3.450  17.789  0.00  0.00    +0.000 HD
ENDBRANCH  16  23
ENDBRANCH  15  19
ENDBRANCH   1  15
TORSDOF 5
ENDMDL
MODEL 7
REMARK VINA RESULT:    -7.599      3.360      7.218
REMARK INTER + INTRA:         -10.585
REMARK INTER:                 -10.014
REMARK INTRA:                  -0.572
REMARK UNBOUND:                -0.765
REMARK  Name = 
REMARK  5 active torsions:
REMARK  status: ('A' for Active; 'I' for Inactive)
REMARK    1  A    between atoms: C_2  and  C_4
REMARK    2  A    between atoms: C_7  and  O_8
REMARK    3  A    between atoms: O_8  and  C_9
REMARK    4  A    between atoms: C_9  and  C_10
REMARK    5  A    between atoms: C_12  and  C_13
REMARK                            x       y       z     vdW  Elec       q    Type
REMARK                         _______ _______ _______ _____ _____    ______ ____
ROOT
ATOM      1  C   UNL     1      43.682   6.365  11.370  0.00  0.00    +0.000 C 
ENDROOT
BRANCH   1   2
ATOM      2  C   UNL     1      43.859   4.904  11.020  0.00  0.00    +0.000 A 
ATOM      3  C   UNL     1      44.623   4.511   9.921  0.00  0.00    +0.000 A 
ATOM      4  C   UNL     1      44.754   3.152   9.597  0.00  0.00    +0.000 A 
ATOM      5  C   UNL     1      44.059   2.242  10.406  0.00  0.00    +0.000 A 
ATOM      6  C   UNL     1      43.296   2.711  11.462  0.00  0.00    +0.000 A 
ATOM      7  N   UNL     1      43.179   4.014  11.783  0.00  0.00    +0.000 NA
BRANCH   4   8
ATOM      8  C   UNL     1      45.599   2.696   8.467  0.00  0.00    +0.000 A 
ATOM      9  C   UNL     1      46.114   1.383   8.415  0.00  0.00    +0.000 A 
ATOM     10  C   UNL     1      46.886   0.936   7.335  0.00  0.00    +0.000 A 
ATOM     11  C   UNL     1      47.151   1.793   6.273  0.00  0.00    +0.000 A 
ATOM     12  C   UNL     1      46.661   3.089   6.310  0.00  0.00    +0.000 A 
ATOM     13  F   UNL     1      46.911   3.917   5.289  0.00  0.00    +0.000 F 
ATOM     14  C   UNL     1      45.905   3.544   7.389  0.00  0.00    +0.000 A 
ENDBRANCH   4   8
ENDBRANCH   1   2
BRANCH   1  15
ATOM     15  O   UNL     1      44.830   7.141  11.007  0.00  0.00    +0.000 OA
BRANCH  15  19
ATOM     16  C   UNL     1      47.809   7.607  13.888  0.00  0.00    +0.000 A 
ATOM     17  C   UNL     1      47.793   6.433  13.129  0.00  0.00    +0.000 A 
ATOM     18  C   UNL     1      46.809   6.239  12.154  0.00  0.00    +0.000 A 
ATOM     19  C   UNL     1      45.833   7.213  11.935  0.00  0.00    +0.000 A 
ATOM     20  C   UNL     1      45.839   8.377  12.711  0.00  0.00    +0.000 A 
ATOM     21  C   UNL     1      46.818   8.573  13.689  0.00  0.00    +0.000 A 
BRANCH  16  23
ATOM     22  N   UNL     1      48.627   7.319  16.160  0.00  0.00    +0.000 N 
ATOM     23  C   UNL     1      48.851   7.843  14.918  0.00  0.00    +0.000 C 
ATOM     24  O   UNL     1      49.886   8.447  14.661  0.00  0.00    +0.000 OA
ATOM     25  H   UNL     1      49.391   7.391  16.820  0.00  0.00    +0.000 HD
ATOM     26  H   UNL     1      47.928   6.610  16.327  0.00  0.00    +0.000 HD
ENDBRANCH  16  23
ENDBRANCH  15  19
ENDBRANCH   1  15
TORSDOF 5
ENDMDL
MODEL 8
REMARK VINA RESULT:    -7.421      4.557      8.435
REMARK INTER + INTRA:         -10.355
REMARK INTER:                  -9.888
REMARK INTRA:                  -0.467
REMARK UNBOUND:                -0.765
REMARK  Name = 
REMARK  5 active torsions:
REMARK  status: ('A' for Active; 'I' for Inactive)
REMARK    1  A    between atoms: C_2  and  C_4
REMARK    2  A    between atoms: C_7  and  O_8
REMARK    3  A    between atoms: O_8  and  C_9
REMARK    4  A    between atoms: C_9  and  C_10
REMARK    5  A    between atoms: C_12  and  C_13
REMARK                            x       y       z     vdW  Elec       q    Type
REMARK                         _______ _______ _______ _____ _____    ______ ____
ROOT
ATOM      1  C   UNL     1      46.022   5.159  13.973  0.00  0.00    +0.000 C 
ENDROOT
BRANCH   1   2
ATOM      2  C   UNL     1      45.140   4.764  12.809  0.00  0.00    +0.000 A 
ATOM      3  C   UNL     1      45.685   4.269  11.624  0.00  0.00    +0.000 A 
ATOM      4  C   UNL     1      44.852   3.932  10.546  0.00  0.00    +0.000 A 
ATOM      5  C   UNL     1      43.479   4.152  10.719  0.00  0.00    +0.000 A 
ATOM      6  C   UNL     1      43.016   4.674  11.915  0.00  0.00    +0.000 A 
ATOM      7  N   UNL     1      43.811   4.985  12.956  0.00  0.00    +0.000 NA
BRANCH   4   8
ATOM      8  C   UNL     1      45.393   3.357   9.291  0.00  0.00    +0.000 A 
ATOM      9  C   UNL     1      45.777   4.178   8.209  0.00  0.00    +0.000 A 
ATOM     10  C   UNL     1      46.318   3.644   7.034  0.00  0.00    +0.000 A 
ATOM     11  C   UNL     1      46.500   2.270   6.917  0.00  0.00    +0.000 A 
ATOM     12  C   UNL     1      46.121   1.447   7.966  0.00  0.00    +0.000 A 
ATOM     13  F   UNL     1      46.296   0.124   7.861  0.00  0.00    +0.000 F 
ATOM     14  C   UNL     1      45.568   1.972   9.132  0.00  0.00    +0.000 A 
ENDBRANCH   4   8
ENDBRANCH   1   2
BRANCH   1  15
ATOM     15  O   UNL     1      46.614   4.017  14.602  0.00  0.00    +0.000 OA
BRANCH  15  19
ATOM     16  C   UNL     1      48.584   4.516  18.244  0.00  0.00    +0.000 A 
ATOM     17  C   UNL     1      48.755   5.489  17.254  0.00  0.00    +0.000 A 
ATOM     18  C   UNL     1      48.112   5.355  16.019  0.00  0.00    +0.000 A 
ATOM     19  C   UNL     1      47.299   4.249  15.763  0.00  0.00    +0.000 A 
ATOM     20  C   UNL     1      47.148   3.268  16.749  0.00  0.00    +0.000 A 
ATOM     21  C   UNL     1      47.791   3.394  17.982  0.00  0.00    +0.000 A 
BRANCH  16  23
ATOM     22  N   UNL     1      48.671   3.970  20.612  0.00  0.00    +0.000 N 
ATOM     23  C   UNL     1      49.243   4.641  19.568  0.00  0.00    +0.000 C 
ATOM     24  O   UNL     1      50.275   5.285  19.715  0.00  0.00    +0.000 OA
ATOM     25  H   UNL     1      49.189   3.972  21.482  0.00  0.00    +0.000 HD
ATOM     26  H   UNL     1      47.993   3.237  20.473  0.00  0.00    +0.000 HD
ENDBRANCH  16  23
ENDBRANCH  15  19
ENDBRANCH   1  15
TORSDOF 5
ENDMDL
MODEL 9
REMARK VINA RESULT:    -7.093      3.979      7.273
REMARK INTER + INTRA:          -9.931
REMARK INTER:                  -9.275
REMARK INTRA:                  -0.657
REMARK UNBOUND:                -0.765
REMARK  Name = 
REMARK  5 active torsions:
REMARK  status: ('A' for Active; 'I' for Inactive)
REMARK    1  A    between atoms: C_2  and  C_4
REMARK    2  A    between atoms: C_7  and  O_8
REMARK    3  A    between atoms: O_8  and  C_9
REMARK    4  A    between atoms: C_9  and  C_10
REMARK    5  A    between atoms: C_12  and  C_13
REMARK                            x       y       z     vdW  Elec       q    Type
REMARK                         _______ _______ _______ _____ _____    ______ ____
ROOT
ATOM      1  C   UNL     1      45.456   7.293  12.882  0.00  0.00    +0.000 C 
ENDROOT
BRANCH   1   2
ATOM      2  C   UNL     1      44.773   6.128  12.199  0.00  0.00    +0.000 A 
ATOM      3  C   UNL     1      45.348   5.499  11.094  0.00  0.00    +0.000 A 
ATOM      4  C   UNL     1      44.687   4.437  10.459  0.00  0.00    +0.000 A 
ATOM      5  C   UNL     1      43.432   4.081  10.970  0.00  0.00    +0.000 A 
ATOM      6  C   UNL     1      42.913   4.772  12.052  0.00  0.00    +0.000 A 
ATOM      7  N   UNL     1      43.551   5.783  12.673  0.00  0.00    +0.000 NA
BRANCH   4   8
ATOM      8  C   UNL     1      45.292   3.714   9.315  0.00  0.00    +0.000 A 
ATOM      9  C   UNL     1      45.890   4.405   8.239  0.00  0.00    +0.000 A 
ATOM     10  C   UNL     1      46.491   3.729   7.171  0.00  0.00    +0.000 A 
ATOM     11  C   UNL     1      46.518   2.339   7.159  0.00  0.00    +0.000 A 
ATOM     12  C   UNL     1      45.928   1.643   8.203  0.00  0.00    +0.000 A 
ATOM     13  F   UNL     1      45.954   0.304   8.198  0.00  0.00    +0.000 F 
ATOM     14  C   UNL     1      45.315   2.310   9.261  0.00  0.00    +0.000 A 
ENDBRANCH   4   8
ENDBRANCH   1   2
BRANCH   1  15
ATOM     15  O   UNL     1      46.078   8.171  11.938  0.00  0.00    +0.000 OA
BRANCH  15  19
ATOM     16  C   UNL     1      50.173   8.749  12.479  0.00  0.00    +0.000 A 
ATOM     17  C   UNL     1      49.298   9.764  12.876  0.00  0.00    +0.000 A 
ATOM     18  C   UNL     1      47.918   9.608  12.709  0.00  0.00    +0.000 A 
ATOM     19  C   UNL     1      47.404   8.441  12.141  0.00  0.00    +0.000 A 
ATOM     20  C   UNL     1      48.285   7.437  11.726  0.00  0.00    +0.000 A 
ATOM     21  C   UNL     1      49.664   7.589  11.886  0.00  0.00    +0.000 A 
BRANCH  16  23
ATOM     22  N   UNL     1      52.240   8.025  13.538  0.00  0.00    +0.000 N 
ATOM     23  C   UNL     1      51.640   8.883  12.659  0.00  0.00    +0.000 C 
ATOM     24  O   UNL     1      52.295   9.699  12.021  0.00  0.00    +0.000 OA
ATOM     25  H   UNL     1      53.251   8.052  13.570  0.00  0.00    +0.000 HD
ATOM     26  H   UNL     1      51.782   7.190  13.870  0.00  0.00    +0.000 HD
ENDBRANCH  16  23
ENDBRANCH  15  19
ENDBRANCH   1  15
TORSDOF 5
ENDMDL
