MODEL 1
REMARK VINA RESULT:    -7.359      0.000      0.000
REMARK INTER + INTRA:          -9.967
REMARK INTER:                  -9.725
REMARK INTRA:                  -0.242
REMARK UNBOUND:                -0.242
REMARK  Name = 
REMARK  8 active torsions:
REMARK  status: ('A' for Active; 'I' for Inactive)
REMARK    1  A    between atoms: C_1  and  O_2
REMARK    2  A    between atoms: O_2  and  C_3
REMARK    3  A    between atoms: C_5  and  C_6
REMARK    4  A    between atoms: C_6  and  N_7
REMARK    5  A    between atoms: C_12  and  C_13
REMARK    6  A    between atoms: C_13  and  O_15
REMARK    7  A    between atoms: C_16  and  C_17
REMARK    8  A    between atoms: C_22  and  C_23
REMARK                            x       y       z     vdW  Elec       q    Type
REMARK                         _______ _______ _______ _____ _____    ______ ____
ROOT
ATOM      1  C   UNL     1      43.943   6.136  10.552  0.00  0.00    +0.000 C 
ENDROOT
BRANCH   1   2
ATOM      2  N   UNL     1      43.977   4.681  10.528  0.00  0.00    +0.000 N 
ATOM      3  C   UNL     1      43.274   3.863  11.383  0.00  0.00    +0.000 A 
ATOM      4  C   UNL     1      43.569   2.558  11.060  0.00  0.00    +0.000 A 
ATOM      5  C   UNL     1      44.500   2.582   9.989  0.00  0.00    +0.000 A 
ATOM      6  C   UNL     1      45.149   1.610   9.215  0.00  0.00    +0.000 A 
ATOM      7  C   UNL     1      46.035   2.042   8.216  0.00  0.00    +0.000 A 
ATOM      8  C   UNL     1      46.236   3.420   8.030  0.00  0.00    +0.000 A 
ATOM      9  C   UNL     1      47.138   3.987   6.966  0.00  0.00    +0.000 C 
ATOM     10  N   UNL     1      45.610   4.384   8.764  0.00  0.00    +0.000 NA
ATOM     11  C   UNL     1      44.761   3.916   9.699  0.00  0.00    +0.000 A 
BRANCH   7  12
ATOM     12  C   UNL     1      46.668   1.026   7.340  0.00  0.00    +0.000 C 
ATOM     13  O   UNL     1      47.097   1.272   6.227  0.00  0.00    +0.000 OA
BRANCH  12  14
ATOM     14  O   UNL     1      46.724  -0.211   7.883  0.00  0.00    +0.000 OA
ATOM     15  H   UNL     1      46.173  -0.895   7.461  0.00  0.00    +0.000 HD
ENDBRANCH  12  14
ENDBRANCH   7  12
ENDBRANCH   1   2
BRANCH   1  18
ATOM     16  C   UNL     1      46.876   6.378  13.007  0.00  0.00    +0.000 A 
ATOM     17  C   UNL     1      45.922   5.875  12.105  0.00  0.00    +0.000 A 
ATOM     18  C   UNL     1      45.000   6.719  11.462  0.00  0.00    +0.000 A 
ATOM     19  C   UNL     1      45.067   8.095  11.699  0.00  0.00    +0.000 A 
ATOM     20  C   UNL     1      46.022   8.609  12.582  0.00  0.00    +0.000 A 
ATOM     21  C   UNL     1      46.928   7.764  13.247  0.00  0.00    +0.000 A 
BRANCH  21  22
ATOM     22  C   UNL     1      47.898   8.433  14.176  0.00  0.00    +0.000 C 
ATOM     23  N   UNL     1      47.901   8.066  15.488  0.00  0.00    +0.000 N 
ATOM     24  O   UNL     1      48.680   9.291  13.776  0.00  0.00    +0.000 OA
ATOM     25  H   UNL     1      47.232   7.397  15.849  0.00  0.00    +0.000 HD
ATOM     26  H   UNL     1      48.543   8.522  16.120  0.00  0.00    +0.000 HD
ENDBRANCH  21  22
BRANCH  16  28
ATOM     27  C   UNL     1      47.136   4.646  14.634  0.00  0.00    +0.000 C 
ATOM     28  O   UNL     1      47.721   5.566  13.720  0.00  0.00    +0.000 OA
ENDBRANCH  16  28
ENDBRANCH   1  18
TORSDOF 6
ENDMDL
MODEL 2
REMARK VINA RESULT:    -7.240      0.892      2.017
REMARK INTER + INTRA:          -9.809
REMARK INTER:                  -9.664
REMARK INTRA:                  -0.146
REMARK UNBOUND:                -0.242
REMARK  Name = 
REMARK  8 active torsions:
REMARK  status: ('A' for Active; 'I' for Inactive)
REMARK    1  A    between atoms: C_1  and  O_2
REMARK    2  A    between atoms: O_2  and  C_3
REMARK    3  A    between atoms: C_5  and  C_6
REMARK    4  A    between atoms: C_6  and  N_7
REMARK    5  A    between atoms: C_12  and  C_13
REMARK    6  A    between atoms: C_13  and  O_15
REMARK    7  A    between atoms: C_16  and  C_17
REMARK    8  A    between atoms: C_22  and  C_23
REMARK                            x       y       z     vdW  Elec       q    Type
REMARK                         _______ _______ _______ _____ _____    ______ ____
ROOT
ATOM      1  C   UNL     1      43.762   5.953  10.544  0.00  0.00    +0.000 C 
ENDROOT
BRANCH   1   2
ATOM      2  N   UNL     1      43.862   4.502  10.524  0.00  0.00    +0.000 N 
ATOM      3  C   UNL     1      43.195   3.654  11.379  0.00  0.00    +0.000 A 
ATOM      4  C   UNL     1      43.550   2.363  11.060  0.00  0.00    +0.000 A 
ATOM      5  C   UNL     1      44.481   2.427   9.991  0.00  0.00    +0.000 A 
ATOM      6  C   UNL     1      45.175   1.483   9.222  0.00  0.00    +0.000 A 
ATOM      7  C   UNL     1      46.043   1.953   8.223  0.00  0.00    +0.000 A 
ATOM      8  C   UNL     1      46.183   3.338   8.034  0.00  0.00    +0.000 A 
ATOM      9  C   UNL     1      47.060   3.943   6.972  0.00  0.00    +0.000 C 
ATOM     10  N   UNL     1      45.511   4.274   8.764  0.00  0.00    +0.000 NA
ATOM     11  C   UNL     1      44.682   3.771   9.699  0.00  0.00    +0.000 A 
BRANCH   7  12
ATOM     12  C   UNL     1      46.724   0.965   7.351  0.00  0.00    +0.000 C 
ATOM     13  O   UNL     1      47.243   1.252   6.288  0.00  0.00    +0.000 OA
BRANCH  12  14
ATOM     14  O   UNL     1      46.714  -0.297   7.838  0.00  0.00    +0.000 OA
ATOM     15  H   UNL     1      46.876  -1.011   7.194  0.00  0.00    +0.000 HD
ENDBRANCH  12  14
ENDBRANCH   7  12
ENDBRANCH   1   2
BRANCH   1  18
ATOM     16  C   UNL     1      45.839   8.606  12.371  0.00  0.00    +0.000 A 
ATOM     17  C   UNL     1      44.865   7.985  11.570  0.00  0.00    +0.000 A 
ATOM     18  C   UNL     1      44.775   6.585  11.471  0.00  0.00    +0.000 A 
ATOM     19  C   UNL     1      45.653   5.799  12.222  0.00  0.00    +0.000 A 
ATOM     20  C   UNL     1      46.615   6.405  13.036  0.00  0.00    +0.000 A 
ATOM     21  C   UNL     1      46.724   7.804  13.117  0.00  0.00    +0.000 A 
BRANCH  21  22
ATOM     22  C   UNL     1      47.802   8.334  14.017  0.00  0.00    +0.000 C 
ATOM     23  N   UNL     1      47.446   9.162  15.040  0.00  0.00    +0.000 N 
ATOM     24  O   UNL     1      48.980   8.034  13.851  0.00  0.00    +0.000 OA
ATOM     25  H   UNL     1      46.487   9.461  15.165  0.00  0.00    +0.000 HD
ATOM     26  H   UNL     1      48.168   9.532  15.640  0.00  0.00    +0.000 HD
ENDBRANCH  21  22
BRANCH  16  28
ATOM     27  C   UNL     1      45.044  10.770  11.743  0.00  0.00    +0.000 C 
ATOM     28  O   UNL     1      46.009   9.966  12.410  0.00  0.00    +0.000 OA
ENDBRANCH  16  28
ENDBRANCH   1  18
TORSDOF 6
ENDMDL
MODEL 3
REMARK VINA RESULT:    -7.191      4.213      6.552
REMARK INTER + INTRA:          -9.744
REMARK INTER:                  -9.434
REMARK INTRA:                  -0.310
REMARK UNBOUND:                -0.242
REMARK  Name = 
REMARK  8 active torsions:
REMARK  status: ('A' for Active; 'I' for Inactive)
REMARK    1  A    between atoms: C_1  and  O_2
REMARK    2  A    between atoms: O_2  and  C_3
REMARK    3  A    between atoms: C_5  and  C_6
REMARK    4  A    between atoms: C_6  and  N_7
REMARK    5  A    between atoms: C_12  and  C_13
REMARK    6  A    between atoms: C_13  and  O_15
REMARK    7  A    between atoms: C_16  and  C_17
REMARK    8  A    between atoms: C_22  and  C_23
REMARK                            x       y       z     vdW  Elec       q    Type
REMARK                         _______ _______ _______ _____ _____    ______ ____
ROOT
ATOM      1  C   UNL     1      46.983   4.366  16.205  0.00  0.00    +0.000 C 
ENDROOT
BRANCH   1   2
ATOM      2  N   UNL     1      47.150   5.092  14.955  0.00  0.00    +0.000 N 
ATOM      3  C   UNL     1      48.055   6.107  14.748  0.00  0.00    +0.000 A 
ATOM      4  C   UNL     1      47.909   6.549  13.452  0.00  0.00    +0.000 A 
ATOM      5  C   UNL     1      46.864   5.795  12.858  0.00  0.00    +0.000 A 
ATOM      6  C   UNL     1      46.270   5.750  11.589  0.00  0.00    +0.000 A 
ATOM      7  C   UNL     1      45.220   4.841  11.382  0.00  0.00    +0.000 A 
ATOM      8  C   UNL     1      44.808   4.018  12.443  0.00  0.00    +0.000 A 
ATOM      9  C   UNL     1      43.718   2.989  12.316  0.00  0.00    +0.000 C 
ATOM     10  N   UNL     1      45.377   4.038  13.683  0.00  0.00    +0.000 NA
ATOM     11  C   UNL     1      46.387   4.918  13.824  0.00  0.00    +0.000 A 
BRANCH   7  12
ATOM     12  C   UNL     1      44.636   4.729  10.023  0.00  0.00    +0.000 C 
ATOM     13  O   UNL     1      45.212   4.208   9.085  0.00  0.00    +0.000 OA
BRANCH  12  14
ATOM     14  O   UNL     1      43.399   5.264   9.910  0.00  0.00    +0.000 OA
ATOM     15  H   UNL     1      42.827   5.205  10.698  0.00  0.00    +0.000 HD
ENDBRANCH  12  14
ENDBRANCH   7  12
ENDBRANCH   1   2
BRANCH   1  18
ATOM     16  C   UNL     1      50.443   3.721  17.723  0.00  0.00    +0.000 A 
ATOM     17  C   UNL     1      49.227   4.334  17.371  0.00  0.00    +0.000 A 
ATOM     18  C   UNL     1      48.248   3.653  16.627  0.00  0.00    +0.000 A 
ATOM     19  C   UNL     1      48.479   2.322  16.268  0.00  0.00    +0.000 A 
ATOM     20  C   UNL     1      49.676   1.697  16.627  0.00  0.00    +0.000 A 
ATOM     21  C   UNL     1      50.669   2.383  17.348  0.00  0.00    +0.000 A 
BRANCH  21  22
ATOM     22  C   UNL     1      51.914   1.607  17.666  0.00  0.00    +0.000 C 
ATOM     23  N   UNL     1      51.786   0.316  18.084  0.00  0.00    +0.000 N 
ATOM     24  O   UNL     1      53.028   2.110  17.554  0.00  0.00    +0.000 OA
ATOM     25  H   UNL     1      50.876  -0.102  18.231  0.00  0.00    +0.000 HD
ATOM     26  H   UNL     1      52.620  -0.206  18.312  0.00  0.00    +0.000 HD
ENDBRANCH  21  22
BRANCH  16  28
ATOM     27  C   UNL     1      51.247   4.749  19.725  0.00  0.00    +0.000 C 
ATOM     28  O   UNL     1      51.452   4.393  18.364  0.00  0.00    +0.000 OA
ENDBRANCH  16  28
ENDBRANCH   1  18
TORSDOF 6
ENDMDL
MODEL 4
REMARK VINA RESULT:    -6.786      3.722      5.933
REMARK INTER + INTRA:          -9.210
REMARK INTER:                  -8.203
REMARK INTRA:                  -1.006
REMARK UNBOUND:                -0.242
REMARK  Name = 
REMARK  8 active torsions:
REMARK  status: ('A' for Active; 'I' for Inactive)
REMARK    1  A    between atoms: C_1  and  O_2
REMARK    2  A    between atoms: O_2  and  C_3
REMARK    3  A    between atoms: C_5  and  C_6
REMARK    4  A    between atoms: C_6  and  N_7
REMARK    5  A    between atoms: C_12  and  C_13
REMARK    6  A    between atoms: C_13  and  O_15
REMARK    7  A    between atoms: C_16  and  C_17
REMARK    8  A    between atoms: C_22  and  C_23
REMARK                            x       y       z     vdW  Elec       q    Type
REMARK                         _______ _______ _______ _____ _____    ______ ____
ROOT
ATOM      1  C   UNL     1      48.934   6.924  14.231  0.00  0.00    +0.000 C 
ENDROOT
BRANCH   1   2
ATOM      2  N   UNL     1      47.783   7.532  13.580  0.00  0.00    +0.000 N 
ATOM      3  C   UNL     1      47.583   8.886  13.437  0.00  0.00    +0.000 A 
ATOM      4  C   UNL     1      46.386   9.072  12.782  0.00  0.00    +0.000 A 
ATOM      5  C   UNL     1      45.828   7.790  12.539  0.00  0.00    +0.000 A 
ATOM      6  C   UNL     1      44.671   7.315  11.906  0.00  0.00    +0.000 A 
ATOM      7  C   UNL     1      44.457   5.928  11.872  0.00  0.00    +0.000 A 
ATOM      8  C   UNL     1      45.402   5.075  12.468  0.00  0.00    +0.000 A 
ATOM      9  C   UNL     1      45.284   3.575  12.458  0.00  0.00    +0.000 C 
ATOM     10  N   UNL     1      46.538   5.514  13.081  0.00  0.00    +0.000 NA
ATOM     11  C   UNL     1      46.701   6.851  13.074  0.00  0.00    +0.000 A 
BRANCH   7  12
ATOM     12  C   UNL     1      43.277   5.409  11.139  0.00  0.00    +0.000 C 
ATOM     13  O   UNL     1      42.196   5.209  11.661  0.00  0.00    +0.000 OA
BRANCH  12  14
ATOM     14  O   UNL     1      43.507   5.168   9.828  0.00  0.00    +0.000 OA
ATOM     15  H   UNL     1      44.438   5.188   9.539  0.00  0.00    +0.000 HD
ENDBRANCH  12  14
ENDBRANCH   7  12
ENDBRANCH   1   2
BRANCH   1  18
ATOM     16  C   UNL     1      47.870   5.163  17.464  0.00  0.00    +0.000 A 
ATOM     17  C   UNL     1      48.171   5.419  16.115  0.00  0.00    +0.000 A 
ATOM     18  C   UNL     1      48.688   6.659  15.698  0.00  0.00    +0.000 A 
ATOM     19  C   UNL     1      48.944   7.640  16.661  0.00  0.00    +0.000 A 
ATOM     20  C   UNL     1      48.664   7.390  18.008  0.00  0.00    +0.000 A 
ATOM     21  C   UNL     1      48.122   6.162  18.424  0.00  0.00    +0.000 A 
BRANCH  21  22
ATOM     22  C   UNL     1      47.858   6.018  19.894  0.00  0.00    +0.000 C 
ATOM     23  N   UNL     1      48.080   4.807  20.480  0.00  0.00    +0.000 N 
ATOM     24  O   UNL     1      47.453   6.961  20.567  0.00  0.00    +0.000 OA
ATOM     25  H   UNL     1      48.367   4.004  19.934  0.00  0.00    +0.000 HD
ATOM     26  H   UNL     1      47.891   4.701  21.466  0.00  0.00    +0.000 HD
ENDBRANCH  21  22
BRANCH  16  28
ATOM     27  C   UNL     1      47.810   2.775  17.396  0.00  0.00    +0.000 C 
ATOM     28  O   UNL     1      47.276   4.000  17.882  0.00  0.00    +0.000 OA
ENDBRANCH  16  28
ENDBRANCH   1  18
TORSDOF 6
ENDMDL
MODEL 5
REMARK VINA RESULT:    -6.713      3.992      8.385
REMARK INTER + INTRA:          -9.113
REMARK INTER:                  -8.092
REMARK INTRA:                  -1.020
REMARK UNBOUND:                -0.242
REMARK  Name = 
REMARK  8 active torsions:
REMARK  status: ('A' for Active; 'I' for Inactive)
REMARK    1  A    between atoms: C_1  and  O_2
REMARK    2  A    between atoms: O_2  and  C_3
REMARK    3  A    between atoms: C_5  and  C_6
REMARK    4  A    between atoms: C_6  and  N_7
REMARK    5  A    between atoms: C_12  and  C_13
REMARK    6  A    between atoms: C_13  and  O_15
REMARK    7  A    between atoms: C_16  and  C_17
REMARK    8  A    between atoms: C_22  and  C_23
REMARK                            x       y       z     vdW  Elec       q    Type
REMARK                         _______ _______ _______ _____ _____    ______ ____
ROOT
ATOM      1  C   UNL     1      48.563   6.635  13.397  0.00  0.00    +0.000 C 
ENDROOT
BRANCH   1   2
ATOM      2  N   UNL     1      48.574   7.246  14.717  0.00  0.00    +0.000 N 
ATOM      3  C   UNL     1      48.508   8.599  14.960  0.00  0.00    +0.000 A 
ATOM      4  C   UNL     1      48.555   8.788  16.323  0.00  0.00    +0.000 A 
ATOM      5  C   UNL     1      48.676   7.511  16.929  0.00  0.00    +0.000 A 
ATOM      6  C   UNL     1      48.744   7.041  18.248  0.00  0.00    +0.000 A 
ATOM      7  C   UNL     1      48.872   5.657  18.450  0.00  0.00    +0.000 A 
ATOM      8  C   UNL     1      48.927   4.804  17.336  0.00  0.00    +0.000 A 
ATOM      9  C   UNL     1      49.030   3.307  17.445  0.00  0.00    +0.000 C 
ATOM     10  N   UNL     1      48.854   5.238  16.045  0.00  0.00    +0.000 NA
ATOM     11  C   UNL     1      48.719   6.571  15.906  0.00  0.00    +0.000 A 
BRANCH   7  12
ATOM     12  C   UNL     1      48.866   5.140  19.841  0.00  0.00    +0.000 C 
ATOM     13  O   UNL     1      49.877   4.849  20.453  0.00  0.00    +0.000 OA
BRANCH  12  14
ATOM     14  O   UNL     1      47.630   5.012  20.375  0.00  0.00    +0.000 OA
ATOM     15  H   UNL     1      46.970   5.675  20.104  0.00  0.00    +0.000 HD
ENDBRANCH  12  14
ENDBRANCH   7  12
ENDBRANCH   1   2
BRANCH   1  18
ATOM     16  C   UNL     1      45.131   7.037  11.739  0.00  0.00    +0.000 A 
ATOM     17  C   UNL     1      46.458   7.264  12.144  0.00  0.00    +0.000 A 
ATOM     18  C   UNL     1      47.162   6.326  12.920  0.00  0.00    +0.000 A 
ATOM     19  C   UNL     1      46.534   5.124  13.257  0.00  0.00    +0.000 A 
ATOM     20  C   UNL     1      45.221   4.879  12.846  0.00  0.00    +0.000 A 
ATOM     21  C   UNL     1      44.504   5.826  12.093  0.00  0.00    +0.000 A 
BRANCH  21  22
ATOM     22  C   UNL     1      43.100   5.452  11.720  0.00  0.00    +0.000 C 
ATOM     23  N   UNL     1      42.136   6.414  11.768  0.00  0.00    +0.000 N 
ATOM     24  O   UNL     1      42.812   4.310  11.374  0.00  0.00    +0.000 OA
ATOM     25  H   UNL     1      42.342   7.350  12.097  0.00  0.00    +0.000 HD
ATOM     26  H   UNL     1      41.187   6.165  11.531  0.00  0.00    +0.000 HD
ENDBRANCH  21  22
BRANCH  16  28
ATOM     27  C   UNL     1      44.574   9.340  11.423  0.00  0.00    +0.000 C 
ATOM     28  O   UNL     1      44.391   7.975  11.066  0.00  0.00    +0.000 OA
ENDBRANCH  16  28
ENDBRANCH   1  18
TORSDOF 6
ENDMDL
MODEL 6
REMARK VINA RESULT:    -6.661      3.607      8.259
REMARK INTER + INTRA:          -9.045
REMARK INTER:                  -8.172
REMARK INTRA:                  -0.872
REMARK UNBOUND:                -0.242
REMARK  Name = 
REMARK  8 active torsions:
REMARK  status: ('A' for Active; 'I' for Inactive)
REMARK    1  A    between atoms: C_1  and  O_2
REMARK    2  A    between atoms: O_2  and  C_3
REMARK    3  A    between atoms: C_5  and  C_6
REMARK    4  A    between atoms: C_6  and  N_7
REMARK    5  A    between atoms: C_12  and  C_13
REMARK    6  A    between atoms: C_13  and  O_15
REMARK    7  A    between atoms: C_16  and  C_17
REMARK    8  A    between atoms: C_22  and  C_23
REMARK                            x       y       z     vdW  Elec       q    Type
REMARK                         _______ _______ _______ _____ _____    ______ ____
ROOT
ATOM      1  C   UNL     1      48.600   6.992  13.513  0.00  0.00    +0.000 C 
ENDROOT
BRANCH   1   2
ATOM      2  N   UNL     1      48.567   7.498  14.877  0.00  0.00    +0.000 N 
ATOM      3  C   UNL     1      48.376   8.816  15.223  0.00  0.00    +0.000 A 
ATOM      4  C   UNL     1      48.418   8.905  16.597  0.00  0.00    +0.000 A 
ATOM      5  C   UNL     1      48.664   7.602  17.103  0.00  0.00    +0.000 A 
ATOM      6  C   UNL     1      48.789   7.040  18.381  0.00  0.00    +0.000 A 
ATOM      7  C   UNL     1      49.048   5.664  18.476  0.00  0.00    +0.000 A 
ATOM      8  C   UNL     1      49.173   4.908  17.299  0.00  0.00    +0.000 A 
ATOM      9  C   UNL     1      49.418   3.423  17.292  0.00  0.00    +0.000 C 
ATOM     10  N   UNL     1      49.047   5.431  16.046  0.00  0.00    +0.000 NA
ATOM     11  C   UNL     1      48.786   6.751  16.010  0.00  0.00    +0.000 A 
BRANCH   7  12
ATOM     12  C   UNL     1      49.105   5.044  19.822  0.00  0.00    +0.000 C 
ATOM     13  O   UNL     1      50.141   4.854  20.432  0.00  0.00    +0.000 OA
BRANCH  12  14
ATOM     14  O   UNL     1      47.896   4.697  20.320  0.00  0.00    +0.000 OA
ATOM     15  H   UNL     1      47.601   3.784  20.147  0.00  0.00    +0.000 HD
ENDBRANCH  12  14
ENDBRANCH   7  12
ENDBRANCH   1   2
BRANCH   1  18
ATOM     16  C   UNL     1      45.327   5.136  12.785  0.00  0.00    +0.000 A 
ATOM     17  C   UNL     1      46.583   5.479  13.316  0.00  0.00    +0.000 A 
ATOM     18  C   UNL     1      47.219   6.688  12.981  0.00  0.00    +0.000 A 
ATOM     19  C   UNL     1      46.561   7.582  12.131  0.00  0.00    +0.000 A 
ATOM     20  C   UNL     1      45.304   7.260  11.611  0.00  0.00    +0.000 A 
ATOM     21  C   UNL     1      44.678   6.040  11.923  0.00  0.00    +0.000 A 
BRANCH  21  22
ATOM     22  C   UNL     1      43.335   5.805  11.296  0.00  0.00    +0.000 C 
ATOM     23  N   UNL     1      42.255   6.465  11.803  0.00  0.00    +0.000 N 
ATOM     24  O   UNL     1      43.197   5.042  10.344  0.00  0.00    +0.000 OA
ATOM     25  H   UNL     1      42.339   7.060  12.618  0.00  0.00    +0.000 HD
ATOM     26  H   UNL     1      41.347   6.301  11.394  0.00  0.00    +0.000 HD
ENDBRANCH  21  22
BRANCH  16  28
ATOM     27  C   UNL     1      45.164   2.815  12.240  0.00  0.00    +0.000 C 
ATOM     28  O   UNL     1      44.731   3.923  13.019  0.00  0.00    +0.000 OA
ENDBRANCH  16  28
ENDBRANCH   1  18
TORSDOF 6
ENDMDL
MODEL 7
REMARK VINA RESULT:    -6.637      4.200      6.246
REMARK INTER + INTRA:          -9.013
REMARK INTER:                  -8.348
REMARK INTRA:                  -0.665
REMARK UNBOUND:                -0.242
REMARK  Name = 
REMARK  8 active torsions:
REMARK  status: ('A' for Active; 'I' for Inactive)
REMARK    1  A    between atoms: C_1  and  O_2
REMARK    2  A    between atoms: O_2  and  C_3
REMARK    3  A    between atoms: C_5  and  C_6
REMARK    4  A    between atoms: C_6  and  N_7
REMARK    5  A    between atoms: C_12  and  C_13
REMARK    6  A    between atoms: C_13  and  O_15
REMARK    7  A    between atoms: C_16  and  C_17
REMARK    8  A    between atoms: C_22  and  C_23
REMARK                            x       y       z     vdW  Elec       q    Type
REMARK                         _______ _______ _______ _____ _____    ______ ____
ROOT
ATOM      1  C   UNL     1      47.154   4.043  16.067  0.00  0.00    +0.000 C 
ENDROOT
BRANCH   1   2
ATOM      2  N   UNL     1      47.214   4.891  14.886  0.00  0.00    +0.000 N 
ATOM      3  C   UNL     1      48.071   5.955  14.723  0.00  0.00    +0.000 A 
ATOM      4  C   UNL     1      47.824   6.514  13.489  0.00  0.00    +0.000 A 
ATOM      5  C   UNL     1      46.766   5.782  12.891  0.00  0.00    +0.000 A 
ATOM      6  C   UNL     1      46.091   5.836  11.664  0.00  0.00    +0.000 A 
ATOM      7  C   UNL     1      45.059   4.912  11.436  0.00  0.00    +0.000 A 
ATOM      8  C   UNL     1      44.744   3.976  12.435  0.00  0.00    +0.000 A 
ATOM      9  C   UNL     1      43.681   2.923  12.277  0.00  0.00    +0.000 C 
ATOM     10  N   UNL     1      45.394   3.898  13.632  0.00  0.00    +0.000 NA
ATOM     11  C   UNL     1      46.383   4.798  13.795  0.00  0.00    +0.000 A 
BRANCH   7  12
ATOM     12  C   UNL     1      44.388   4.909  10.113  0.00  0.00    +0.000 C 
ATOM     13  O   UNL     1      44.863   4.387   9.120  0.00  0.00    +0.000 OA
BRANCH  12  14
ATOM     14  O   UNL     1      43.195   5.545  10.099  0.00  0.00    +0.000 OA
ATOM     15  H   UNL     1      42.595   5.325   9.362  0.00  0.00    +0.000 HD
ENDBRANCH  12  14
ENDBRANCH   7  12
ENDBRANCH   1   2
BRANCH   1  18
ATOM     16  C   UNL     1      50.426   3.980  18.062  0.00  0.00    +0.000 A 
ATOM     17  C   UNL     1      49.444   3.719  17.090  0.00  0.00    +0.000 A 
ATOM     18  C   UNL     1      48.214   4.400  17.083  0.00  0.00    +0.000 A 
ATOM     19  C   UNL     1      47.987   5.390  18.045  0.00  0.00    +0.000 A 
ATOM     20  C   UNL     1      48.963   5.670  19.006  0.00  0.00    +0.000 A 
ATOM     21  C   UNL     1      50.183   4.972  19.031  0.00  0.00    +0.000 A 
BRANCH  21  22
ATOM     22  C   UNL     1      51.145   5.358  20.117  0.00  0.00    +0.000 C 
ATOM     23  N   UNL     1      51.681   4.372  20.891  0.00  0.00    +0.000 N 
ATOM     24  O   UNL     1      51.453   6.529  20.312  0.00  0.00    +0.000 OA
ATOM     25  H   UNL     1      51.403   3.405  20.778  0.00  0.00    +0.000 HD
ATOM     26  H   UNL     1      52.319   4.627  21.631  0.00  0.00    +0.000 HD
ENDBRANCH  21  22
BRANCH  16  28
ATOM     27  C   UNL     1      51.632   1.991  17.513  0.00  0.00    +0.000 C 
ATOM     28  O   UNL     1      51.591   3.263  18.149  0.00  0.00    +0.000 OA
ENDBRANCH  16  28
ENDBRANCH   1  18
TORSDOF 6
ENDMDL
MODEL 8
REMARK VINA RESULT:    -6.215      4.173      6.291
REMARK INTER + INTRA:          -8.455
REMARK INTER:                  -8.021
REMARK INTRA:                  -0.434
REMARK UNBOUND:                -0.242
REMARK  Name = 
REMARK  8 active torsions:
REMARK  status: ('A' for Active; 'I' for Inactive)
REMARK    1  A    between atoms: C_1  and  O_2
REMARK    2  A    between atoms: O_2  and  C_3
REMARK    3  A    between atoms: C_5  and  C_6
REMARK    4  A    between atoms: C_6  and  N_7
REMARK    5  A    between atoms: C_12  and  C_13
REMARK    6  A    between atoms: C_13  and  O_15
REMARK    7  A    between atoms: C_16  and  C_17
REMARK    8  A    between atoms: C_22  and  C_23
REMARK                            x       y       z     vdW  Elec       q    Type
REMARK                         _______ _______ _______ _____ _____    ______ ____
ROOT
ATOM      1  C   UNL     1      47.047   4.121  16.122  0.00  0.00    +0.000 C 
ENDROOT
BRANCH   1   2
ATOM      2  N   UNL     1      47.183   4.929  14.919  0.00  0.00    +0.000 N 
ATOM      3  C   UNL     1      48.062   5.977  14.769  0.00  0.00    +0.000 A 
ATOM      4  C   UNL     1      47.891   6.497  13.505  0.00  0.00    +0.000 A 
ATOM      5  C   UNL     1      46.858   5.756  12.874  0.00  0.00    +0.000 A 
ATOM      6  C   UNL     1      46.252   5.777  11.610  0.00  0.00    +0.000 A 
ATOM      7  C   UNL     1      45.223   4.857  11.355  0.00  0.00    +0.000 A 
ATOM      8  C   UNL     1      44.842   3.959  12.366  0.00  0.00    +0.000 A 
ATOM      9  C   UNL     1      43.775   2.913  12.183  0.00  0.00    +0.000 C 
ATOM     10  N   UNL     1      45.423   3.914  13.599  0.00  0.00    +0.000 NA
ATOM     11  C   UNL     1      46.413   4.808  13.787  0.00  0.00    +0.000 A 
BRANCH   7  12
ATOM     12  C   UNL     1      44.627   4.817   9.997  0.00  0.00    +0.000 C 
ATOM     13  O   UNL     1      45.201   4.360   9.025  0.00  0.00    +0.000 OA
BRANCH  12  14
ATOM     14  O   UNL     1      43.382   5.341   9.926  0.00  0.00    +0.000 OA
ATOM     15  H   UNL     1      42.659   4.717   9.732  0.00  0.00    +0.000 HD
ENDBRANCH  12  14
ENDBRANCH   7  12
ENDBRANCH   1   2
BRANCH   1  18
ATOM     16  C   UNL     1      48.985   5.796  18.973  0.00  0.00    +0.000 A 
ATOM     17  C   UNL     1      47.969   5.456  18.062  0.00  0.00    +0.000 A 
ATOM     18  C   UNL     1      48.132   4.413  17.133  0.00  0.00    +0.000 A 
ATOM     19  C   UNL     1      49.319   3.674  17.151  0.00  0.00    +0.000 A 
ATOM     20  C   UNL     1      50.329   3.992  18.063  0.00  0.00    +0.000 A 
ATOM     21  C   UNL     1      50.180   5.051  18.975  0.00  0.00    +0.000 A 
BRANCH  21  22
ATOM     22  C   UNL     1      51.338   5.300  19.897  0.00  0.00    +0.000 C 
ATOM     23  N   UNL     1      52.359   6.091  19.461  0.00  0.00    +0.000 N 
ATOM     24  O   UNL     1      51.376   4.812  21.023  0.00  0.00    +0.000 OA
ATOM     25  H   UNL     1      52.370   6.463  18.519  0.00  0.00    +0.000 HD
ATOM     26  H   UNL     1      53.146   6.251  20.072  0.00  0.00    +0.000 HD
ENDBRANCH  21  22
BRANCH  16  28
ATOM     27  C   UNL     1      47.786   6.904  20.718  0.00  0.00    +0.000 C 
ATOM     28  O   UNL     1      48.890   6.869  19.822  0.00  0.00    +0.000 OA
ENDBRANCH  16  28
ENDBRANCH   1  18
TORSDOF 6
ENDMDL
MODEL 9
REMARK VINA RESULT:    -6.099      4.024      8.449
REMARK INTER + INTRA:          -8.302
REMARK INTER:                  -8.098
REMARK INTRA:                  -0.204
REMARK UNBOUND:                -0.242
REMARK  Name = 
REMARK  8 active torsions:
REMARK  status: ('A' for Active; 'I' for Inactive)
REMARK    1  A    between atoms: C_1  and  O_2
REMARK    2  A    between atoms: O_2  and  C_3
REMARK    3  A    between atoms: C_5  and  C_6
REMARK    4  A    between atoms: C_6  and  N_7
REMARK    5  A    between atoms: C_12  and  C_13
REMARK    6  A    between atoms: C_13  and  O_15
REMARK    7  A    between atoms: C_16  and  C_17
REMARK    8  A    between atoms: C_22  and  C_23
REMARK                            x       y       z     vdW  Elec       q    Type
REMARK                         _______ _______ _______ _____ _____    ______ ____
ROOT
ATOM      1  C   UNL     1      47.831   5.964  14.627  0.00  0.00    +0.000 C 
ENDROOT
BRANCH   1   2
ATOM      2  N   UNL     1      47.938   5.084  15.781  0.00  0.00    +0.000 N 
ATOM      3  C   UNL     1      46.919   4.299  16.269  0.00  0.00    +0.000 A 
ATOM      4  C   UNL     1      47.395   3.619  17.368  0.00  0.00    +0.000 A 
ATOM      5  C   UNL     1      48.741   4.022  17.570  0.00  0.00    +0.000 A 
ATOM      6  C   UNL     1      49.752   3.683  18.479  0.00  0.00    +0.000 A 
ATOM      7  C   UNL     1      50.995   4.325  18.355  0.00  0.00    +0.000 A 
ATOM      8  C   UNL     1      51.177   5.273  17.335  0.00  0.00    +0.000 A 
ATOM      9  C   UNL     1      52.477   5.991  17.096  0.00  0.00    +0.000 C 
ATOM     10  N   UNL     1      50.211   5.611  16.434  0.00  0.00    +0.000 NA
ATOM     11  C   UNL     1      49.043   4.958  16.588  0.00  0.00    +0.000 A 
BRANCH   7  12
ATOM     12  C   UNL     1      52.096   3.920  19.262  0.00  0.00    +0.000 C 
ATOM     13  O   UNL     1      52.425   4.557  20.246  0.00  0.00    +0.000 OA
BRANCH  12  14
ATOM     14  O   UNL     1      52.716   2.774  18.898  0.00  0.00    +0.000 OA
ATOM     15  H   UNL     1      53.690   2.788  18.900  0.00  0.00    +0.000 HD
ENDBRANCH  12  14
ENDBRANCH   7  12
ENDBRANCH   1   2
BRANCH   1  18
ATOM     16  C   UNL     1      45.070   5.960  11.970  0.00  0.00    +0.000 A 
ATOM     17  C   UNL     1      46.064   6.386  12.868  0.00  0.00    +0.000 A 
ATOM     18  C   UNL     1      46.821   5.469  13.619  0.00  0.00    +0.000 A 
ATOM     19  C   UNL     1      46.601   4.101  13.431  0.00  0.00    +0.000 A 
ATOM     20  C   UNL     1      45.627   3.665  12.528  0.00  0.00    +0.000 A 
ATOM     21  C   UNL     1      44.850   4.580  11.795  0.00  0.00    +0.000 A 
BRANCH  21  22
ATOM     22  C   UNL     1      43.831   3.990  10.865  0.00  0.00    +0.000 C 
ATOM     23  N   UNL     1      43.756   4.472   9.592  0.00  0.00    +0.000 N 
ATOM     24  O   UNL     1      43.078   3.091  11.227  0.00  0.00    +0.000 OA
ATOM     25  H   UNL     1      44.333   5.246   9.289  0.00  0.00    +0.000 HD
ATOM     26  H   UNL     1      43.063   4.087   8.967  0.00  0.00    +0.000 HD
ENDBRANCH  21  22
BRANCH  16  28
ATOM     27  C   UNL     1      44.562   8.220  11.383  0.00  0.00    +0.000 C 
ATOM     28  O   UNL     1      44.253   6.834  11.300  0.00  0.00    +0.000 OA
ENDBRANCH  16  28
ENDBRANCH   1  18
TORSDOF 6
ENDMDL
