MODEL 1
REMARK VINA RESULT:    -7.941      0.000      0.000
REMARK INTER + INTRA:         -12.550
REMARK INTER:                 -11.191
REMARK INTRA:                  -1.359
REMARK UNBOUND:                -1.359
REMARK  Name = 
REMARK  8 active torsions:
REMARK  status: ('A' for Active; 'I' for Inactive)
REMARK    1  A    between atoms: C_1  and  O_2
REMARK    2  A    between atoms: O_2  and  C_3
REMARK    3  A    between atoms: C_5  and  O_6
REMARK    4  A    between atoms: O_6  and  C_7
REMARK    5  A    between atoms: C_7  and  C_8
REMARK    6  A    between atoms: C_11  and  C_12
REMARK    7  A    between atoms: C_12  and  N_13
REMARK    8  A    between atoms: C_14  and  C_16
REMARK                            x       y       z     vdW  Elec       q    Type
REMARK                         _______ _______ _______ _____ _____    ______ ____
ROOT
ATOM      1  C   UNL     1      44.614   4.456  12.533  0.00  0.00    +0.000 A 
ATOM      2  C   UNL     1      45.889   4.087  12.985  0.00  0.00    +0.000 A 
ATOM      3  C   UNL     1      46.835   5.060  13.334  0.00  0.00    +0.000 A 
ATOM      4  C   UNL     1      46.521   6.424  13.258  0.00  0.00    +0.000 A 
ATOM      5  C   UNL     1      45.251   6.781  12.804  0.00  0.00    +0.000 A 
ATOM      6  F   UNL     1      44.919   8.077  12.701  0.00  0.00    +0.000 F 
ATOM      7  C   UNL     1      44.301   5.820  12.455  0.00  0.00    +0.000 A 
ENDROOT
BRANCH   1   8
ATOM      8  C   UNL     1      43.601   3.407  12.140  0.00  0.00    +0.000 C 
BRANCH   8   9
ATOM      9  O   UNL     1      43.218   3.605  10.780  0.00  0.00    +0.000 OA
BRANCH   9  12
ATOM     10  C   UNL     1      45.636   1.947   8.534  0.00  0.00    +0.000 A 
ATOM     11  C   UNL     1      44.687   2.055   9.544  0.00  0.00    +0.000 A 
ATOM     12  C   UNL     1      44.157   3.313   9.823  0.00  0.00    +0.000 A 
ATOM     13  C   UNL     1      44.600   4.408   9.085  0.00  0.00    +0.000 A 
ATOM     14  C   UNL     1      45.547   4.201   8.095  0.00  0.00    +0.000 A 
ATOM     15  N   UNL     1      46.073   2.994   7.801  0.00  0.00    +0.000 NA
BRANCH  10  17
ATOM     16  C   UNL     1      47.134   0.671   7.277  0.00  0.00    +0.000 C 
ATOM     17  O   UNL     1      46.149   0.688   8.306  0.00  0.00    +0.000 OA
ENDBRANCH  10  17
ENDBRANCH   9  12
ENDBRANCH   8   9
ENDBRANCH   1   8
BRANCH   4  18
ATOM     18  C   UNL     1      47.525   7.468  13.664  0.00  0.00    +0.000 C 
BRANCH  18  19
ATOM     19  N   UNL     1      47.965   7.317  15.030  0.00  0.00    +0.000 N 
ATOM     20  C   UNL     1      49.269   7.063  15.369  0.00  0.00    +0.000 C 
ATOM     21  O   UNL     1      50.167   6.992  14.535  0.00  0.00    +0.000 OA
ATOM     22  H   UNL     1      47.238   7.219  15.729  0.00  0.00    +0.000 HD
BRANCH  20  23
ATOM     23  C   UNL     1      49.552   6.936  16.806  0.00  0.00    +0.000 A 
ATOM     24  C   UNL     1      50.393   7.849  17.426  0.00  0.00    +0.000 A 
ATOM     25  S   UNL     1      50.575   7.583  19.101  0.00  0.00    +0.000 S 
ATOM     26  C   UNL     1      49.575   6.207  19.047  0.00  0.00    +0.000 A 
ATOM     27  N   UNL     1      49.326   5.478  20.169  0.00  0.00    +0.000 NA
ATOM     28  C   UNL     1      48.583   4.439  19.976  0.00  0.00    +0.000 A 
ATOM     29  N   UNL     1      48.065   4.064  18.763  0.00  0.00    +0.000 N 
ATOM     30  C   UNL     1      48.256   4.792  17.612  0.00  0.00    +0.000 A 
ATOM     31  O   UNL     1      47.720   4.468  16.557  0.00  0.00    +0.000 OA
ATOM     32  C   UNL     1      49.098   5.962  17.772  0.00  0.00    +0.000 A 
ATOM     33  H   UNL     1      47.480   3.247  18.683  0.00  0.00    +0.000 HD
ENDBRANCH  20  23
ENDBRANCH  18  19
ENDBRANCH   4  18
TORSDOF 7
ENDMDL
MODEL 2
REMARK VINA RESULT:    -7.489      2.264      2.819
REMARK INTER + INTRA:         -11.912
REMARK INTER:                 -10.598
REMARK INTRA:                  -1.314
REMARK UNBOUND:                -1.359
REMARK  Name = 
REMARK  8 active torsions:
REMARK  status: ('A' for Active; 'I' for Inactive)
REMARK    1  A    between atoms: C_1  and  O_2
REMARK    2  A    between atoms: O_2  and  C_3
REMARK    3  A    between atoms: C_5  and  O_6
REMARK    4  A    between atoms: O_6  and  C_7
REMARK    5  A    between atoms: C_7  and  C_8
REMARK    6  A    between atoms: C_11  and  C_12
REMARK    7  A    between atoms: C_12  and  N_13
REMARK    8  A    between atoms: C_14  and  C_16
REMARK                            x       y       z     vdW  Elec       q    Type
REMARK                         _______ _______ _______ _____ _____    ______ ____
ROOT
ATOM      1  C   UNL     1      44.818   5.309  12.114  0.00  0.00    +0.000 A 
ATOM      2  C   UNL     1      45.363   6.598  12.017  0.00  0.00    +0.000 A 
ATOM      3  C   UNL     1      46.504   6.950  12.749  0.00  0.00    +0.000 A 
ATOM      4  C   UNL     1      47.138   6.017  13.582  0.00  0.00    +0.000 A 
ATOM      5  C   UNL     1      46.586   4.738  13.675  0.00  0.00    +0.000 A 
ATOM      6  F   UNL     1      47.154   3.823  14.474  0.00  0.00    +0.000 F 
ATOM      7  C   UNL     1      45.451   4.377  12.949  0.00  0.00    +0.000 A 
ENDROOT
BRANCH   1   8
ATOM      8  C   UNL     1      43.578   4.935  11.338  0.00  0.00    +0.000 C 
BRANCH   8   9
ATOM      9  O   UNL     1      43.826   5.094   9.942  0.00  0.00    +0.000 OA
BRANCH   9  12
ATOM     10  C   UNL     1      46.221   3.194   7.870  0.00  0.00    +0.000 A 
ATOM     11  C   UNL     1      45.575   4.310   8.388  0.00  0.00    +0.000 A 
ATOM     12  C   UNL     1      44.567   4.115   9.330  0.00  0.00    +0.000 A 
ATOM     13  C   UNL     1      44.245   2.814   9.710  0.00  0.00    +0.000 A 
ATOM     14  C   UNL     1      44.948   1.764   9.142  0.00  0.00    +0.000 A 
ATOM     15  N   UNL     1      45.931   1.925   8.232  0.00  0.00    +0.000 NA
BRANCH  10  17
ATOM     16  C   UNL     1      48.017   2.293   6.680  0.00  0.00    +0.000 C 
ATOM     17  O   UNL     1      47.197   3.432   6.926  0.00  0.00    +0.000 OA
ENDBRANCH  10  17
ENDBRANCH   9  12
ENDBRANCH   8   9
ENDBRANCH   1   8
BRANCH   4  18
ATOM     18  C   UNL     1      48.381   6.385  14.344  0.00  0.00    +0.000 C 
BRANCH  18  19
ATOM     19  N   UNL     1      48.155   6.483  15.766  0.00  0.00    +0.000 N 
ATOM     20  C   UNL     1      49.127   6.220  16.696  0.00  0.00    +0.000 C 
ATOM     21  O   UNL     1      50.278   5.927  16.383  0.00  0.00    +0.000 OA
ATOM     22  H   UNL     1      47.190   6.573  16.063  0.00  0.00    +0.000 HD
BRANCH  20  23
ATOM     23  C   UNL     1      48.734   6.365  18.104  0.00  0.00    +0.000 A 
ATOM     24  C   UNL     1      48.849   5.285  18.967  0.00  0.00    +0.000 A 
ATOM     25  S   UNL     1      48.394   5.639  20.572  0.00  0.00    +0.000 S 
ATOM     26  C   UNL     1      47.978   7.237  20.160  0.00  0.00    +0.000 A 
ATOM     27  N   UNL     1      47.487   8.096  21.093  0.00  0.00    +0.000 NA
ATOM     28  C   UNL     1      47.177   9.263  20.635  0.00  0.00    +0.000 A 
ATOM     29  N   UNL     1      47.317   9.650  19.326  0.00  0.00    +0.000 N 
ATOM     30  C   UNL     1      47.848   8.830  18.358  0.00  0.00    +0.000 A 
ATOM     31  O   UNL     1      48.025   9.230  17.212  0.00  0.00    +0.000 OA
ATOM     32  C   UNL     1      48.197   7.500  18.819  0.00  0.00    +0.000 A 
ATOM     33  H   UNL     1      47.068  10.583  19.036  0.00  0.00    +0.000 HD
ENDBRANCH  20  23
ENDBRANCH  18  19
ENDBRANCH   4  18
TORSDOF 7
ENDMDL
MODEL 3
REMARK VINA RESULT:    -7.086      2.827      8.541
REMARK INTER + INTRA:         -11.345
REMARK INTER:                  -9.756
REMARK INTRA:                  -1.588
REMARK UNBOUND:                -1.359
REMARK  Name = 
REMARK  8 active torsions:
REMARK  status: ('A' for Active; 'I' for Inactive)
REMARK    1  A    between atoms: C_1  and  O_2
REMARK    2  A    between atoms: O_2  and  C_3
REMARK    3  A    between atoms: C_5  and  O_6
REMARK    4  A    between atoms: O_6  and  C_7
REMARK    5  A    between atoms: C_7  and  C_8
REMARK    6  A    between atoms: C_11  and  C_12
REMARK    7  A    between atoms: C_12  and  N_13
REMARK    8  A    between atoms: C_14  and  C_16
REMARK                            x       y       z     vdW  Elec       q    Type
REMARK                         _______ _______ _______ _____ _____    ______ ____
ROOT
ATOM      1  C   UNL     1      49.594   8.164  15.535  0.00  0.00    +0.000 A 
ATOM      2  C   UNL     1      50.278   7.582  14.458  0.00  0.00    +0.000 A 
ATOM      3  C   UNL     1      49.659   7.442  13.209  0.00  0.00    +0.000 A 
ATOM      4  C   UNL     1      48.350   7.898  13.002  0.00  0.00    +0.000 A 
ATOM      5  C   UNL     1      47.676   8.473  14.080  0.00  0.00    +0.000 A 
ATOM      6  F   UNL     1      46.416   8.906  13.927  0.00  0.00    +0.000 F 
ATOM      7  C   UNL     1      48.283   8.618  15.328  0.00  0.00    +0.000 A 
ENDROOT
BRANCH   1   8
ATOM      8  C   UNL     1      50.255   8.299  16.887  0.00  0.00    +0.000 C 
BRANCH   8   9
ATOM      9  O   UNL     1      50.327   7.016  17.508  0.00  0.00    +0.000 OA
BRANCH   9  12
ATOM     10  C   UNL     1      47.385   4.793  17.704  0.00  0.00    +0.000 A 
ATOM     11  C   UNL     1      48.614   5.260  17.252  0.00  0.00    +0.000 A 
ATOM     12  C   UNL     1      49.137   6.415  17.829  0.00  0.00    +0.000 A 
ATOM     13  C   UNL     1      48.408   7.056  18.829  0.00  0.00    +0.000 A 
ATOM     14  C   UNL     1      47.195   6.513  19.216  0.00  0.00    +0.000 A 
ATOM     15  N   UNL     1      46.668   5.394  18.678  0.00  0.00    +0.000 NA
BRANCH  10  17
ATOM     16  C   UNL     1      47.924   2.843  16.538  0.00  0.00    +0.000 C 
ATOM     17  O   UNL     1      46.896   3.659  17.091  0.00  0.00    +0.000 OA
ENDBRANCH  10  17
ENDBRANCH   9  12
ENDBRANCH   8   9
ENDBRANCH   1   8
BRANCH   4  18
ATOM     18  C   UNL     1      47.697   7.777  11.652  0.00  0.00    +0.000 C 
BRANCH  18  19
ATOM     19  N   UNL     1      46.945   6.554  11.504  0.00  0.00    +0.000 N 
ATOM     20  C   UNL     1      45.577   6.507  11.569  0.00  0.00    +0.000 C 
ATOM     21  O   UNL     1      44.888   7.513  11.711  0.00  0.00    +0.000 OA
ATOM     22  H   UNL     1      47.477   5.692  11.537  0.00  0.00    +0.000 HD
BRANCH  20  23
ATOM     23  C   UNL     1      44.965   5.182  11.399  0.00  0.00    +0.000 A 
ATOM     24  C   UNL     1      44.268   4.604  12.451  0.00  0.00    +0.000 A 
ATOM     25  S   UNL     1      43.584   3.090  12.069  0.00  0.00    +0.000 S 
ATOM     26  C   UNL     1      44.238   3.128  10.498  0.00  0.00    +0.000 A 
ATOM     27  N   UNL     1      44.040   2.098   9.632  0.00  0.00    +0.000 NA
ATOM     28  C   UNL     1      44.625   2.242   8.490  0.00  0.00    +0.000 A 
ATOM     29  N   UNL     1      45.387   3.325   8.134  0.00  0.00    +0.000 N 
ATOM     30  C   UNL     1      45.580   4.407   8.960  0.00  0.00    +0.000 A 
ATOM     31  O   UNL     1      46.209   5.392   8.586  0.00  0.00    +0.000 OA
ATOM     32  C   UNL     1      44.956   4.287  10.265  0.00  0.00    +0.000 A 
ATOM     33  H   UNL     1      45.806   3.382   7.218  0.00  0.00    +0.000 HD
ENDBRANCH  20  23
ENDBRANCH  18  19
ENDBRANCH   4  18
TORSDOF 7
ENDMDL
MODEL 4
REMARK VINA RESULT:    -6.900      5.057      9.702
REMARK INTER + INTRA:         -11.083
REMARK INTER:                  -9.987
REMARK INTRA:                  -1.095
REMARK UNBOUND:                -1.359
REMARK  Name = 
REMARK  8 active torsions:
REMARK  status: ('A' for Active; 'I' for Inactive)
REMARK    1  A    between atoms: C_1  and  O_2
REMARK    2  A    between atoms: O_2  and  C_3
REMARK    3  A    between atoms: C_5  and  O_6
REMARK    4  A    between atoms: O_6  and  C_7
REMARK    5  A    between atoms: C_7  and  C_8
REMARK    6  A    between atoms: C_11  and  C_12
REMARK    7  A    between atoms: C_12  and  N_13
REMARK    8  A    between atoms: C_14  and  C_16
REMARK                            x       y       z     vdW  Elec       q    Type
REMARK                         _______ _______ _______ _____ _____    ______ ____
ROOT
ATOM      1  C   UNL     1      51.277   3.752  18.159  0.00  0.00    +0.000 A 
ATOM      2  C   UNL     1      50.380   4.771  18.512  0.00  0.00    +0.000 A 
ATOM      3  C   UNL     1      49.037   4.709  18.121  0.00  0.00    +0.000 A 
ATOM      4  C   UNL     1      48.554   3.618  17.385  0.00  0.00    +0.000 A 
ATOM      5  C   UNL     1      49.455   2.611  17.035  0.00  0.00    +0.000 A 
ATOM      6  F   UNL     1      49.035   1.560  16.315  0.00  0.00    +0.000 F 
ATOM      7  C   UNL     1      50.795   2.663  17.420  0.00  0.00    +0.000 A 
ENDROOT
BRANCH   1   8
ATOM      8  C   UNL     1      52.730   3.828  18.565  0.00  0.00    +0.000 C 
BRANCH   8   9
ATOM      9  O   UNL     1      53.490   2.911  17.780  0.00  0.00    +0.000 OA
BRANCH   9  12
ATOM     10  C   UNL     1      54.459  -0.491  18.840  0.00  0.00    +0.000 A 
ATOM     11  C   UNL     1      53.861   0.487  18.055  0.00  0.00    +0.000 A 
ATOM     12  C   UNL     1      54.009   1.821  18.431  0.00  0.00    +0.000 A 
ATOM     13  C   UNL     1      54.745   2.118  19.576  0.00  0.00    +0.000 A 
ATOM     14  C   UNL     1      55.308   1.075  20.292  0.00  0.00    +0.000 A 
ATOM     15  N   UNL     1      55.184  -0.224  19.948  0.00  0.00    +0.000 NA
BRANCH  10  17
ATOM     16  C   UNL     1      53.713  -2.612  19.472  0.00  0.00    +0.000 C 
ATOM     17  O   UNL     1      54.269  -1.798  18.443  0.00  0.00    +0.000 OA
ENDBRANCH  10  17
ENDBRANCH   9  12
ENDBRANCH   8   9
ENDBRANCH   1   8
BRANCH   4  18
ATOM     18  C   UNL     1      47.104   3.536  16.992  0.00  0.00    +0.000 C 
BRANCH  18  19
ATOM     19  N   UNL     1      46.757   4.464  15.943  0.00  0.00    +0.000 N 
ATOM     20  C   UNL     1      46.898   4.172  14.611  0.00  0.00    +0.000 C 
ATOM     21  O   UNL     1      47.288   3.078  14.213  0.00  0.00    +0.000 OA
ATOM     22  H   UNL     1      46.579   5.421  16.229  0.00  0.00    +0.000 HD
BRANCH  20  23
ATOM     23  C   UNL     1      46.500   5.228  13.670  0.00  0.00    +0.000 A 
ATOM     24  C   UNL     1      47.383   6.255  13.372  0.00  0.00    +0.000 A 
ATOM     25  S   UNL     1      46.780   7.367  12.229  0.00  0.00    +0.000 S 
ATOM     26  C   UNL     1      45.294   6.543  12.129  0.00  0.00    +0.000 A 
ATOM     27  N   UNL     1      44.296   6.994  11.322  0.00  0.00    +0.000 NA
ATOM     28  C   UNL     1      43.212   6.295  11.374  0.00  0.00    +0.000 A 
ATOM     29  N   UNL     1      43.036   5.183  12.158  0.00  0.00    +0.000 N 
ATOM     30  C   UNL     1      44.030   4.667  12.956  0.00  0.00    +0.000 A 
ATOM     31  O   UNL     1      43.864   3.631  13.591  0.00  0.00    +0.000 OA
ATOM     32  C   UNL     1      45.265   5.427  12.947  0.00  0.00    +0.000 A 
ATOM     33  H   UNL     1      42.166   4.673  12.141  0.00  0.00    +0.000 HD
ENDBRANCH  20  23
ENDBRANCH  18  19
ENDBRANCH   4  18
TORSDOF 7
ENDMDL
MODEL 5
REMARK VINA RESULT:    -6.578      5.556      9.276
REMARK INTER + INTRA:         -10.629
REMARK INTER:                  -9.241
REMARK INTRA:                  -1.388
REMARK UNBOUND:                -1.359
REMARK  Name = 
REMARK  8 active torsions:
REMARK  status: ('A' for Active; 'I' for Inactive)
REMARK    1  A    between atoms: C_1  and  O_2
REMARK    2  A    between atoms: O_2  and  C_3
REMARK    3  A    between atoms: C_5  and  O_6
REMARK    4  A    between atoms: O_6  and  C_7
REMARK    5  A    between atoms: C_7  and  C_8
REMARK    6  A    between atoms: C_11  and  C_12
REMARK    7  A    between atoms: C_12  and  N_13
REMARK    8  A    between atoms: C_14  and  C_16
REMARK                            x       y       z     vdW  Elec       q    Type
REMARK                         _______ _______ _______ _____ _____    ______ ____
ROOT
ATOM      1  C   UNL     1      51.603   2.895  17.764  0.00  0.00    +0.000 A 
ATOM      2  C   UNL     1      51.059   4.124  18.165  0.00  0.00    +0.000 A 
ATOM      3  C   UNL     1      49.716   4.430  17.912  0.00  0.00    +0.000 A 
ATOM      4  C   UNL     1      48.880   3.506  17.269  0.00  0.00    +0.000 A 
ATOM      5  C   UNL     1      49.430   2.287  16.870  0.00  0.00    +0.000 A 
ATOM      6  F   UNL     1      48.666   1.385  16.237  0.00  0.00    +0.000 F 
ATOM      7  C   UNL     1      50.767   1.973  17.118  0.00  0.00    +0.000 A 
ENDROOT
BRANCH   1   8
ATOM      8  C   UNL     1      53.056   2.572  18.021  0.00  0.00    +0.000 C 
BRANCH   8   9
ATOM      9  O   UNL     1      53.159   1.262  18.577  0.00  0.00    +0.000 OA
BRANCH   9  12
ATOM     10  C   UNL     1      55.145  -1.678  17.551  0.00  0.00    +0.000 A 
ATOM     11  C   UNL     1      54.257  -0.932  18.317  0.00  0.00    +0.000 A 
ATOM     12  C   UNL     1      54.001   0.385  17.941  0.00  0.00    +0.000 A 
ATOM     13  C   UNL     1      54.646   0.900  16.819  0.00  0.00    +0.000 A 
ATOM     14  C   UNL     1      55.512   0.080  16.116  0.00  0.00    +0.000 A 
ATOM     15  N   UNL     1      55.774  -1.199  16.456  0.00  0.00    +0.000 NA
BRANCH  10  17
ATOM     16  C   UNL     1      54.262  -3.555  18.622  0.00  0.00    +0.000 C 
ATOM     17  O   UNL     1      55.386  -2.969  17.972  0.00  0.00    +0.000 OA
ENDBRANCH  10  17
ENDBRANCH   9  12
ENDBRANCH   8   9
ENDBRANCH   1   8
BRANCH   4  18
ATOM     18  C   UNL     1      47.429   3.821  17.026  0.00  0.00    +0.000 C 
BRANCH  18  19
ATOM     19  N   UNL     1      47.236   4.760  15.947  0.00  0.00    +0.000 N 
ATOM     20  C   UNL     1      47.157   4.380  14.632  0.00  0.00    +0.000 C 
ATOM     21  O   UNL     1      47.198   3.204  14.281  0.00  0.00    +0.000 OA
ATOM     22  H   UNL     1      47.349   5.741  16.178  0.00  0.00    +0.000 HD
BRANCH  20  23
ATOM     23  C   UNL     1      46.959   5.461  13.656  0.00  0.00    +0.000 A 
ATOM     24  C   UNL     1      45.899   5.398  12.763  0.00  0.00    +0.000 A 
ATOM     25  S   UNL     1      45.790   6.753  11.733  0.00  0.00    +0.000 S 
ATOM     26  C   UNL     1      47.188   7.449  12.410  0.00  0.00    +0.000 A 
ATOM     27  N   UNL     1      47.668   8.638  11.957  0.00  0.00    +0.000 NA
ATOM     28  C   UNL     1      48.755   9.029  12.533  0.00  0.00    +0.000 A 
ATOM     29  N   UNL     1      49.405   8.340  13.525  0.00  0.00    +0.000 N 
ATOM     30  C   UNL     1      48.934   7.157  14.044  0.00  0.00    +0.000 A 
ATOM     31  O   UNL     1      49.500   6.601  14.979  0.00  0.00    +0.000 OA
ATOM     32  C   UNL     1      47.721   6.665  13.417  0.00  0.00    +0.000 A 
ATOM     33  H   UNL     1      50.245   8.709  13.943  0.00  0.00    +0.000 HD
ENDBRANCH  20  23
ENDBRANCH  18  19
ENDBRANCH   4  18
TORSDOF 7
ENDMDL
MODEL 6
REMARK VINA RESULT:    -6.469      1.908      2.563
REMARK INTER + INTRA:         -10.475
REMARK INTER:                  -9.216
REMARK INTRA:                  -1.258
REMARK UNBOUND:                -1.359
REMARK  Name = 
REMARK  8 active torsions:
REMARK  status: ('A' for Active; 'I' for Inactive)
REMARK    1  A    between atoms: C_1  and  O_2
REMARK    2  A    between atoms: O_2  and  C_3
REMARK    3  A    between atoms: C_5  and  O_6
REMARK    4  A    between atoms: O_6  and  C_7
REMARK    5  A    between atoms: C_7  and  C_8
REMARK    6  A    between atoms: C_11  and  C_12
REMARK    7  A    between atoms: C_12  and  N_13
REMARK    8  A    between atoms: C_14  and  C_16
REMARK                            x       y       z     vdW  Elec       q    Type
REMARK                         _______ _______ _______ _____ _____    ______ ____
ROOT
ATOM      1  C   UNL     1      46.173   7.475  12.059  0.00  0.00    +0.000 A 
ATOM      2  C   UNL     1      46.044   8.400  13.105  0.00  0.00    +0.000 A 
ATOM      3  C   UNL     1      47.166   8.826  13.827  0.00  0.00    +0.000 A 
ATOM      4  C   UNL     1      48.446   8.352  13.508  0.00  0.00    +0.000 A 
ATOM      5  C   UNL     1      48.564   7.428  12.468  0.00  0.00    +0.000 A 
ATOM      6  F   UNL     1      49.770   6.938  12.144  0.00  0.00    +0.000 F 
ATOM      7  C   UNL     1      47.453   6.999  11.742  0.00  0.00    +0.000 A 
ENDROOT
BRANCH   1   8
ATOM      8  C   UNL     1      44.960   7.002  11.292  0.00  0.00    +0.000 C 
BRANCH   8   9
ATOM      9  O   UNL     1      44.733   5.621  11.570  0.00  0.00    +0.000 OA
BRANCH   9  12
ATOM     10  C   UNL     1      45.589   3.991   8.369  0.00  0.00    +0.000 A 
ATOM     11  C   UNL     1      45.538   5.002   9.322  0.00  0.00    +0.000 A 
ATOM     12  C   UNL     1      44.882   4.746  10.524  0.00  0.00    +0.000 A 
ATOM     13  C   UNL     1      44.303   3.495  10.721  0.00  0.00    +0.000 A 
ATOM     14  C   UNL     1      44.409   2.549   9.714  0.00  0.00    +0.000 A 
ATOM     15  N   UNL     1      45.042   2.769   8.543  0.00  0.00    +0.000 NA
BRANCH  10  17
ATOM     16  C   UNL     1      46.621   3.135   6.457  0.00  0.00    +0.000 C 
ATOM     17  O   UNL     1      46.229   4.295   7.185  0.00  0.00    +0.000 OA
ENDBRANCH  10  17
ENDBRANCH   9  12
ENDBRANCH   8   9
ENDBRANCH   1   8
BRANCH   4  18
ATOM     18  C   UNL     1      49.655   8.833  14.261  0.00  0.00    +0.000 C 
BRANCH  18  19
ATOM     19  N   UNL     1      49.784   8.218  15.561  0.00  0.00    +0.000 N 
ATOM     20  C   UNL     1      50.893   7.510  15.945  0.00  0.00    +0.000 C 
ATOM     21  O   UNL     1      51.880   7.388  15.225  0.00  0.00    +0.000 OA
ATOM     22  H   UNL     1      48.940   8.168  16.120  0.00  0.00    +0.000 HD
BRANCH  20  23
ATOM     23  C   UNL     1      50.865   6.946  17.302  0.00  0.00    +0.000 A 
ATOM     24  C   UNL     1      51.768   7.396  18.254  0.00  0.00    +0.000 A 
ATOM     25  S   UNL     1      51.566   6.672  19.784  0.00  0.00    +0.000 S 
ATOM     26  C   UNL     1      50.296   5.692  19.215  0.00  0.00    +0.000 A 
ATOM     27  N   UNL     1      49.676   4.803  20.036  0.00  0.00    +0.000 NA
ATOM     28  C   UNL     1      48.757   4.099  19.463  0.00  0.00    +0.000 A 
ATOM     29  N   UNL     1      48.400   4.207  18.143  0.00  0.00    +0.000 N 
ATOM     30  C   UNL     1      48.969   5.121  17.287  0.00  0.00    +0.000 A 
ATOM     31  O   UNL     1      48.578   5.241  16.131  0.00  0.00    +0.000 OA
ATOM     32  C   UNL     1      50.021   5.926  17.879  0.00  0.00    +0.000 A 
ATOM     33  H   UNL     1      47.662   3.635  17.760  0.00  0.00    +0.000 HD
ENDBRANCH  20  23
ENDBRANCH  18  19
ENDBRANCH   4  18
TORSDOF 7
ENDMDL
MODEL 7
REMARK VINA RESULT:    -6.058      2.736      3.435
REMARK INTER + INTRA:          -9.895
REMARK INTER:                  -8.829
REMARK INTRA:                  -1.067
REMARK UNBOUND:                -1.359
REMARK  Name = 
REMARK  8 active torsions:
REMARK  status: ('A' for Active; 'I' for Inactive)
REMARK    1  A    between atoms: C_1  and  O_2
REMARK    2  A    between atoms: O_2  and  C_3
REMARK    3  A    between atoms: C_5  and  O_6
REMARK    4  A    between atoms: O_6  and  C_7
REMARK    5  A    between atoms: C_7  and  C_8
REMARK    6  A    between atoms: C_11  and  C_12
REMARK    7  A    between atoms: C_12  and  N_13
REMARK    8  A    between atoms: C_14  and  C_16
REMARK                            x       y       z     vdW  Elec       q    Type
REMARK                         _______ _______ _______ _____ _____    ______ ____
ROOT
ATOM      1  C   UNL     1      45.734   5.335  12.756  0.00  0.00    +0.000 A 
ATOM      2  C   UNL     1      46.417   4.862  13.886  0.00  0.00    +0.000 A 
ATOM      3  C   UNL     1      47.526   5.551  14.393  0.00  0.00    +0.000 A 
ATOM      4  C   UNL     1      47.966   6.740  13.795  0.00  0.00    +0.000 A 
ATOM      5  C   UNL     1      47.283   7.201  12.668  0.00  0.00    +0.000 A 
ATOM      6  F   UNL     1      47.685   8.326  12.057  0.00  0.00    +0.000 F 
ATOM      7  C   UNL     1      46.176   6.522  12.156  0.00  0.00    +0.000 A 
ENDROOT
BRANCH   1   8
ATOM      8  C   UNL     1      44.549   4.582  12.199  0.00  0.00    +0.000 C 
BRANCH   8   9
ATOM      9  O   UNL     1      44.315   4.996  10.854  0.00  0.00    +0.000 OA
BRANCH   9  12
ATOM     10  C   UNL     1      45.809   3.556   7.799  0.00  0.00    +0.000 A 
ATOM     11  C   UNL     1      45.428   4.544   8.699  0.00  0.00    +0.000 A 
ATOM     12  C   UNL     1      44.763   4.162   9.862  0.00  0.00    +0.000 A 
ATOM     13  C   UNL     1      44.503   2.810  10.072  0.00  0.00    +0.000 A 
ATOM     14  C   UNL     1      44.924   1.896   9.120  0.00  0.00    +0.000 A 
ATOM     15  N   UNL     1      45.574   2.239   7.989  0.00  0.00    +0.000 NA
BRANCH  10  17
ATOM     16  C   UNL     1      46.960   2.905   5.875  0.00  0.00    +0.000 C 
ATOM     17  O   UNL     1      46.446   3.982   6.652  0.00  0.00    +0.000 OA
ENDBRANCH  10  17
ENDBRANCH   9  12
ENDBRANCH   8   9
ENDBRANCH   1   8
BRANCH   4  18
ATOM     18  C   UNL     1      49.137   7.498  14.358  0.00  0.00    +0.000 C 
BRANCH  18  19
ATOM     19  N   UNL     1      50.043   6.654  15.100  0.00  0.00    +0.000 N 
ATOM     20  C   UNL     1      50.277   6.808  16.441  0.00  0.00    +0.000 C 
ATOM     21  O   UNL     1      49.695   7.650  17.121  0.00  0.00    +0.000 OA
ATOM     22  H   UNL     1      50.650   6.054  14.552  0.00  0.00    +0.000 HD
BRANCH  20  23
ATOM     23  C   UNL     1      51.229   5.867  17.046  0.00  0.00    +0.000 A 
ATOM     24  C   UNL     1      50.801   4.604  17.429  0.00  0.00    +0.000 A 
ATOM     25  S   UNL     1      52.042   3.625  18.068  0.00  0.00    +0.000 S 
ATOM     26  C   UNL     1      53.188   4.873  17.903  0.00  0.00    +0.000 A 
ATOM     27  N   UNL     1      54.478   4.695  18.293  0.00  0.00    +0.000 NA
ATOM     28  C   UNL     1      55.229   5.736  18.147  0.00  0.00    +0.000 A 
ATOM     29  N   UNL     1      54.805   6.939  17.642  0.00  0.00    +0.000 N 
ATOM     30  C   UNL     1      53.521   7.151  17.196  0.00  0.00    +0.000 A 
ATOM     31  O   UNL     1      53.193   8.216  16.684  0.00  0.00    +0.000 OA
ATOM     32  C   UNL     1      52.633   6.015  17.354  0.00  0.00    +0.000 A 
ATOM     33  H   UNL     1      55.447   7.710  17.541  0.00  0.00    +0.000 HD
ENDBRANCH  20  23
ENDBRANCH  18  19
ENDBRANCH   4  18
TORSDOF 7
ENDMDL
MODEL 8
REMARK VINA RESULT:    -5.953      3.499      4.590
REMARK INTER + INTRA:          -9.748
REMARK INTER:                  -8.704
REMARK INTRA:                  -1.044
REMARK UNBOUND:                -1.359
REMARK  Name = 
REMARK  8 active torsions:
REMARK  status: ('A' for Active; 'I' for Inactive)
REMARK    1  A    between atoms: C_1  and  O_2
REMARK    2  A    between atoms: O_2  and  C_3
REMARK    3  A    between atoms: C_5  and  O_6
REMARK    4  A    between atoms: O_6  and  C_7
REMARK    5  A    between atoms: C_7  and  C_8
REMARK    6  A    between atoms: C_11  and  C_12
REMARK    7  A    between atoms: C_12  and  N_13
REMARK    8  A    between atoms: C_14  and  C_16
REMARK                            x       y       z     vdW  Elec       q    Type
REMARK                         _______ _______ _______ _____ _____    ______ ____
ROOT
ATOM      1  C   UNL     1      48.197   7.247  13.690  0.00  0.00    +0.000 A 
ATOM      2  C   UNL     1      48.248   6.688  14.975  0.00  0.00    +0.000 A 
ATOM      3  C   UNL     1      49.404   6.797  15.759  0.00  0.00    +0.000 A 
ATOM      4  C   UNL     1      50.529   7.485  15.284  0.00  0.00    +0.000 A 
ATOM      5  C   UNL     1      50.471   8.034  14.002  0.00  0.00    +0.000 A 
ATOM      6  F   UNL     1      51.534   8.684  13.505  0.00  0.00    +0.000 F 
ATOM      7  C   UNL     1      49.324   7.931  13.214  0.00  0.00    +0.000 A 
ENDROOT
BRANCH   1   8
ATOM      8  C   UNL     1      46.957   7.113  12.838  0.00  0.00    +0.000 C 
BRANCH   8   9
ATOM      9  O   UNL     1      46.757   5.740  12.506  0.00  0.00    +0.000 OA
BRANCH   9  12
ATOM     10  C   UNL     1      43.928   4.012  10.878  0.00  0.00    +0.000 A 
ATOM     11  C   UNL     1      45.197   4.164  11.425  0.00  0.00    +0.000 A 
ATOM     12  C   UNL     1      45.554   5.410  11.935  0.00  0.00    +0.000 A 
ATOM     13  C   UNL     1      44.630   6.451  11.874  0.00  0.00    +0.000 A 
ATOM     14  C   UNL     1      43.387   6.203  11.315  0.00  0.00    +0.000 A 
ATOM     15  N   UNL     1      43.014   5.006  10.817  0.00  0.00    +0.000 NA
BRANCH  10  17
ATOM     16  C   UNL     1      44.514   2.368   9.327  0.00  0.00    +0.000 C 
ATOM     17  O   UNL     1      43.624   2.769  10.365  0.00  0.00    +0.000 OA
ENDBRANCH  10  17
ENDBRANCH   9  12
ENDBRANCH   8   9
ENDBRANCH   1   8
BRANCH   4  18
ATOM     18  C   UNL     1      51.759   7.630  16.137  0.00  0.00    +0.000 C 
BRANCH  18  19
ATOM     19  N   UNL     1      52.293   6.360  16.568  0.00  0.00    +0.000 N 
ATOM     20  C   UNL     1      52.251   5.936  17.871  0.00  0.00    +0.000 C 
ATOM     21  O   UNL     1      51.712   6.589  18.760  0.00  0.00    +0.000 OA
ATOM     22  H   UNL     1      52.874   5.867  15.900  0.00  0.00    +0.000 HD
BRANCH  20  23
ATOM     23  C   UNL     1      52.839   4.618  18.143  0.00  0.00    +0.000 A 
ATOM     24  C   UNL     1      54.130   4.530  18.645  0.00  0.00    +0.000 A 
ATOM     25  S   UNL     1      54.639   2.930  18.948  0.00  0.00    +0.000 S 
ATOM     26  C   UNL     1      53.170   2.295  18.370  0.00  0.00    +0.000 A 
ATOM     27  N   UNL     1      52.953   0.953  18.334  0.00  0.00    +0.000 NA
ATOM     28  C   UNL     1      51.812   0.609  17.837  0.00  0.00    +0.000 A 
ATOM     29  N   UNL     1      50.866   1.487  17.374  0.00  0.00    +0.000 N 
ATOM     30  C   UNL     1      51.023   2.853  17.429  0.00  0.00    +0.000 A 
ATOM     31  O   UNL     1      50.129   3.612  17.073  0.00  0.00    +0.000 OA
ATOM     32  C   UNL     1      52.298   3.291  17.965  0.00  0.00    +0.000 A 
ATOM     33  H   UNL     1      49.987   1.153  17.009  0.00  0.00    +0.000 HD
ENDBRANCH  20  23
ENDBRANCH  18  19
ENDBRANCH   4  18
TORSDOF 7
ENDMDL
