MODEL 1
REMARK VINA RESULT:    -8.584      0.000      0.000
REMARK INTER + INTRA:         -13.957
REMARK INTER:                 -12.599
REMARK INTRA:                  -1.357
REMARK UNBOUND:                -1.357
REMARK  Name = 
REMARK  9 active torsions:
REMARK  status: ('A' for Active; 'I' for Inactive)
REMARK    1  A    between atoms: C_1  and  O_2
REMARK    2  A    between atoms: O_2  and  C_3
REMARK    3  A    between atoms: C_10  and  C_11
REMARK    4  A    between atoms: N_13  and  C_14
REMARK    5  A    between atoms: C_14  and  C_15
REMARK    6  A    between atoms: C_18  and  C_19
REMARK    7  A    between atoms: C_19  and  N_20
REMARK    8  A    between atoms: N_20  and  C_21
REMARK    9  A    between atoms: C_21  and  C_22
REMARK                            x       y       z     vdW  Elec       q    Type
REMARK                         _______ _______ _______ _____ _____    ______ ____
ROOT
ATOM      1  C   UNL     1      46.789   6.056  12.594  0.00  0.00    +0.000 A 
ATOM      2  C   UNL     1      46.239   6.315  11.332  0.00  0.00    +0.000 A 
ATOM      3  C   UNL     1      45.240   5.485  10.809  0.00  0.00    +0.000 A 
ATOM      4  C   UNL     1      44.783   4.376  11.537  0.00  0.00    +0.000 A 
ATOM      5  C   UNL     1      45.298   4.153  12.820  0.00  0.00    +0.000 A 
ATOM      6  C   UNL     1      46.284   4.989  13.347  0.00  0.00    +0.000 A 
ENDROOT
BRANCH   1   7
ATOM      7  C   UNL     1      47.904   6.904  13.141  0.00  0.00    +0.000 C 
BRANCH   7  10
ATOM      8  C   UNL     1      49.028   6.988  15.311  0.00  0.00    +0.000 C 
ATOM      9  O   UNL     1      50.124   6.930  14.763  0.00  0.00    +0.000 OA
ATOM     10  N   UNL     1      47.871   6.972  14.579  0.00  0.00    +0.000 N 
ATOM     11  H   UNL     1      46.969   7.050  15.033  0.00  0.00    +0.000 HD
BRANCH   8  19
ATOM     12  C   UNL     1      48.909   4.649  17.849  0.00  0.00    +0.000 A 
ATOM     13  N   UNL     1      48.815   3.975  19.014  0.00  0.00    +0.000 NA
ATOM     14  C   UNL     1      48.691   4.678  20.142  0.00  0.00    +0.000 A 
ATOM     15  N   UNL     1      48.650   6.002  20.257  0.00  0.00    +0.000 NA
ATOM     16  C   UNL     1      48.736   6.636  19.075  0.00  0.00    +0.000 A 
ATOM     17  S   UNL     1      48.700   8.332  19.037  0.00  0.00    +0.000 S 
ATOM     18  C   UNL     1      48.837   8.344  17.346  0.00  0.00    +0.000 A 
ATOM     19  C   UNL     1      48.910   7.076  16.776  0.00  0.00    +0.000 A 
ATOM     20  C   UNL     1      48.857   6.054  17.815  0.00  0.00    +0.000 A 
BRANCH  12  22
ATOM     21  C   UNL     1      47.820   3.240  16.337  0.00  0.00    +0.000 C 
ATOM     22  O   UNL     1      49.028   3.914  16.686  0.00  0.00    +0.000 OA
ENDBRANCH  12  22
ENDBRANCH   8  19
ENDBRANCH   7  10
ENDBRANCH   1   7
BRANCH   4  23
ATOM     23  C   UNL     1      43.761   3.421  10.966  0.00  0.00    +0.000 C 
BRANCH  23  24
ATOM     24  N   UNL     1      43.898   3.164   9.535  0.00  0.00    +0.000 NA
ATOM     25  H   UNL     1      44.403   3.931   9.096  0.00  0.00    +0.000 HD
BRANCH  24  26
ATOM     26  C   UNL     1      44.596   1.912   9.226  0.00  0.00    +0.000 C 
BRANCH  26  27
ATOM     27  C   UNL     1      45.707   2.188   8.244  0.00  0.00    +0.000 A 
ATOM     28  C   UNL     1      45.973   3.500   7.822  0.00  0.00    +0.000 A 
ATOM     29  C   UNL     1      47.063   3.770   6.991  0.00  0.00    +0.000 A 
ATOM     30  C   UNL     1      47.892   2.734   6.564  0.00  0.00    +0.000 A 
ATOM     31  C   UNL     1      47.621   1.423   6.954  0.00  0.00    +0.000 A 
ATOM     32  C   UNL     1      46.534   1.160   7.784  0.00  0.00    +0.000 A 
ATOM     33  F   UNL     1      46.307  -0.107   8.159  0.00  0.00    +0.000 F 
ENDBRANCH  26  27
ENDBRANCH  24  26
ENDBRANCH  23  24
ENDBRANCH   4  23
TORSDOF 8
ENDMDL
MODEL 2
REMARK VINA RESULT:    -7.920      1.107      1.157
REMARK INTER + INTRA:         -12.982
REMARK INTER:                 -11.784
REMARK INTRA:                  -1.198
REMARK UNBOUND:                -1.357
REMARK  Name = 
REMARK  9 active torsions:
REMARK  status: ('A' for Active; 'I' for Inactive)
REMARK    1  A    between atoms: C_1  and  O_2
REMARK    2  A    between atoms: O_2  and  C_3
REMARK    3  A    between atoms: C_10  and  C_11
REMARK    4  A    between atoms: N_13  and  C_14
REMARK    5  A    between atoms: C_14  and  C_15
REMARK    6  A    between atoms: C_18  and  C_19
REMARK    7  A    between atoms: C_19  and  N_20
REMARK    8  A    between atoms: N_20  and  C_21
REMARK    9  A    between atoms: C_21  and  C_22
REMARK                            x       y       z     vdW  Elec       q    Type
REMARK                         _______ _______ _______ _____ _____    ______ ____
ROOT
ATOM      1  C   UNL     1      45.962   7.107  12.399  0.00  0.00    +0.000 A 
ATOM      2  C   UNL     1      44.885   7.166  11.504  0.00  0.00    +0.000 A 
ATOM      3  C   UNL     1      44.228   5.996  11.106  0.00  0.00    +0.000 A 
ATOM      4  C   UNL     1      44.644   4.746  11.589  0.00  0.00    +0.000 A 
ATOM      5  C   UNL     1      45.685   4.698  12.525  0.00  0.00    +0.000 A 
ATOM      6  C   UNL     1      46.331   5.866  12.932  0.00  0.00    +0.000 A 
ENDROOT
BRANCH   1   7
ATOM      7  C   UNL     1      46.714   8.350  12.788  0.00  0.00    +0.000 C 
BRANCH   7  10
ATOM      8  C   UNL     1      48.465   8.016  14.461  0.00  0.00    +0.000 C 
ATOM      9  O   UNL     1      49.285   7.782  13.579  0.00  0.00    +0.000 OA
ATOM     10  N   UNL     1      47.161   8.300  14.156  0.00  0.00    +0.000 N 
ATOM     11  H   UNL     1      46.494   8.522  14.885  0.00  0.00    +0.000 HD
BRANCH   8  19
ATOM     12  C   UNL     1      48.717   5.533  16.848  0.00  0.00    +0.000 A 
ATOM     13  N   UNL     1      48.874   4.792  17.964  0.00  0.00    +0.000 NA
ATOM     14  C   UNL     1      49.263   5.410  19.083  0.00  0.00    +0.000 A 
ATOM     15  N   UNL     1      49.523   6.705  19.230  0.00  0.00    +0.000 NA
ATOM     16  C   UNL     1      49.344   7.410  18.100  0.00  0.00    +0.000 A 
ATOM     17  S   UNL     1      49.632   9.082  18.109  0.00  0.00    +0.000 S 
ATOM     18  C   UNL     1      49.214   9.211  16.469  0.00  0.00    +0.000 A 
ATOM     19  C   UNL     1      48.847   8.002  15.883  0.00  0.00    +0.000 A 
ATOM     20  C   UNL     1      48.934   6.923  16.861  0.00  0.00    +0.000 A 
BRANCH  12  22
ATOM     21  C   UNL     1      47.343   3.868  15.956  0.00  0.00    +0.000 C 
ATOM     22  O   UNL     1      48.306   4.889  15.698  0.00  0.00    +0.000 OA
ENDBRANCH  12  22
ENDBRANCH   8  19
ENDBRANCH   7  10
ENDBRANCH   1   7
BRANCH   4  23
ATOM     23  C   UNL     1      44.002   3.462  11.119  0.00  0.00    +0.000 C 
BRANCH  23  24
ATOM     24  N   UNL     1      44.933   2.479  10.571  0.00  0.00    +0.000 NA
ATOM     25  H   UNL     1      45.006   1.686  11.203  0.00  0.00    +0.000 HD
BRANCH  24  26
ATOM     26  C   UNL     1      44.551   1.983   9.245  0.00  0.00    +0.000 C 
BRANCH  26  27
ATOM     27  C   UNL     1      45.664   2.261   8.267  0.00  0.00    +0.000 A 
ATOM     28  C   UNL     1      45.950   3.577   7.870  0.00  0.00    +0.000 A 
ATOM     29  C   UNL     1      47.043   3.847   7.043  0.00  0.00    +0.000 A 
ATOM     30  C   UNL     1      47.856   2.807   6.595  0.00  0.00    +0.000 A 
ATOM     31  C   UNL     1      47.565   1.492   6.959  0.00  0.00    +0.000 A 
ATOM     32  C   UNL     1      46.475   1.230   7.786  0.00  0.00    +0.000 A 
ATOM     33  F   UNL     1      46.229  -0.041   8.136  0.00  0.00    +0.000 F 
ENDBRANCH  26  27
ENDBRANCH  24  26
ENDBRANCH  23  24
ENDBRANCH   4  23
TORSDOF 8
ENDMDL
MODEL 3
REMARK VINA RESULT:    -7.869      1.595      1.968
REMARK INTER + INTRA:         -12.906
REMARK INTER:                 -11.582
REMARK INTRA:                  -1.325
REMARK UNBOUND:                -1.357
REMARK  Name = 
REMARK  9 active torsions:
REMARK  status: ('A' for Active; 'I' for Inactive)
REMARK    1  A    between atoms: C_1  and  O_2
REMARK    2  A    between atoms: O_2  and  C_3
REMARK    3  A    between atoms: C_10  and  C_11
REMARK    4  A    between atoms: N_13  and  C_14
REMARK    5  A    between atoms: C_14  and  C_15
REMARK    6  A    between atoms: C_18  and  C_19
REMARK    7  A    between atoms: C_19  and  N_20
REMARK    8  A    between atoms: N_20  and  C_21
REMARK    9  A    between atoms: C_21  and  C_22
REMARK                            x       y       z     vdW  Elec       q    Type
REMARK                         _______ _______ _______ _____ _____    ______ ____
ROOT
ATOM      1  C   UNL     1      46.446   6.627  12.685  0.00  0.00    +0.000 A 
ATOM      2  C   UNL     1      46.559   5.301  13.124  0.00  0.00    +0.000 A 
ATOM      3  C   UNL     1      45.701   4.313  12.628  0.00  0.00    +0.000 A 
ATOM      4  C   UNL     1      44.707   4.638  11.692  0.00  0.00    +0.000 A 
ATOM      5  C   UNL     1      44.634   5.953  11.216  0.00  0.00    +0.000 A 
ATOM      6  C   UNL     1      45.500   6.935  11.700  0.00  0.00    +0.000 A 
ENDROOT
BRANCH   1   7
ATOM      7  C   UNL     1      47.323   7.708  13.255  0.00  0.00    +0.000 C 
BRANCH   7  10
ATOM      8  C   UNL     1      48.866   7.643  15.151  0.00  0.00    +0.000 C 
ATOM      9  O   UNL     1      48.256   8.555  15.699  0.00  0.00    +0.000 OA
ATOM     10  N   UNL     1      48.474   7.165  13.929  0.00  0.00    +0.000 N 
ATOM     11  H   UNL     1      48.962   6.392  13.494  0.00  0.00    +0.000 HD
BRANCH   8  19
ATOM     12  C   UNL     1      49.299   5.011  17.344  0.00  0.00    +0.000 A 
ATOM     13  N   UNL     1      49.755   4.069  18.195  0.00  0.00    +0.000 NA
ATOM     14  C   UNL     1      51.072   3.995  18.409  0.00  0.00    +0.000 A 
ATOM     15  N   UNL     1      52.013   4.761  17.866  0.00  0.00    +0.000 NA
ATOM     16  C   UNL     1      51.517   5.693  17.035  0.00  0.00    +0.000 A 
ATOM     17  S   UNL     1      52.581   6.759  16.252  0.00  0.00    +0.000 S 
ATOM     18  C   UNL     1      51.296   7.543  15.470  0.00  0.00    +0.000 A 
ATOM     19  C   UNL     1      50.043   7.023  15.782  0.00  0.00    +0.000 A 
ATOM     20  C   UNL     1      50.179   5.908  16.713  0.00  0.00    +0.000 A 
BRANCH  12  22
ATOM     21  C   UNL     1      47.425   3.955  16.433  0.00  0.00    +0.000 C 
ATOM     22  O   UNL     1      47.937   5.086  17.136  0.00  0.00    +0.000 OA
ENDBRANCH  12  22
ENDBRANCH   8  19
ENDBRANCH   7  10
ENDBRANCH   1   7
BRANCH   4  23
ATOM     23  C   UNL     1      43.719   3.608  11.196  0.00  0.00    +0.000 C 
BRANCH  23  24
ATOM     24  N   UNL     1      43.803   3.320   9.767  0.00  0.00    +0.000 NA
ATOM     25  H   UNL     1      44.263   4.091   9.289  0.00  0.00    +0.000 HD
BRANCH  24  26
ATOM     26  C   UNL     1      44.527   2.083   9.458  0.00  0.00    +0.000 C 
BRANCH  26  27
ATOM     27  C   UNL     1      45.589   2.370   8.427  0.00  0.00    +0.000 A 
ATOM     28  C   UNL     1      45.847   3.688   8.020  0.00  0.00    +0.000 A 
ATOM     29  C   UNL     1      46.896   3.966   7.140  0.00  0.00    +0.000 A 
ATOM     30  C   UNL     1      47.692   2.932   6.650  0.00  0.00    +0.000 A 
ATOM     31  C   UNL     1      47.427   1.615   7.026  0.00  0.00    +0.000 A 
ATOM     32  C   UNL     1      46.381   1.344   7.904  0.00  0.00    +0.000 A 
ATOM     33  F   UNL     1      46.160   0.072   8.264  0.00  0.00    +0.000 F 
ENDBRANCH  26  27
ENDBRANCH  24  26
ENDBRANCH  23  24
ENDBRANCH   4  23
TORSDOF 8
ENDMDL
MODEL 4
REMARK VINA RESULT:    -7.839      1.441      2.408
REMARK INTER + INTRA:         -12.863
REMARK INTER:                 -11.694
REMARK INTRA:                  -1.169
REMARK UNBOUND:                -1.357
REMARK  Name = 
REMARK  9 active torsions:
REMARK  status: ('A' for Active; 'I' for Inactive)
REMARK    1  A    between atoms: C_1  and  O_2
REMARK    2  A    between atoms: O_2  and  C_3
REMARK    3  A    between atoms: C_10  and  C_11
REMARK    4  A    between atoms: N_13  and  C_14
REMARK    5  A    between atoms: C_14  and  C_15
REMARK    6  A    between atoms: C_18  and  C_19
REMARK    7  A    between atoms: C_19  and  N_20
REMARK    8  A    between atoms: N_20  and  C_21
REMARK    9  A    between atoms: C_21  and  C_22
REMARK                            x       y       z     vdW  Elec       q    Type
REMARK                         _______ _______ _______ _____ _____    ______ ____
ROOT
ATOM      1  C   UNL     1      46.893   5.998  13.003  0.00  0.00    +0.000 A 
ATOM      2  C   UNL     1      46.346   6.573  11.848  0.00  0.00    +0.000 A 
ATOM      3  C   UNL     1      45.325   5.921  11.146  0.00  0.00    +0.000 A 
ATOM      4  C   UNL     1      44.843   4.678  11.583  0.00  0.00    +0.000 A 
ATOM      5  C   UNL     1      45.355   4.134  12.767  0.00  0.00    +0.000 A 
ATOM      6  C   UNL     1      46.363   4.791  13.474  0.00  0.00    +0.000 A 
ENDROOT
BRANCH   1   7
ATOM      7  C   UNL     1      48.031   6.659  13.731  0.00  0.00    +0.000 C 
BRANCH   7  10
ATOM      8  C   UNL     1      48.997   6.442  15.967  0.00  0.00    +0.000 C 
ATOM      9  O   UNL     1      50.129   6.442  15.494  0.00  0.00    +0.000 OA
ATOM     10  N   UNL     1      47.895   6.538  15.160  0.00  0.00    +0.000 N 
ATOM     11  H   UNL     1      46.964   6.569  15.556  0.00  0.00    +0.000 HD
BRANCH   8  19
ATOM     12  C   UNL     1      47.789   8.614  18.364  0.00  0.00    +0.000 A 
ATOM     13  N   UNL     1      47.390   9.242  19.489  0.00  0.00    +0.000 NA
ATOM     14  C   UNL     1      47.438   8.566  20.640  0.00  0.00    +0.000 A 
ATOM     15  N   UNL     1      47.842   7.312  20.813  0.00  0.00    +0.000 NA
ATOM     16  C   UNL     1      48.241   6.726  19.672  0.00  0.00    +0.000 A 
ATOM     17  S   UNL     1      48.789   5.120  19.710  0.00  0.00    +0.000 S 
ATOM     18  C   UNL     1      49.080   5.130  18.038  0.00  0.00    +0.000 A 
ATOM     19  C   UNL     1      48.775   6.339  17.419  0.00  0.00    +0.000 A 
ATOM     20  C   UNL     1      48.264   7.291  18.399  0.00  0.00    +0.000 A 
BRANCH  12  22
ATOM     21  C   UNL     1      48.769  10.313  17.094  0.00  0.00    +0.000 C 
ATOM     22  O   UNL     1      47.745   9.322  17.180  0.00  0.00    +0.000 OA
ENDBRANCH  12  22
ENDBRANCH   8  19
ENDBRANCH   7  10
ENDBRANCH   1   7
BRANCH   4  23
ATOM     23  C   UNL     1      43.795   3.917  10.803  0.00  0.00    +0.000 C 
BRANCH  23  24
ATOM     24  N   UNL     1      44.115   3.709   9.394  0.00  0.00    +0.000 NA
ATOM     25  H   UNL     1      44.826   4.374   9.102  0.00  0.00    +0.000 HD
BRANCH  24  26
ATOM     26  C   UNL     1      44.593   2.356   9.093  0.00  0.00    +0.000 C 
BRANCH  26  27
ATOM     27  C   UNL     1      45.752   2.437   8.132  0.00  0.00    +0.000 A 
ATOM     28  C   UNL     1      46.144   3.673   7.594  0.00  0.00    +0.000 A 
ATOM     29  C   UNL     1      47.277   3.766   6.782  0.00  0.00    +0.000 A 
ATOM     30  C   UNL     1      48.025   2.626   6.491  0.00  0.00    +0.000 A 
ATOM     31  C   UNL     1      47.629   1.388   6.996  0.00  0.00    +0.000 A 
ATOM     32  C   UNL     1      46.499   1.302   7.806  0.00  0.00    +0.000 A 
ATOM     33  F   UNL     1      46.151   0.103   8.294  0.00  0.00    +0.000 F 
ENDBRANCH  26  27
ENDBRANCH  24  26
ENDBRANCH  23  24
ENDBRANCH   4  23
TORSDOF 8
ENDMDL
MODEL 5
REMARK VINA RESULT:    -7.215      2.758      3.872
REMARK INTER + INTRA:         -11.947
REMARK INTER:                 -10.585
REMARK INTRA:                  -1.362
REMARK UNBOUND:                -1.357
REMARK  Name = 
REMARK  9 active torsions:
REMARK  status: ('A' for Active; 'I' for Inactive)
REMARK    1  A    between atoms: C_1  and  O_2
REMARK    2  A    between atoms: O_2  and  C_3
REMARK    3  A    between atoms: C_10  and  C_11
REMARK    4  A    between atoms: N_13  and  C_14
REMARK    5  A    between atoms: C_14  and  C_15
REMARK    6  A    between atoms: C_18  and  C_19
REMARK    7  A    between atoms: C_19  and  N_20
REMARK    8  A    between atoms: N_20  and  C_21
REMARK    9  A    between atoms: C_21  and  C_22
REMARK                            x       y       z     vdW  Elec       q    Type
REMARK                         _______ _______ _______ _____ _____    ______ ____
ROOT
ATOM      1  C   UNL     1      45.580   6.781  12.434  0.00  0.00    +0.000 A 
ATOM      2  C   UNL     1      45.804   6.395  11.106  0.00  0.00    +0.000 A 
ATOM      3  C   UNL     1      45.278   5.193  10.618  0.00  0.00    +0.000 A 
ATOM      4  C   UNL     1      44.528   4.352  11.454  0.00  0.00    +0.000 A 
ATOM      5  C   UNL     1      44.261   4.769  12.764  0.00  0.00    +0.000 A 
ATOM      6  C   UNL     1      44.773   5.974  13.246  0.00  0.00    +0.000 A 
ENDROOT
BRANCH   1   7
ATOM      7  C   UNL     1      46.189   8.040  12.987  0.00  0.00    +0.000 C 
BRANCH   7  10
ATOM      8  C   UNL     1      48.373   9.018  12.483  0.00  0.00    +0.000 C 
ATOM      9  O   UNL     1      47.834  10.013  12.007  0.00  0.00    +0.000 OA
ATOM     10  N   UNL     1      47.628   7.985  12.986  0.00  0.00    +0.000 N 
ATOM     11  H   UNL     1      48.076   7.179  13.404  0.00  0.00    +0.000 HD
BRANCH   8  19
ATOM     12  C   UNL     1      50.610   8.059  14.931  0.00  0.00    +0.000 A 
ATOM     13  N   UNL     1      51.690   7.762  15.684  0.00  0.00    +0.000 NA
ATOM     14  C   UNL     1      52.898   7.865  15.124  0.00  0.00    +0.000 A 
ATOM     15  N   UNL     1      53.170   8.234  13.876  0.00  0.00    +0.000 NA
ATOM     16  C   UNL     1      52.071   8.532  13.163  0.00  0.00    +0.000 A 
ATOM     17  S   UNL     1      52.236   9.021  11.547  0.00  0.00    +0.000 S 
ATOM     18  C   UNL     1      50.556   9.196  11.379  0.00  0.00    +0.000 A 
ATOM     19  C   UNL     1      49.838   8.893  12.533  0.00  0.00    +0.000 A 
ATOM     20  C   UNL     1      50.748   8.486  13.599  0.00  0.00    +0.000 A 
BRANCH  12  22
ATOM     21  C   UNL     1      49.032   6.618  15.874  0.00  0.00    +0.000 C 
ATOM     22  O   UNL     1      49.366   7.959  15.520  0.00  0.00    +0.000 OA
ENDBRANCH  12  22
ENDBRANCH   8  19
ENDBRANCH   7  10
ENDBRANCH   1   7
BRANCH   4  23
ATOM     23  C   UNL     1      44.013   3.015  10.975  0.00  0.00    +0.000 C 
BRANCH  23  24
ATOM     24  N   UNL     1      43.940   2.873   9.524  0.00  0.00    +0.000 NA
ATOM     25  H   UNL     1      44.369   3.680   9.079  0.00  0.00    +0.000 HD
BRANCH  24  26
ATOM     26  C   UNL     1      44.593   1.662   9.018  0.00  0.00    +0.000 C 
BRANCH  26  27
ATOM     27  C   UNL     1      45.730   2.050   8.108  0.00  0.00    +0.000 A 
ATOM     28  C   UNL     1      45.902   3.387   7.715  0.00  0.00    +0.000 A 
ATOM     29  C   UNL     1      47.009   3.766   6.953  0.00  0.00    +0.000 A 
ATOM     30  C   UNL     1      47.952   2.815   6.567  0.00  0.00    +0.000 A 
ATOM     31  C   UNL     1      47.778   1.478   6.927  0.00  0.00    +0.000 A 
ATOM     32  C   UNL     1      46.672   1.107   7.688  0.00  0.00    +0.000 A 
ATOM     33  F   UNL     1      46.538  -0.181   8.037  0.00  0.00    +0.000 F 
ENDBRANCH  26  27
ENDBRANCH  24  26
ENDBRANCH  23  24
ENDBRANCH   4  23
TORSDOF 8
ENDMDL
MODEL 6
REMARK VINA RESULT:    -7.163      1.783      2.936
REMARK INTER + INTRA:         -11.871
REMARK INTER:                 -10.804
REMARK INTRA:                  -1.068
REMARK UNBOUND:                -1.357
REMARK  Name = 
REMARK  9 active torsions:
REMARK  status: ('A' for Active; 'I' for Inactive)
REMARK    1  A    between atoms: C_1  and  O_2
REMARK    2  A    between atoms: O_2  and  C_3
REMARK    3  A    between atoms: C_10  and  C_11
REMARK    4  A    between atoms: N_13  and  C_14
REMARK    5  A    between atoms: C_14  and  C_15
REMARK    6  A    between atoms: C_18  and  C_19
REMARK    7  A    between atoms: C_19  and  N_20
REMARK    8  A    between atoms: N_20  and  C_21
REMARK    9  A    between atoms: C_21  and  C_22
REMARK                            x       y       z     vdW  Elec       q    Type
REMARK                         _______ _______ _______ _____ _____    ______ ____
ROOT
ATOM      1  C   UNL     1      47.235   6.270  12.924  0.00  0.00    +0.000 A 
ATOM      2  C   UNL     1      46.732   5.002  13.242  0.00  0.00    +0.000 A 
ATOM      3  C   UNL     1      45.645   4.473  12.537  0.00  0.00    +0.000 A 
ATOM      4  C   UNL     1      45.037   5.209  11.509  0.00  0.00    +0.000 A 
ATOM      5  C   UNL     1      45.578   6.452  11.159  0.00  0.00    +0.000 A 
ATOM      6  C   UNL     1      46.671   6.973  11.853  0.00  0.00    +0.000 A 
ENDROOT
BRANCH   1   7
ATOM      7  C   UNL     1      48.364   6.875  13.714  0.00  0.00    +0.000 C 
BRANCH   7  10
ATOM      8  C   UNL     1      49.151   6.640  16.017  0.00  0.00    +0.000 C 
ATOM      9  O   UNL     1      50.308   6.520  15.626  0.00  0.00    +0.000 OA
ATOM     10  N   UNL     1      48.120   6.812  15.131  0.00  0.00    +0.000 N 
ATOM     11  H   UNL     1      47.171   6.940  15.460  0.00  0.00    +0.000 HD
BRANCH   8  19
ATOM     12  C   UNL     1      49.324   8.955  18.573  0.00  0.00    +0.000 A 
ATOM     13  N   UNL     1      49.307   9.629  19.742  0.00  0.00    +0.000 NA
ATOM     14  C   UNL     1      48.873   8.990  20.832  0.00  0.00    +0.000 A 
ATOM     15  N   UNL     1      48.441   7.735  20.903  0.00  0.00    +0.000 NA
ATOM     16  C   UNL     1      48.484   7.096  19.721  0.00  0.00    +0.000 A 
ATOM     17  S   UNL     1      47.967   5.482  19.631  0.00  0.00    +0.000 S 
ATOM     18  C   UNL     1      48.310   5.417  17.970  0.00  0.00    +0.000 A 
ATOM     19  C   UNL     1      48.821   6.603  17.451  0.00  0.00    +0.000 A 
ATOM     20  C   UNL     1      48.916   7.611  18.502  0.00  0.00    +0.000 A 
BRANCH  12  22
ATOM     21  C   UNL     1      51.201   9.548  17.315  0.00  0.00    +0.000 C 
ATOM     22  O   UNL     1      49.782   9.619  17.453  0.00  0.00    +0.000 OA
ENDBRANCH  12  22
ENDBRANCH   8  19
ENDBRANCH   7  10
ENDBRANCH   1   7
BRANCH   4  23
ATOM     23  C   UNL     1      43.816   4.694  10.782  0.00  0.00    +0.000 C 
BRANCH  23  24
ATOM     24  N   UNL     1      44.069   3.571   9.884  0.00  0.00    +0.000 NA
ATOM     25  H   UNL     1      43.214   3.034   9.758  0.00  0.00    +0.000 HD
BRANCH  24  26
ATOM     26  C   UNL     1      44.564   3.973   8.564  0.00  0.00    +0.000 C 
BRANCH  26  27
ATOM     27  C   UNL     1      45.636   3.011   8.118  0.00  0.00    +0.000 A 
ATOM     28  C   UNL     1      45.552   1.650   8.449  0.00  0.00    +0.000 A 
ATOM     29  C   UNL     1      46.489   0.740   7.955  0.00  0.00    +0.000 A 
ATOM     30  C   UNL     1      47.525   1.180   7.132  0.00  0.00    +0.000 A 
ATOM     31  C   UNL     1      47.635   2.535   6.818  0.00  0.00    +0.000 A 
ATOM     32  C   UNL     1      46.696   3.436   7.314  0.00  0.00    +0.000 A 
ATOM     33  F   UNL     1      46.814   4.730   6.981  0.00  0.00    +0.000 F 
ENDBRANCH  26  27
ENDBRANCH  24  26
ENDBRANCH  23  24
ENDBRANCH   4  23
TORSDOF 8
ENDMDL
MODEL 7
REMARK VINA RESULT:    -7.042      3.729      8.294
REMARK INTER + INTRA:         -11.692
REMARK INTER:                  -9.875
REMARK INTRA:                  -1.818
REMARK UNBOUND:                -1.357
REMARK  Name = 
REMARK  9 active torsions:
REMARK  status: ('A' for Active; 'I' for Inactive)
REMARK    1  A    between atoms: C_1  and  O_2
REMARK    2  A    between atoms: O_2  and  C_3
REMARK    3  A    between atoms: C_10  and  C_11
REMARK    4  A    between atoms: N_13  and  C_14
REMARK    5  A    between atoms: C_14  and  C_15
REMARK    6  A    between atoms: C_18  and  C_19
REMARK    7  A    between atoms: C_19  and  N_20
REMARK    8  A    between atoms: N_20  and  C_21
REMARK    9  A    between atoms: C_21  and  C_22
REMARK                            x       y       z     vdW  Elec       q    Type
REMARK                         _______ _______ _______ _____ _____    ______ ____
ROOT
ATOM      1  C   UNL     1      48.468   7.917  13.476  0.00  0.00    +0.000 A 
ATOM      2  C   UNL     1      48.019   8.933  14.331  0.00  0.00    +0.000 A 
ATOM      3  C   UNL     1      48.116   8.786  15.719  0.00  0.00    +0.000 A 
ATOM      4  C   UNL     1      48.654   7.616  16.276  0.00  0.00    +0.000 A 
ATOM      5  C   UNL     1      49.151   6.628  15.418  0.00  0.00    +0.000 A 
ATOM      6  C   UNL     1      49.067   6.780  14.033  0.00  0.00    +0.000 A 
ENDROOT
BRANCH   1   7
ATOM      7  C   UNL     1      48.315   8.036  11.985  0.00  0.00    +0.000 C 
BRANCH   7  10
ATOM      8  C   UNL     1      46.253   6.874  11.368  0.00  0.00    +0.000 C 
ATOM      9  O   UNL     1      45.581   7.802  11.804  0.00  0.00    +0.000 OA
ATOM     10  N   UNL     1      47.622   6.905  11.425  0.00  0.00    +0.000 N 
ATOM     11  H   UNL     1      48.174   6.150  11.036  0.00  0.00    +0.000 HD
BRANCH   8  19
ATOM     12  C   UNL     1      44.450   4.216  12.636  0.00  0.00    +0.000 A 
ATOM     13  N   UNL     1      43.757   3.078  12.849  0.00  0.00    +0.000 NA
ATOM     14  C   UNL     1      43.458   2.314  11.795  0.00  0.00    +0.000 A 
ATOM     15  N   UNL     1      43.771   2.549  10.524  0.00  0.00    +0.000 NA
ATOM     16  C   UNL     1      44.471   3.684  10.356  0.00  0.00    +0.000 A 
ATOM     17  S   UNL     1      44.953   4.139   8.793  0.00  0.00    +0.000 S 
ATOM     18  C   UNL     1      45.712   5.537   9.384  0.00  0.00    +0.000 A 
ATOM     19  C   UNL     1      45.621   5.689  10.765  0.00  0.00    +0.000 A 
ATOM     20  C   UNL     1      44.869   4.581  11.344  0.00  0.00    +0.000 A 
BRANCH  12  22
ATOM     21  C   UNL     1      46.083   4.758  14.216  0.00  0.00    +0.000 C 
ATOM     22  O   UNL     1      44.762   4.996  13.731  0.00  0.00    +0.000 OA
ENDBRANCH  12  22
ENDBRANCH   8  19
ENDBRANCH   7  10
ENDBRANCH   1   7
BRANCH   4  23
ATOM     23  C   UNL     1      48.702   7.400  17.771  0.00  0.00    +0.000 C 
BRANCH  23  24
ATOM     24  N   UNL     1      47.590   6.622  18.310  0.00  0.00    +0.000 NA
ATOM     25  H   UNL     1      47.032   6.247  17.547  0.00  0.00    +0.000 HD
BRANCH  24  26
ATOM     26  C   UNL     1      48.013   5.508  19.166  0.00  0.00    +0.000 C 
BRANCH  26  27
ATOM     27  C   UNL     1      48.689   4.458  18.322  0.00  0.00    +0.000 A 
ATOM     28  C   UNL     1      50.076   4.262  18.407  0.00  0.00    +0.000 A 
ATOM     29  C   UNL     1      50.691   3.225  17.701  0.00  0.00    +0.000 A 
ATOM     30  C   UNL     1      49.930   2.378  16.896  0.00  0.00    +0.000 A 
ATOM     31  C   UNL     1      48.554   2.581  16.782  0.00  0.00    +0.000 A 
ATOM     32  C   UNL     1      47.947   3.616  17.489  0.00  0.00    +0.000 A 
ATOM     33  F   UNL     1      46.621   3.777  17.376  0.00  0.00    +0.000 F 
ENDBRANCH  26  27
ENDBRANCH  24  26
ENDBRANCH  23  24
ENDBRANCH   4  23
TORSDOF 8
ENDMDL
MODEL 8
REMARK VINA RESULT:    -6.758      3.662      4.922
REMARK INTER + INTRA:         -11.277
REMARK INTER:                 -10.162
REMARK INTRA:                  -1.115
REMARK UNBOUND:                -1.357
REMARK  Name = 
REMARK  9 active torsions:
REMARK  status: ('A' for Active; 'I' for Inactive)
REMARK    1  A    between atoms: C_1  and  O_2
REMARK    2  A    between atoms: O_2  and  C_3
REMARK    3  A    between atoms: C_10  and  C_11
REMARK    4  A    between atoms: N_13  and  C_14
REMARK    5  A    between atoms: C_14  and  C_15
REMARK    6  A    between atoms: C_18  and  C_19
REMARK    7  A    between atoms: C_19  and  N_20
REMARK    8  A    between atoms: N_20  and  C_21
REMARK    9  A    between atoms: C_21  and  C_22
REMARK                            x       y       z     vdW  Elec       q    Type
REMARK                         _______ _______ _______ _____ _____    ______ ____
ROOT
ATOM      1  C   UNL     1      47.064   6.360  13.229  0.00  0.00    +0.000 A 
ATOM      2  C   UNL     1      46.779   5.102  13.777  0.00  0.00    +0.000 A 
ATOM      3  C   UNL     1      45.900   4.228  13.127  0.00  0.00    +0.000 A 
ATOM      4  C   UNL     1      45.284   4.602  11.923  0.00  0.00    +0.000 A 
ATOM      5  C   UNL     1      45.614   5.837  11.353  0.00  0.00    +0.000 A 
ATOM      6  C   UNL     1      46.501   6.703  11.994  0.00  0.00    +0.000 A 
ENDROOT
BRANCH   1   7
ATOM      7  C   UNL     1      47.959   7.332  13.947  0.00  0.00    +0.000 C 
BRANCH   7  10
ATOM      8  C   UNL     1      50.138   8.416  13.712  0.00  0.00    +0.000 C 
ATOM      9  O   UNL     1      49.911   9.120  14.691  0.00  0.00    +0.000 OA
ATOM     10  N   UNL     1      49.217   7.505  13.268  0.00  0.00    +0.000 N 
ATOM     11  H   UNL     1      49.420   6.905  12.479  0.00  0.00    +0.000 HD
BRANCH   8  19
ATOM     12  C   UNL     1      53.463   8.228  14.627  0.00  0.00    +0.000 A 
ATOM     13  N   UNL     1      54.810   8.226  14.697  0.00  0.00    +0.000 NA
ATOM     14  C   UNL     1      55.502   8.411  13.569  0.00  0.00    +0.000 A 
ATOM     15  N   UNL     1      55.005   8.600  12.351  0.00  0.00    +0.000 NA
ATOM     16  C   UNL     1      53.662   8.606  12.325  0.00  0.00    +0.000 A 
ATOM     17  S   UNL     1      52.861   8.834  10.846  0.00  0.00    +0.000 S 
ATOM     18  C   UNL     1      51.343   8.727  11.598  0.00  0.00    +0.000 A 
ATOM     19  C   UNL     1      51.407   8.520  12.974  0.00  0.00    +0.000 A 
ATOM     20  C   UNL     1      52.799   8.439  13.405  0.00  0.00    +0.000 A 
BRANCH  12  22
ATOM     21  C   UNL     1      52.713   6.679  16.206  0.00  0.00    +0.000 C 
ATOM     22  O   UNL     1      52.755   8.045  15.798  0.00  0.00    +0.000 OA
ENDBRANCH  12  22
ENDBRANCH   8  19
ENDBRANCH   7  10
ENDBRANCH   1   7
BRANCH   4  23
ATOM     23  C   UNL     1      44.274   3.709  11.240  0.00  0.00    +0.000 C 
BRANCH  23  24
ATOM     24  N   UNL     1      44.810   2.439  10.758  0.00  0.00    +0.000 NA
ATOM     25  H   UNL     1      44.539   1.691  11.390  0.00  0.00    +0.000 HD
BRANCH  24  26
ATOM     26  C   UNL     1      44.365   2.089   9.405  0.00  0.00    +0.000 C 
BRANCH  26  27
ATOM     27  C   UNL     1      45.502   2.292   8.436  0.00  0.00    +0.000 A 
ATOM     28  C   UNL     1      46.343   1.222   8.093  0.00  0.00    +0.000 A 
ATOM     29  C   UNL     1      47.334   1.382   7.122  0.00  0.00    +0.000 A 
ATOM     30  C   UNL     1      47.504   2.613   6.490  0.00  0.00    +0.000 A 
ATOM     31  C   UNL     1      46.693   3.691   6.844  0.00  0.00    +0.000 A 
ATOM     32  C   UNL     1      45.705   3.525   7.811  0.00  0.00    +0.000 A 
ATOM     33  F   UNL     1      44.927   4.573   8.118  0.00  0.00    +0.000 F 
ENDBRANCH  26  27
ENDBRANCH  24  26
ENDBRANCH  23  24
ENDBRANCH   4  23
TORSDOF 8
ENDMDL
MODEL 9
REMARK VINA RESULT:    -6.692      4.029      8.658
REMARK INTER + INTRA:         -11.179
REMARK INTER:                  -8.856
REMARK INTRA:                  -2.323
REMARK UNBOUND:                -1.357
REMARK  Name = 
REMARK  9 active torsions:
REMARK  status: ('A' for Active; 'I' for Inactive)
REMARK    1  A    between atoms: C_1  and  O_2
REMARK    2  A    between atoms: O_2  and  C_3
REMARK    3  A    between atoms: C_10  and  C_11
REMARK    4  A    between atoms: N_13  and  C_14
REMARK    5  A    between atoms: C_14  and  C_15
REMARK    6  A    between atoms: C_18  and  C_19
REMARK    7  A    between atoms: C_19  and  N_20
REMARK    8  A    between atoms: N_20  and  C_21
REMARK    9  A    between atoms: C_21  and  C_22
REMARK                            x       y       z     vdW  Elec       q    Type
REMARK                         _______ _______ _______ _____ _____    ______ ____
ROOT
ATOM      1  C   UNL     1      48.831   8.165  15.830  0.00  0.00    +0.000 A 
ATOM      2  C   UNL     1      48.246   8.762  16.955  0.00  0.00    +0.000 A 
ATOM      3  C   UNL     1      48.685   8.433  18.242  0.00  0.00    +0.000 A 
ATOM      4  C   UNL     1      49.709   7.492  18.426  0.00  0.00    +0.000 A 
ATOM      5  C   UNL     1      50.327   6.939  17.298  0.00  0.00    +0.000 A 
ATOM      6  C   UNL     1      49.899   7.279  16.014  0.00  0.00    +0.000 A 
ENDROOT
BRANCH   1   7
ATOM      7  C   UNL     1      48.328   8.466  14.445  0.00  0.00    +0.000 C 
BRANCH   7  10
ATOM      8  C   UNL     1      47.638   6.441  13.260  0.00  0.00    +0.000 C 
ATOM      9  O   UNL     1      48.793   6.241  12.898  0.00  0.00    +0.000 OA
ATOM     10  N   UNL     1      47.317   7.530  14.027  0.00  0.00    +0.000 N 
ATOM     11  H   UNL     1      46.368   7.675  14.349  0.00  0.00    +0.000 HD
BRANCH   8  19
ATOM     12  C   UNL     1      44.483   6.879  11.926  0.00  0.00    +0.000 A 
ATOM     13  N   UNL     1      43.228   6.755  11.448  0.00  0.00    +0.000 NA
ATOM     14  C   UNL     1      42.709   5.528  11.347  0.00  0.00    +0.000 A 
ATOM     15  N   UNL     1      43.301   4.382  11.670  0.00  0.00    +0.000 NA
ATOM     16  C   UNL     1      44.544   4.550  12.153  0.00  0.00    +0.000 A 
ATOM     17  S   UNL     1      45.446   3.189  12.614  0.00  0.00    +0.000 S 
ATOM     18  C   UNL     1      46.762   4.157  13.071  0.00  0.00    +0.000 A 
ATOM     19  C   UNL     1      46.550   5.521  12.889  0.00  0.00    +0.000 A 
ATOM     20  C   UNL     1      45.223   5.753  12.330  0.00  0.00    +0.000 A 
BRANCH  12  22
ATOM     21  C   UNL     1      44.410   9.073  11.126  0.00  0.00    +0.000 C 
ATOM     22  O   UNL     1      45.009   8.151  12.036  0.00  0.00    +0.000 OA
ENDBRANCH  12  22
ENDBRANCH   8  19
ENDBRANCH   7  10
ENDBRANCH   1   7
BRANCH   4  23
ATOM     23  C   UNL     1      50.151   7.061  19.806  0.00  0.00    +0.000 C 
BRANCH  23  24
ATOM     24  N   UNL     1      50.341   5.623  19.964  0.00  0.00    +0.000 NA
ATOM     25  H   UNL     1      50.918   5.441  20.782  0.00  0.00    +0.000 HD
BRANCH  24  26
ATOM     26  C   UNL     1      49.088   4.875  20.104  0.00  0.00    +0.000 C 
BRANCH  26  27
ATOM     27  C   UNL     1      48.709   4.280  18.772  0.00  0.00    +0.000 A 
ATOM     28  C   UNL     1      49.502   3.280  18.188  0.00  0.00    +0.000 A 
ATOM     29  C   UNL     1      49.102   2.658  17.003  0.00  0.00    +0.000 A 
ATOM     30  C   UNL     1      47.911   3.033  16.383  0.00  0.00    +0.000 A 
ATOM     31  C   UNL     1      47.128   4.045  16.939  0.00  0.00    +0.000 A 
ATOM     32  C   UNL     1      47.532   4.661  18.121  0.00  0.00    +0.000 A 
ATOM     33  F   UNL     1      46.752   5.618  18.643  0.00  0.00    +0.000 F 
ENDBRANCH  26  27
ENDBRANCH  24  26
ENDBRANCH  23  24
ENDBRANCH   4  23
TORSDOF 8
ENDMDL
