MODEL 1
REMARK VINA RESULT:    -8.232      0.000      0.000
REMARK INTER + INTRA:         -11.388
REMARK INTER:                 -10.639
REMARK INTRA:                  -0.750
REMARK UNBOUND:                -0.750
REMARK  Name = 
REMARK  5 active torsions:
REMARK  status: ('A' for Active; 'I' for Inactive)
REMARK    1  A    between atoms: C_2  and  C_3
REMARK    2  A    between atoms: C_7  and  C_8
REMARK    3  A    between atoms: C_8  and  N_9
REMARK    4  A    between atoms: N_9  and  C_10
REMARK    5  A    between atoms: C_13  and  C_14
REMARK                            x       y       z     vdW  Elec       q    Type
REMARK                         _______ _______ _______ _____ _____    ______ ____
ROOT
ATOM      1  N   UNL     1      43.749   4.969   9.762  0.00  0.00    +0.000 N 
ATOM      2  H   UNL     1      42.869   5.139   9.279  0.00  0.00    +0.000 HD
ENDROOT
BRANCH   1   3
ATOM      3  C   UNL     1      44.553   4.049   9.090  0.00  0.00    +0.000 A 
ATOM      4  C   UNL     1      44.524   2.668   9.311  0.00  0.00    +0.000 A 
ATOM      5  C   UNL     1      45.421   1.808   8.662  0.00  0.00    +0.000 A 
ATOM      6  C   UNL     1      46.391   2.318   7.795  0.00  0.00    +0.000 A 
ATOM      7  C   UNL     1      46.461   3.696   7.591  0.00  0.00    +0.000 A 
ATOM      8  C   UNL     1      45.553   4.546   8.239  0.00  0.00    +0.000 A 
BRANCH   6   9
ATOM      9  C   UNL     1      47.350   1.371   7.164  0.00  0.00    +0.000 C 
ATOM     10  N   UNL     1      48.441   1.900   6.532  0.00  0.00    +0.000 N 
ATOM     11  O   UNL     1      47.163   0.161   7.182  0.00  0.00    +0.000 OA
ATOM     12  H   UNL     1      48.531   2.881   6.311  0.00  0.00    +0.000 HD
ATOM     13  H   UNL     1      49.037   1.247   6.041  0.00  0.00    +0.000 HD
ENDBRANCH   6   9
ENDBRANCH   1   3
BRANCH   1  14
ATOM     14  C   UNL     1      43.612   4.935  11.211  0.00  0.00    +0.000 C 
BRANCH  14  19
ATOM     15  C   UNL     1      46.672   4.745  13.502  0.00  0.00    +0.000 A 
ATOM     16  C   UNL     1      47.374   5.894  13.121  0.00  0.00    +0.000 A 
ATOM     17  C   UNL     1      46.870   6.717  12.114  0.00  0.00    +0.000 A 
ATOM     18  C   UNL     1      45.662   6.402  11.489  0.00  0.00    +0.000 A 
ATOM     19  C   UNL     1      44.942   5.257  11.862  0.00  0.00    +0.000 A 
ATOM     20  C   UNL     1      45.461   4.432  12.875  0.00  0.00    +0.000 A 
BRANCH  15  22
ATOM     21  N   UNL     1      47.603   3.213  15.379  0.00  0.00    +0.000 NA
ATOM     22  C   UNL     1      47.190   3.901  14.539  0.00  0.00    +0.000 C 
ENDBRANCH  15  22
ENDBRANCH  14  19
ENDBRANCH   1  14
TORSDOF 5
ENDMDL
MODEL 2
REMARK VINA RESULT:    -7.804      1.517      2.121
REMARK INTER + INTRA:         -10.834
REMARK INTER:                 -10.074
REMARK INTRA:                  -0.760
REMARK UNBOUND:                -0.750
REMARK  Name = 
REMARK  5 active torsions:
REMARK  status: ('A' for Active; 'I' for Inactive)
REMARK    1  A    between atoms: C_2  and  C_3
REMARK    2  A    between atoms: C_7  and  C_8
REMARK    3  A    between atoms: C_8  and  N_9
REMARK    4  A    between atoms: N_9  and  C_10
REMARK    5  A    between atoms: C_13  and  C_14
REMARK                            x       y       z     vdW  Elec       q    Type
REMARK                         _______ _______ _______ _____ _____    ______ ____
ROOT
ATOM      1  N   UNL     1      43.766   4.918   9.888  0.00  0.00    +0.000 N 
ATOM      2  H   UNL     1      42.910   5.151   9.392  0.00  0.00    +0.000 HD
ENDROOT
BRANCH   1   3
ATOM      3  C   UNL     1      44.555   4.007   9.186  0.00  0.00    +0.000 A 
ATOM      4  C   UNL     1      44.538   2.624   9.398  0.00  0.00    +0.000 A 
ATOM      5  C   UNL     1      45.420   1.773   8.716  0.00  0.00    +0.000 A 
ATOM      6  C   UNL     1      46.362   2.294   7.825  0.00  0.00    +0.000 A 
ATOM      7  C   UNL     1      46.420   3.674   7.630  0.00  0.00    +0.000 A 
ATOM      8  C   UNL     1      45.527   4.514   8.310  0.00  0.00    +0.000 A 
BRANCH   6   9
ATOM      9  C   UNL     1      47.306   1.356   7.159  0.00  0.00    +0.000 C 
ATOM     10  N   UNL     1      48.357   1.896   6.472  0.00  0.00    +0.000 N 
ATOM     11  O   UNL     1      47.139   0.143   7.197  0.00  0.00    +0.000 OA
ATOM     12  H   UNL     1      48.422   2.876   6.238  0.00  0.00    +0.000 HD
ATOM     13  H   UNL     1      48.941   1.247   5.960  0.00  0.00    +0.000 HD
ENDBRANCH   6   9
ENDBRANCH   1   3
BRANCH   1  14
ATOM     14  C   UNL     1      43.584   4.806  11.328  0.00  0.00    +0.000 C 
BRANCH  14  19
ATOM     15  C   UNL     1      46.865   6.451  12.415  0.00  0.00    +0.000 A 
ATOM     16  C   UNL     1      47.377   5.491  13.293  0.00  0.00    +0.000 A 
ATOM     17  C   UNL     1      46.657   4.324  13.549  0.00  0.00    +0.000 A 
ATOM     18  C   UNL     1      45.427   4.108  12.925  0.00  0.00    +0.000 A 
ATOM     19  C   UNL     1      44.900   5.057  12.036  0.00  0.00    +0.000 A 
ATOM     20  C   UNL     1      45.632   6.232  11.789  0.00  0.00    +0.000 A 
BRANCH  15  22
ATOM     21  N   UNL     1      48.216   8.616  11.943  0.00  0.00    +0.000 NA
ATOM     22  C   UNL     1      47.608   7.649  12.151  0.00  0.00    +0.000 C 
ENDBRANCH  15  22
ENDBRANCH  14  19
ENDBRANCH   1  14
TORSDOF 5
ENDMDL
MODEL 3
REMARK VINA RESULT:    -7.217      1.520      1.980
REMARK INTER + INTRA:         -10.076
REMARK INTER:                  -9.490
REMARK INTRA:                  -0.586
REMARK UNBOUND:                -0.750
REMARK  Name = 
REMARK  5 active torsions:
REMARK  status: ('A' for Active; 'I' for Inactive)
REMARK    1  A    between atoms: C_2  and  C_3
REMARK    2  A    between atoms: C_7  and  C_8
REMARK    3  A    between atoms: C_8  and  N_9
REMARK    4  A    between atoms: N_9  and  C_10
REMARK    5  A    between atoms: C_13  and  C_14
REMARK                            x       y       z     vdW  Elec       q    Type
REMARK                         _______ _______ _______ _____ _____    ______ ____
ROOT
ATOM      1  N   UNL     1      43.776   3.525  10.560  0.00  0.00    +0.000 N 
ATOM      2  H   UNL     1      42.940   2.963  10.417  0.00  0.00    +0.000 HD
ENDROOT
BRANCH   1   3
ATOM      3  C   UNL     1      44.717   3.343   9.546  0.00  0.00    +0.000 A 
ATOM      4  C   UNL     1      45.182   4.365   8.711  0.00  0.00    +0.000 A 
ATOM      5  C   UNL     1      46.064   4.096   7.655  0.00  0.00    +0.000 A 
ATOM      6  C   UNL     1      46.479   2.788   7.393  0.00  0.00    +0.000 A 
ATOM      7  C   UNL     1      45.997   1.750   8.191  0.00  0.00    +0.000 A 
ATOM      8  C   UNL     1      45.122   2.032   9.250  0.00  0.00    +0.000 A 
BRANCH   6   9
ATOM      9  C   UNL     1      47.381   2.546   6.234  0.00  0.00    +0.000 C 
ATOM     10  N   UNL     1      48.632   2.060   6.494  0.00  0.00    +0.000 N 
ATOM     11  O   UNL     1      47.033   2.796   5.087  0.00  0.00    +0.000 OA
ATOM     12  H   UNL     1      49.035   2.036   7.419  0.00  0.00    +0.000 HD
ATOM     13  H   UNL     1      49.257   1.979   5.703  0.00  0.00    +0.000 HD
ENDBRANCH   6   9
ENDBRANCH   1   3
BRANCH   1  14
ATOM     14  C   UNL     1      44.180   3.611  11.956  0.00  0.00    +0.000 C 
BRANCH  14  19
ATOM     15  C   UNL     1      46.666   6.233  13.219  0.00  0.00    +0.000 A 
ATOM     16  C   UNL     1      46.077   7.415  12.759  0.00  0.00    +0.000 A 
ATOM     17  C   UNL     1      44.891   7.365  12.027  0.00  0.00    +0.000 A 
ATOM     18  C   UNL     1      44.285   6.137  11.757  0.00  0.00    +0.000 A 
ATOM     19  C   UNL     1      44.857   4.941  12.215  0.00  0.00    +0.000 A 
ATOM     20  C   UNL     1      46.055   5.003  12.948  0.00  0.00    +0.000 A 
BRANCH  15  22
ATOM     21  N   UNL     1      48.868   6.325  14.590  0.00  0.00    +0.000 NA
ATOM     22  C   UNL     1      47.884   6.286  13.973  0.00  0.00    +0.000 C 
ENDBRANCH  15  22
ENDBRANCH  14  19
ENDBRANCH   1  14
TORSDOF 5
ENDMDL
MODEL 4
REMARK VINA RESULT:    -6.903      2.855      6.177
REMARK INTER + INTRA:          -9.670
REMARK INTER:                  -9.054
REMARK INTRA:                  -0.616
REMARK UNBOUND:                -0.750
REMARK  Name = 
REMARK  5 active torsions:
REMARK  status: ('A' for Active; 'I' for Inactive)
REMARK    1  A    between atoms: C_2  and  C_3
REMARK    2  A    between atoms: C_7  and  C_8
REMARK    3  A    between atoms: C_8  and  N_9
REMARK    4  A    between atoms: N_9  and  C_10
REMARK    5  A    between atoms: C_13  and  C_14
REMARK                            x       y       z     vdW  Elec       q    Type
REMARK                         _______ _______ _______ _____ _____    ______ ____
ROOT
ATOM      1  N   UNL     1      44.187   3.010  12.342  0.00  0.00    +0.000 N 
ATOM      2  H   UNL     1      43.619   2.702  13.128  0.00  0.00    +0.000 HD
ENDROOT
BRANCH   1   3
ATOM      3  C   UNL     1      45.179   3.913  12.727  0.00  0.00    +0.000 A 
ATOM      4  C   UNL     1      46.423   3.541  13.247  0.00  0.00    +0.000 A 
ATOM      5  C   UNL     1      47.341   4.502  13.694  0.00  0.00    +0.000 A 
ATOM      6  C   UNL     1      47.020   5.862  13.654  0.00  0.00    +0.000 A 
ATOM      7  C   UNL     1      45.770   6.250  13.174  0.00  0.00    +0.000 A 
ATOM      8  C   UNL     1      44.863   5.280  12.722  0.00  0.00    +0.000 A 
BRANCH   6   9
ATOM      9  C   UNL     1      48.009   6.841  14.180  0.00  0.00    +0.000 C 
ATOM     10  N   UNL     1      47.564   8.103  14.462  0.00  0.00    +0.000 N 
ATOM     11  O   UNL     1      49.188   6.545  14.333  0.00  0.00    +0.000 OA
ATOM     12  H   UNL     1      46.666   8.453  14.163  0.00  0.00    +0.000 HD
ATOM     13  H   UNL     1      48.266   8.776  14.742  0.00  0.00    +0.000 HD
ENDBRANCH   6   9
ENDBRANCH   1   3
BRANCH   1  14
ATOM     14  C   UNL     1      43.421   3.207  11.121  0.00  0.00    +0.000 C 
BRANCH  14  19
ATOM     15  C   UNL     1      45.821   2.018   8.387  0.00  0.00    +0.000 A 
ATOM     16  C   UNL     1      46.130   3.222   7.748  0.00  0.00    +0.000 A 
ATOM     17  C   UNL     1      45.550   4.413   8.186  0.00  0.00    +0.000 A 
ATOM     18  C   UNL     1      44.666   4.407   9.266  0.00  0.00    +0.000 A 
ATOM     19  C   UNL     1      44.349   3.209   9.924  0.00  0.00    +0.000 A 
ATOM     20  C   UNL     1      44.936   2.014   9.471  0.00  0.00    +0.000 A 
BRANCH  15  22
ATOM     21  N   UNL     1      46.901  -0.200   7.579  0.00  0.00    +0.000 NA
ATOM     22  C   UNL     1      46.420   0.795   7.937  0.00  0.00    +0.000 C 
ENDBRANCH  15  22
ENDBRANCH  14  19
ENDBRANCH   1  14
TORSDOF 5
ENDMDL
MODEL 5
REMARK VINA RESULT:    -6.441      2.577      6.690
REMARK INTER + INTRA:          -9.074
REMARK INTER:                  -8.514
REMARK INTRA:                  -0.560
REMARK UNBOUND:                -0.750
REMARK  Name = 
REMARK  5 active torsions:
REMARK  status: ('A' for Active; 'I' for Inactive)
REMARK    1  A    between atoms: C_2  and  C_3
REMARK    2  A    between atoms: C_7  and  C_8
REMARK    3  A    between atoms: C_8  and  N_9
REMARK    4  A    between atoms: N_9  and  C_10
REMARK    5  A    between atoms: C_13  and  C_14
REMARK                            x       y       z     vdW  Elec       q    Type
REMARK                         _______ _______ _______ _____ _____    ______ ____
ROOT
ATOM      1  N   UNL     1      44.764   5.496  10.451  0.00  0.00    +0.000 N 
ATOM      2  H   UNL     1      43.891   6.016  10.504  0.00  0.00    +0.000 HD
ENDROOT
BRANCH   1   3
ATOM      3  C   UNL     1      45.595   5.741  11.544  0.00  0.00    +0.000 A 
ATOM      4  C   UNL     1      46.412   6.869  11.675  0.00  0.00    +0.000 A 
ATOM      5  C   UNL     1      47.288   7.011  12.760  0.00  0.00    +0.000 A 
ATOM      6  C   UNL     1      47.386   6.008  13.728  0.00  0.00    +0.000 A 
ATOM      7  C   UNL     1      46.607   4.858  13.595  0.00  0.00    +0.000 A 
ATOM      8  C   UNL     1      45.728   4.731  12.510  0.00  0.00    +0.000 A 
BRANCH   6   9
ATOM      9  C   UNL     1      48.362   6.183  14.838  0.00  0.00    +0.000 C 
ATOM     10  N   UNL     1      47.959   5.836  16.098  0.00  0.00    +0.000 N 
ATOM     11  O   UNL     1      49.479   6.646  14.643  0.00  0.00    +0.000 OA
ATOM     12  H   UNL     1      46.997   5.650  16.340  0.00  0.00    +0.000 HD
ATOM     13  H   UNL     1      48.607   6.038  16.849  0.00  0.00    +0.000 HD
ENDBRANCH   6   9
ENDBRANCH   1   3
BRANCH   1  14
ATOM     14  C   UNL     1      45.300   5.408   9.101  0.00  0.00    +0.000 C 
BRANCH  14  19
ATOM     15  C   UNL     1      46.736   2.294   7.401  0.00  0.00    +0.000 A 
ATOM     16  C   UNL     1      46.015   1.276   8.035  0.00  0.00    +0.000 A 
ATOM     17  C   UNL     1      45.082   1.593   9.022  0.00  0.00    +0.000 A 
ATOM     18  C   UNL     1      44.860   2.925   9.375  0.00  0.00    +0.000 A 
ATOM     19  C   UNL     1      45.569   3.960   8.746  0.00  0.00    +0.000 A 
ATOM     20  C   UNL     1      46.510   3.629   7.756  0.00  0.00    +0.000 A 
BRANCH  15  22
ATOM     21  N   UNL     1      48.474   1.698   5.568  0.00  0.00    +0.000 NA
ATOM     22  C   UNL     1      47.693   1.966   6.385  0.00  0.00    +0.000 C 
ENDBRANCH  15  22
ENDBRANCH  14  19
ENDBRANCH   1  14
TORSDOF 5
ENDMDL
MODEL 6
REMARK VINA RESULT:    -5.657      2.733      4.840
REMARK INTER + INTRA:          -8.060
REMARK INTER:                  -7.760
REMARK INTRA:                  -0.299
REMARK UNBOUND:                -0.750
REMARK  Name = 
REMARK  5 active torsions:
REMARK  status: ('A' for Active; 'I' for Inactive)
REMARK    1  A    between atoms: C_2  and  C_3
REMARK    2  A    between atoms: C_7  and  C_8
REMARK    3  A    between atoms: C_8  and  N_9
REMARK    4  A    between atoms: N_9  and  C_10
REMARK    5  A    between atoms: C_13  and  C_14
REMARK                            x       y       z     vdW  Elec       q    Type
REMARK                         _______ _______ _______ _____ _____    ______ ____
ROOT
ATOM      1  N   UNL     1      46.860   7.309  13.707  0.00  0.00    +0.000 N 
ATOM      2  H   UNL     1      46.346   7.320  14.585  0.00  0.00    +0.000 HD
ENDROOT
BRANCH   1   3
ATOM      3  C   UNL     1      46.293   6.445  12.771  0.00  0.00    +0.000 A 
ATOM      4  C   UNL     1      46.433   6.583  11.385  0.00  0.00    +0.000 A 
ATOM      5  C   UNL     1      45.764   5.727  10.498  0.00  0.00    +0.000 A 
ATOM      6  C   UNL     1      44.914   4.729  10.981  0.00  0.00    +0.000 A 
ATOM      7  C   UNL     1      44.731   4.601  12.358  0.00  0.00    +0.000 A 
ATOM      8  C   UNL     1      45.412   5.456  13.236  0.00  0.00    +0.000 A 
BRANCH   6   9
ATOM      9  C   UNL     1      44.191   3.875  10.000  0.00  0.00    +0.000 C 
ATOM     10  N   UNL     1      44.073   4.340   8.720  0.00  0.00    +0.000 N 
ATOM     11  O   UNL     1      43.693   2.804  10.325  0.00  0.00    +0.000 OA
ATOM     12  H   UNL     1      44.278   5.292   8.455  0.00  0.00    +0.000 HD
ATOM     13  H   UNL     1      43.510   3.784   8.089  0.00  0.00    +0.000 HD
ENDBRANCH   6   9
ENDBRANCH   1   3
BRANCH   1  14
ATOM     14  C   UNL     1      48.303   7.387  13.884  0.00  0.00    +0.000 C 
BRANCH  14  19
ATOM     15  C   UNL     1      48.283   4.800  16.704  0.00  0.00    +0.000 A 
ATOM     16  C   UNL     1      49.452   5.135  17.394  0.00  0.00    +0.000 A 
ATOM     17  C   UNL     1      50.255   6.182  16.940  0.00  0.00    +0.000 A 
ATOM     18  C   UNL     1      49.891   6.900  15.800  0.00  0.00    +0.000 A 
ATOM     19  C   UNL     1      48.718   6.582  15.098  0.00  0.00    +0.000 A 
ATOM     20  C   UNL     1      47.919   5.523  15.562  0.00  0.00    +0.000 A 
BRANCH  15  22
ATOM     21  N   UNL     1      46.782   2.861  17.556  0.00  0.00    +0.000 NA
ATOM     22  C   UNL     1      47.457   3.726  17.174  0.00  0.00    +0.000 C 
ENDBRANCH  15  22
ENDBRANCH  14  19
ENDBRANCH   1  14
TORSDOF 5
ENDMDL
MODEL 7
REMARK VINA RESULT:    -5.498      4.091      7.902
REMARK INTER + INTRA:          -7.854
REMARK INTER:                  -7.552
REMARK INTRA:                  -0.302
REMARK UNBOUND:                -0.750
REMARK  Name = 
REMARK  5 active torsions:
REMARK  status: ('A' for Active; 'I' for Inactive)
REMARK    1  A    between atoms: C_2  and  C_3
REMARK    2  A    between atoms: C_7  and  C_8
REMARK    3  A    between atoms: C_8  and  N_9
REMARK    4  A    between atoms: N_9  and  C_10
REMARK    5  A    between atoms: C_13  and  C_14
REMARK                            x       y       z     vdW  Elec       q    Type
REMARK                         _______ _______ _______ _____ _____    ______ ____
ROOT
ATOM      1  N   UNL     1      46.417   4.424  15.147  0.00  0.00    +0.000 N 
ATOM      2  H   UNL     1      45.567   4.686  15.641  0.00  0.00    +0.000 HD
ENDROOT
BRANCH   1   3
ATOM      3  C   UNL     1      47.516   4.319  16.000  0.00  0.00    +0.000 A 
ATOM      4  C   UNL     1      48.306   5.401  16.403  0.00  0.00    +0.000 A 
ATOM      5  C   UNL     1      49.448   5.211  17.195  0.00  0.00    +0.000 A 
ATOM      6  C   UNL     1      49.841   3.926  17.577  0.00  0.00    +0.000 A 
ATOM      7  C   UNL     1      49.087   2.832  17.154  0.00  0.00    +0.000 A 
ATOM      8  C   UNL     1      47.942   3.033  16.370  0.00  0.00    +0.000 A 
BRANCH   6   9
ATOM      9  C   UNL     1      51.085   3.772  18.380  0.00  0.00    +0.000 C 
ATOM     10  N   UNL     1      51.817   2.631  18.202  0.00  0.00    +0.000 N 
ATOM     11  O   UNL     1      51.434   4.620  19.192  0.00  0.00    +0.000 OA
ATOM     12  H   UNL     1      51.471   1.822  17.709  0.00  0.00    +0.000 HD
ATOM     13  H   UNL     1      52.614   2.508  18.814  0.00  0.00    +0.000 HD
ENDBRANCH   6   9
ENDBRANCH   1   3
BRANCH   1  14
ATOM     14  C   UNL     1      46.537   5.047  13.837  0.00  0.00    +0.000 C 
BRANCH  14  19
ATOM     15  C   UNL     1      44.366   3.520  11.080  0.00  0.00    +0.000 A 
ATOM     16  C   UNL     1      43.121   4.091  11.360  0.00  0.00    +0.000 A 
ATOM     17  C   UNL     1      42.978   4.953  12.448  0.00  0.00    +0.000 A 
ATOM     18  C   UNL     1      44.077   5.251  13.255  0.00  0.00    +0.000 A 
ATOM     19  C   UNL     1      45.335   4.692  12.985  0.00  0.00    +0.000 A 
ATOM     20  C   UNL     1      45.467   3.822  11.889  0.00  0.00    +0.000 A 
BRANCH  15  22
ATOM     21  N   UNL     1      44.636   1.918   9.055  0.00  0.00    +0.000 NA
ATOM     22  C   UNL     1      44.511   2.636   9.960  0.00  0.00    +0.000 C 
ENDBRANCH  15  22
ENDBRANCH  14  19
ENDBRANCH   1  14
TORSDOF 5
ENDMDL
MODEL 8
REMARK VINA RESULT:    -5.454      3.242      6.344
REMARK INTER + INTRA:          -7.797
REMARK INTER:                  -7.113
REMARK INTRA:                  -0.684
REMARK UNBOUND:                -0.750
REMARK  Name = 
REMARK  5 active torsions:
REMARK  status: ('A' for Active; 'I' for Inactive)
REMARK    1  A    between atoms: C_2  and  C_3
REMARK    2  A    between atoms: C_7  and  C_8
REMARK    3  A    between atoms: C_8  and  N_9
REMARK    4  A    between atoms: N_9  and  C_10
REMARK    5  A    between atoms: C_13  and  C_14
REMARK                            x       y       z     vdW  Elec       q    Type
REMARK                         _______ _______ _______ _____ _____    ______ ____
ROOT
ATOM      1  N   UNL     1      44.465   5.297  12.652  0.00  0.00    +0.000 N 
ATOM      2  H   UNL     1      43.900   5.410  13.491  0.00  0.00    +0.000 HD
ENDROOT
BRANCH   1   3
ATOM      3  C   UNL     1      45.667   6.002  12.724  0.00  0.00    +0.000 A 
ATOM      4  C   UNL     1      45.912   7.210  12.061  0.00  0.00    +0.000 A 
ATOM      5  C   UNL     1      47.173   7.822  12.107  0.00  0.00    +0.000 A 
ATOM      6  C   UNL     1      48.228   7.220  12.798  0.00  0.00    +0.000 A 
ATOM      7  C   UNL     1      48.013   5.997  13.433  0.00  0.00    +0.000 A 
ATOM      8  C   UNL     1      46.746   5.399  13.388  0.00  0.00    +0.000 A 
BRANCH   6   9
ATOM      9  C   UNL     1      49.559   7.885  12.782  0.00  0.00    +0.000 C 
ATOM     10  N   UNL     1      50.523   7.355  11.970  0.00  0.00    +0.000 N 
ATOM     11  O   UNL     1      49.801   8.857  13.487  0.00  0.00    +0.000 OA
ATOM     12  H   UNL     1      50.443   6.448  11.535  0.00  0.00    +0.000 HD
ATOM     13  H   UNL     1      51.444   7.770  12.033  0.00  0.00    +0.000 HD
ENDBRANCH   6   9
ENDBRANCH   1   3
BRANCH   1  14
ATOM     14  C   UNL     1      43.679   5.270  11.428  0.00  0.00    +0.000 C 
BRANCH  14  19
ATOM     15  C   UNL     1      45.402   3.475   8.520  0.00  0.00    +0.000 A 
ATOM     16  C   UNL     1      45.062   2.143   8.777  0.00  0.00    +0.000 A 
ATOM     17  C   UNL     1      44.294   1.823   9.897  0.00  0.00    +0.000 A 
ATOM     18  C   UNL     1      43.858   2.830  10.759  0.00  0.00    +0.000 A 
ATOM     19  C   UNL     1      44.184   4.173  10.514  0.00  0.00    +0.000 A 
ATOM     20  C   UNL     1      44.962   4.483   9.385  0.00  0.00    +0.000 A 
BRANCH  15  22
ATOM     21  N   UNL     1      46.826   4.075   6.434  0.00  0.00    +0.000 NA
ATOM     22  C   UNL     1      46.190   3.802   7.367  0.00  0.00    +0.000 C 
ENDBRANCH  15  22
ENDBRANCH  14  19
ENDBRANCH   1  14
TORSDOF 5
ENDMDL
MODEL 9
REMARK VINA RESULT:    -5.382      2.902      4.778
REMARK INTER + INTRA:          -7.705
REMARK INTER:                  -7.256
REMARK INTRA:                  -0.449
REMARK UNBOUND:                -0.750
REMARK  Name = 
REMARK  5 active torsions:
REMARK  status: ('A' for Active; 'I' for Inactive)
REMARK    1  A    between atoms: C_2  and  C_3
REMARK    2  A    between atoms: C_7  and  C_8
REMARK    3  A    between atoms: C_8  and  N_9
REMARK    4  A    between atoms: N_9  and  C_10
REMARK    5  A    between atoms: C_13  and  C_14
REMARK                            x       y       z     vdW  Elec       q    Type
REMARK                         _______ _______ _______ _____ _____    ______ ____
ROOT
ATOM      1  N   UNL     1      46.376   5.890  14.016  0.00  0.00    +0.000 N 
ATOM      2  H   UNL     1      45.754   5.840  14.820  0.00  0.00    +0.000 HD
ENDROOT
BRANCH   1   3
ATOM      3  C   UNL     1      45.847   5.250  12.896  0.00  0.00    +0.000 A 
ATOM      4  C   UNL     1      45.443   3.911  12.871  0.00  0.00    +0.000 A 
ATOM      5  C   UNL     1      45.000   3.307  11.686  0.00  0.00    +0.000 A 
ATOM      6  C   UNL     1      44.979   4.026  10.488  0.00  0.00    +0.000 A 
ATOM      7  C   UNL     1      45.414   5.351  10.484  0.00  0.00    +0.000 A 
ATOM      8  C   UNL     1      45.846   5.948  11.677  0.00  0.00    +0.000 A 
BRANCH   6   9
ATOM      9  C   UNL     1      44.543   3.328   9.248  0.00  0.00    +0.000 C 
ATOM     10  N   UNL     1      44.167   4.101   8.184  0.00  0.00    +0.000 N 
ATOM     11  O   UNL     1      44.494   2.106   9.181  0.00  0.00    +0.000 OA
ATOM     12  H   UNL     1      43.993   5.093   8.254  0.00  0.00    +0.000 HD
ATOM     13  H   UNL     1      43.798   3.611   7.380  0.00  0.00    +0.000 HD
ENDBRANCH   6   9
ENDBRANCH   1   3
BRANCH   1  14
ATOM     14  C   UNL     1      47.782   5.757  14.368  0.00  0.00    +0.000 C 
BRANCH  14  19
ATOM     15  C   UNL     1      48.798   5.139  18.005  0.00  0.00    +0.000 A 
ATOM     16  C   UNL     1      48.220   3.889  18.245  0.00  0.00    +0.000 A 
ATOM     17  C   UNL     1      47.487   3.255  17.241  0.00  0.00    +0.000 A 
ATOM     18  C   UNL     1      47.335   3.863  15.994  0.00  0.00    +0.000 A 
ATOM     19  C   UNL     1      47.914   5.115  15.733  0.00  0.00    +0.000 A 
ATOM     20  C   UNL     1      48.646   5.746  16.754  0.00  0.00    +0.000 A 
BRANCH  15  22
ATOM     21  N   UNL     1      50.160   6.320  19.872  0.00  0.00    +0.000 NA
ATOM     22  C   UNL     1      49.553   5.788  19.038  0.00  0.00    +0.000 C 
ENDBRANCH  15  22
ENDBRANCH  14  19
ENDBRANCH   1  14
TORSDOF 5
ENDMDL
