MODEL 1
REMARK VINA RESULT:    -7.212      0.000      0.000
REMARK INTER + INTRA:          -9.508
REMARK INTER:                  -9.109
REMARK INTRA:                  -0.399
REMARK UNBOUND:                -0.399
REMARK  Name = 
REMARK  6 active torsions:
REMARK  status: ('A' for Active; 'I' for Inactive)
REMARK    1  A    between atoms: C_1  and  C_2
REMARK    2  A    between atoms: C_2  and  C_3
REMARK    3  A    between atoms: C_6  and  C_7
REMARK    4  A    between atoms: C_7  and  N_8
REMARK    5  A    between atoms: C_13  and  C_14
REMARK    6  A    between atoms: C_14  and  N_15
REMARK                            x       y       z     vdW  Elec       q    Type
REMARK                         _______ _______ _______ _____ _____    ______ ____
ROOT
ATOM      1  N   UNL     1      44.017   3.889  11.692  0.00  0.00    +0.000 N 
ATOM      2  C   UNL     1      45.069   4.488  12.361  0.00  0.00    +0.000 A 
ATOM      3  N   UNL     1      45.726   3.723  13.234  0.00  0.00    +0.000 NA
ATOM      4  C   UNL     1      46.722   4.308  13.928  0.00  0.00    +0.000 A 
ATOM      5  C   UNL     1      47.092   5.619  13.766  0.00  0.00    +0.000 A 
ATOM      6  C   UNL     1      46.373   6.332  12.829  0.00  0.00    +0.000 A 
ATOM      7  N   UNL     1      45.364   5.774  12.125  0.00  0.00    +0.000 NA
ATOM      8  H   UNL     1      44.140   2.884  11.758  0.00  0.00    +0.000 HD
ENDROOT
BRANCH   1   9
ATOM      9  C   UNL     1      43.803   4.387  10.339  0.00  0.00    +0.000 C 
BRANCH   9  13
ATOM     10  C   UNL     1      46.420   2.434   7.632  0.00  0.00    +0.000 A 
ATOM     11  C   UNL     1      45.691   1.750   8.582  0.00  0.00    +0.000 A 
ATOM     12  N   UNL     1      44.834   2.341   9.436  0.00  0.00    +0.000 NA
ATOM     13  C   UNL     1      44.707   3.682   9.340  0.00  0.00    +0.000 A 
ATOM     14  N   UNL     1      45.364   4.444   8.437  0.00  0.00    +0.000 NA
ATOM     15  C   UNL     1      46.198   3.794   7.599  0.00  0.00    +0.000 A 
BRANCH  10  17
ATOM     16  C   UNL     1      47.568   2.495   5.398  0.00  0.00    +0.000 C 
ATOM     17  C   UNL     1      47.378   1.748   6.709  0.00  0.00    +0.000 C 
ENDBRANCH  10  17
ENDBRANCH   9  13
ENDBRANCH   1   9
BRANCH   6  18
ATOM     18  C   UNL     1      46.674   7.788  12.560  0.00  0.00    +0.000 C 
BRANCH  18  19
ATOM     19  N   UNL     1      46.352   8.652  13.700  0.00  0.00    +0.000 NA
ATOM     20  H   UNL     1      45.365   8.905  13.627  0.00  0.00    +0.000 HD
ATOM     21  H   UNL     1      46.867   9.526  13.598  0.00  0.00    +0.000 HD
ENDBRANCH  18  19
ENDBRANCH   6  18
TORSDOF 5
ENDMDL
MODEL 2
REMARK VINA RESULT:    -6.732      1.530      2.258
REMARK INTER + INTRA:          -8.903
REMARK INTER:                  -8.529
REMARK INTRA:                  -0.374
REMARK UNBOUND:                -0.399
REMARK  Name = 
REMARK  6 active torsions:
REMARK  status: ('A' for Active; 'I' for Inactive)
REMARK    1  A    between atoms: C_1  and  C_2
REMARK    2  A    between atoms: C_2  and  C_3
REMARK    3  A    between atoms: C_6  and  C_7
REMARK    4  A    between atoms: C_7  and  N_8
REMARK    5  A    between atoms: C_13  and  C_14
REMARK    6  A    between atoms: C_14  and  N_15
REMARK                            x       y       z     vdW  Elec       q    Type
REMARK                         _______ _______ _______ _____ _____    ______ ____
ROOT
ATOM      1  N   UNL     1      44.566   4.691  11.747  0.00  0.00    +0.000 N 
ATOM      2  C   UNL     1      45.078   5.952  11.993  0.00  0.00    +0.000 A 
ATOM      3  N   UNL     1      46.161   6.008  12.772  0.00  0.00    +0.000 NA
ATOM      4  C   UNL     1      46.642   7.234  13.059  0.00  0.00    +0.000 A 
ATOM      5  C   UNL     1      46.092   8.396  12.581  0.00  0.00    +0.000 A 
ATOM      6  C   UNL     1      44.988   8.245  11.767  0.00  0.00    +0.000 A 
ATOM      7  N   UNL     1      44.478   7.030  11.470  0.00  0.00    +0.000 NA
ATOM      8  H   UNL     1      45.295   4.016  11.948  0.00  0.00    +0.000 HD
ENDROOT
BRANCH   1   9
ATOM      9  C   UNL     1      43.941   4.540  10.440  0.00  0.00    +0.000 C 
BRANCH   9  13
ATOM     10  C   UNL     1      46.439   2.589   7.622  0.00  0.00    +0.000 A 
ATOM     11  C   UNL     1      46.331   3.961   7.691  0.00  0.00    +0.000 A 
ATOM     12  N   UNL     1      45.567   4.608   8.591  0.00  0.00    +0.000 NA
ATOM     13  C   UNL     1      44.871   3.842   9.459  0.00  0.00    +0.000 A 
ATOM     14  N   UNL     1      44.916   2.492   9.485  0.00  0.00    +0.000 NA
ATOM     15  C   UNL     1      45.710   1.901   8.569  0.00  0.00    +0.000 A 
BRANCH  10  17
ATOM     16  C   UNL     1      47.261   2.602   5.247  0.00  0.00    +0.000 C 
ATOM     17  C   UNL     1      47.285   1.900   6.596  0.00  0.00    +0.000 C 
ENDBRANCH  10  17
ENDBRANCH   9  13
ENDBRANCH   1   9
BRANCH   6  18
ATOM     18  C   UNL     1      44.282   9.447  11.182  0.00  0.00    +0.000 C 
BRANCH  18  19
ATOM     19  N   UNL     1      42.943   9.127  10.680  0.00  0.00    +0.000 NA
ATOM     20  H   UNL     1      42.360   9.956  10.803  0.00  0.00    +0.000 HD
ATOM     21  H   UNL     1      42.535   8.412  11.281  0.00  0.00    +0.000 HD
ENDBRANCH  18  19
ENDBRANCH   6  18
TORSDOF 5
ENDMDL
MODEL 3
REMARK VINA RESULT:    -6.657      1.404      2.204
REMARK INTER + INTRA:          -8.808
REMARK INTER:                  -8.467
REMARK INTRA:                  -0.341
REMARK UNBOUND:                -0.399
REMARK  Name = 
REMARK  6 active torsions:
REMARK  status: ('A' for Active; 'I' for Inactive)
REMARK    1  A    between atoms: C_1  and  C_2
REMARK    2  A    between atoms: C_2  and  C_3
REMARK    3  A    between atoms: C_6  and  C_7
REMARK    4  A    between atoms: C_7  and  N_8
REMARK    5  A    between atoms: C_13  and  C_14
REMARK    6  A    between atoms: C_14  and  N_15
REMARK                            x       y       z     vdW  Elec       q    Type
REMARK                         _______ _______ _______ _____ _____    ______ ____
ROOT
ATOM      1  N   UNL     1      44.338   6.176  10.552  0.00  0.00    +0.000 N 
ATOM      2  C   UNL     1      45.105   6.841  11.491  0.00  0.00    +0.000 A 
ATOM      3  N   UNL     1      44.728   8.087  11.787  0.00  0.00    +0.000 NA
ATOM      4  C   UNL     1      45.495   8.763  12.665  0.00  0.00    +0.000 A 
ATOM      5  C   UNL     1      46.608   8.232  13.267  0.00  0.00    +0.000 A 
ATOM      6  C   UNL     1      46.913   6.933  12.920  0.00  0.00    +0.000 A 
ATOM      7  N   UNL     1      46.169   6.233  12.036  0.00  0.00    +0.000 NA
ATOM      8  H   UNL     1      43.442   6.647  10.494  0.00  0.00    +0.000 HD
ENDROOT
BRANCH   1   9
ATOM      9  C   UNL     1      44.255   4.735  10.754  0.00  0.00    +0.000 C 
BRANCH   9  13
ATOM     10  C   UNL     1      46.282   2.624   7.683  0.00  0.00    +0.000 A 
ATOM     11  C   UNL     1      45.606   1.985   8.700  0.00  0.00    +0.000 A 
ATOM     12  N   UNL     1      44.932   2.628   9.673  0.00  0.00    +0.000 NA
ATOM     13  C   UNL     1      44.944   3.978   9.628  0.00  0.00    +0.000 A 
ATOM     14  N   UNL     1      45.563   4.701   8.669  0.00  0.00    +0.000 NA
ATOM     15  C   UNL     1      46.209   4.001   7.714  0.00  0.00    +0.000 A 
BRANCH  10  17
ATOM     16  C   UNL     1      47.153   2.658   5.327  0.00  0.00    +0.000 C 
ATOM     17  C   UNL     1      47.036   1.878   6.627  0.00  0.00    +0.000 C 
ENDBRANCH  10  17
ENDBRANCH   9  13
ENDBRANCH   1   9
BRANCH   6  18
ATOM     18  C   UNL     1      48.119   6.234  13.505  0.00  0.00    +0.000 C 
BRANCH  18  19
ATOM     19  N   UNL     1      49.380   6.698  12.921  0.00  0.00    +0.000 NA
ATOM     20  H   UNL     1      49.302   7.706  12.774  0.00  0.00    +0.000 HD
ATOM     21  H   UNL     1      49.474   6.292  11.991  0.00  0.00    +0.000 HD
ENDBRANCH  18  19
ENDBRANCH   6  18
TORSDOF 5
ENDMDL
MODEL 4
REMARK VINA RESULT:    -6.476      3.189      4.622
REMARK INTER + INTRA:          -8.579
REMARK INTER:                  -8.319
REMARK INTRA:                  -0.260
REMARK UNBOUND:                -0.399
REMARK  Name = 
REMARK  6 active torsions:
REMARK  status: ('A' for Active; 'I' for Inactive)
REMARK    1  A    between atoms: C_1  and  C_2
REMARK    2  A    between atoms: C_2  and  C_3
REMARK    3  A    between atoms: C_6  and  C_7
REMARK    4  A    between atoms: C_7  and  N_8
REMARK    5  A    between atoms: C_13  and  C_14
REMARK    6  A    between atoms: C_14  and  N_15
REMARK                            x       y       z     vdW  Elec       q    Type
REMARK                         _______ _______ _______ _____ _____    ______ ____
ROOT
ATOM      1  N   UNL     1      47.137   3.273  14.607  0.00  0.00    +0.000 N 
ATOM      2  C   UNL     1      47.844   3.316  15.795  0.00  0.00    +0.000 A 
ATOM      3  N   UNL     1      48.820   2.415  15.934  0.00  0.00    +0.000 NA
ATOM      4  C   UNL     1      49.485   2.415  17.106  0.00  0.00    +0.000 A 
ATOM      5  C   UNL     1      49.222   3.290  18.129  0.00  0.00    +0.000 A 
ATOM      6  C   UNL     1      48.213   4.200  17.893  0.00  0.00    +0.000 A 
ATOM      7  N   UNL     1      47.522   4.219  16.732  0.00  0.00    +0.000 NA
ATOM      8  H   UNL     1      47.699   2.769  13.930  0.00  0.00    +0.000 HD
ENDROOT
BRANCH   1   9
ATOM      9  C   UNL     1      46.652   4.569  14.149  0.00  0.00    +0.000 C 
BRANCH   9  13
ATOM     10  C   UNL     1      44.896   4.219  10.304  0.00  0.00    +0.000 A 
ATOM     11  C   UNL     1      44.849   3.204  11.235  0.00  0.00    +0.000 A 
ATOM     12  N   UNL     1      45.374   3.296  12.472  0.00  0.00    +0.000 NA
ATOM     13  C   UNL     1      45.983   4.459  12.787  0.00  0.00    +0.000 A 
ATOM     14  N   UNL     1      46.073   5.520  11.954  0.00  0.00    +0.000 NA
ATOM     15  C   UNL     1      45.516   5.373  10.735  0.00  0.00    +0.000 A 
BRANCH  10  17
ATOM     16  C   UNL     1      45.357   3.690   7.891  0.00  0.00    +0.000 C 
ATOM     17  C   UNL     1      44.317   4.076   8.931  0.00  0.00    +0.000 C 
ENDBRANCH  10  17
ENDBRANCH   9  13
ENDBRANCH   1   9
BRANCH   6  18
ATOM     18  C   UNL     1      47.818   5.214  18.942  0.00  0.00    +0.000 C 
BRANCH  18  19
ATOM     19  N   UNL     1      46.389   5.538  18.905  0.00  0.00    +0.000 NA
ATOM     20  H   UNL     1      46.115   5.835  19.843  0.00  0.00    +0.000 HD
ATOM     21  H   UNL     1      45.868   4.680  18.727  0.00  0.00    +0.000 HD
ENDBRANCH  18  19
ENDBRANCH   6  18
TORSDOF 5
ENDMDL
MODEL 5
REMARK VINA RESULT:    -6.186      2.425      3.965
REMARK INTER + INTRA:          -8.213
REMARK INTER:                  -7.936
REMARK INTRA:                  -0.277
REMARK UNBOUND:                -0.399
REMARK  Name = 
REMARK  6 active torsions:
REMARK  status: ('A' for Active; 'I' for Inactive)
REMARK    1  A    between atoms: C_1  and  C_2
REMARK    2  A    between atoms: C_2  and  C_3
REMARK    3  A    between atoms: C_6  and  C_7
REMARK    4  A    between atoms: C_7  and  N_8
REMARK    5  A    between atoms: C_13  and  C_14
REMARK    6  A    between atoms: C_14  and  N_15
REMARK                            x       y       z     vdW  Elec       q    Type
REMARK                         _______ _______ _______ _____ _____    ______ ____
ROOT
ATOM      1  N   UNL     1      47.063   5.789  13.429  0.00  0.00    +0.000 N 
ATOM      2  C   UNL     1      47.681   5.620  14.655  0.00  0.00    +0.000 A 
ATOM      3  N   UNL     1      48.462   6.622  15.065  0.00  0.00    +0.000 NA
ATOM      4  C   UNL     1      49.109   6.450  16.235  0.00  0.00    +0.000 A 
ATOM      5  C   UNL     1      48.987   5.325  17.011  0.00  0.00    +0.000 A 
ATOM      6  C   UNL     1      48.144   4.349  16.523  0.00  0.00    +0.000 A 
ATOM      7  N   UNL     1      47.490   4.490  15.349  0.00  0.00    +0.000 NA
ATOM      8  H   UNL     1      47.068   6.780  13.214  0.00  0.00    +0.000 HD
ENDROOT
BRANCH   1   9
ATOM      9  C   UNL     1      45.757   5.150  13.321  0.00  0.00    +0.000 C 
BRANCH   9  13
ATOM     10  C   UNL     1      45.050   3.948   9.315  0.00  0.00    +0.000 A 
ATOM     11  C   UNL     1      44.782   3.130  10.393  0.00  0.00    +0.000 A 
ATOM     12  N   UNL     1      44.972   3.495  11.675  0.00  0.00    +0.000 NA
ATOM     13  C   UNL     1      45.462   4.735  11.887  0.00  0.00    +0.000 A 
ATOM     14  N   UNL     1      45.745   5.619  10.905  0.00  0.00    +0.000 NA
ATOM     15  C   UNL     1      45.520   5.202   9.642  0.00  0.00    +0.000 A 
BRANCH  10  17
ATOM     16  C   UNL     1      46.151   3.313   7.148  0.00  0.00    +0.000 C 
ATOM     17  C   UNL     1      44.844   3.504   7.900  0.00  0.00    +0.000 C 
ENDBRANCH  10  17
ENDBRANCH   9  13
ENDBRANCH   1   9
BRANCH   6  18
ATOM     18  C   UNL     1      47.928   3.058  17.277  0.00  0.00    +0.000 C 
BRANCH  18  19
ATOM     19  N   UNL     1      46.539   2.879  17.708  0.00  0.00    +0.000 NA
ATOM     20  H   UNL     1      46.353   1.876  17.746  0.00  0.00    +0.000 HD
ATOM     21  H   UNL     1      45.925   3.244  16.979  0.00  0.00    +0.000 HD
ENDBRANCH  18  19
ENDBRANCH   6  18
TORSDOF 5
ENDMDL
MODEL 6
REMARK VINA RESULT:    -6.002      3.878      5.696
REMARK INTER + INTRA:          -7.981
REMARK INTER:                  -7.720
REMARK INTRA:                  -0.261
REMARK UNBOUND:                -0.399
REMARK  Name = 
REMARK  6 active torsions:
REMARK  status: ('A' for Active; 'I' for Inactive)
REMARK    1  A    between atoms: C_1  and  C_2
REMARK    2  A    between atoms: C_2  and  C_3
REMARK    3  A    between atoms: C_6  and  C_7
REMARK    4  A    between atoms: C_7  and  N_8
REMARK    5  A    between atoms: C_13  and  C_14
REMARK    6  A    between atoms: C_14  and  N_15
REMARK                            x       y       z     vdW  Elec       q    Type
REMARK                         _______ _______ _______ _____ _____    ______ ____
ROOT
ATOM      1  N   UNL     1      47.400   3.164  15.508  0.00  0.00    +0.000 N 
ATOM      2  C   UNL     1      48.581   3.057  16.220  0.00  0.00    +0.000 A 
ATOM      3  N   UNL     1      49.245   1.905  16.095  0.00  0.00    +0.000 NA
ATOM      4  C   UNL     1      50.372   1.770  16.820  0.00  0.00    +0.000 A 
ATOM      5  C   UNL     1      50.865   2.748  17.647  0.00  0.00    +0.000 A 
ATOM      6  C   UNL     1      50.128   3.913  17.701  0.00  0.00    +0.000 A 
ATOM      7  N   UNL     1      48.989   4.074  16.992  0.00  0.00    +0.000 NA
ATOM      8  H   UNL     1      47.417   2.465  14.773  0.00  0.00    +0.000 HD
ENDROOT
BRANCH   1   9
ATOM      9  C   UNL     1      47.090   4.514  15.056  0.00  0.00    +0.000 C 
BRANCH   9  13
ATOM     10  C   UNL     1      45.060   4.497  11.332  0.00  0.00    +0.000 A 
ATOM     11  C   UNL     1      45.630   5.636  11.860  0.00  0.00    +0.000 A 
ATOM     12  N   UNL     1      46.302   5.665  13.026  0.00  0.00    +0.000 NA
ATOM     13  C   UNL     1      46.401   4.499  13.700  0.00  0.00    +0.000 A 
ATOM     14  N   UNL     1      45.891   3.325  13.265  0.00  0.00    +0.000 NA
ATOM     15  C   UNL     1      45.241   3.356  12.084  0.00  0.00    +0.000 A 
BRANCH  10  17
ATOM     16  C   UNL     1      45.210   4.356   8.828  0.00  0.00    +0.000 C 
ATOM     17  C   UNL     1      44.303   4.503  10.040  0.00  0.00    +0.000 C 
ENDBRANCH  10  17
ENDBRANCH   9  13
ENDBRANCH   1   9
BRANCH   6  18
ATOM     18  C   UNL     1      50.557   5.064  18.580  0.00  0.00    +0.000 C 
BRANCH  18  19
ATOM     19  N   UNL     1      50.690   4.682  19.989  0.00  0.00    +0.000 NA
ATOM     20  H   UNL     1      50.868   5.532  20.525  0.00  0.00    +0.000 HD
ATOM     21  H   UNL     1      51.530   4.112  20.091  0.00  0.00    +0.000 HD
ENDBRANCH  18  19
ENDBRANCH   6  18
TORSDOF 5
ENDMDL
MODEL 7
REMARK VINA RESULT:    -5.807      2.977      7.325
REMARK INTER + INTRA:          -7.735
REMARK INTER:                  -7.494
REMARK INTRA:                  -0.240
REMARK UNBOUND:                -0.399
REMARK  Name = 
REMARK  6 active torsions:
REMARK  status: ('A' for Active; 'I' for Inactive)
REMARK    1  A    between atoms: C_1  and  C_2
REMARK    2  A    between atoms: C_2  and  C_3
REMARK    3  A    between atoms: C_6  and  C_7
REMARK    4  A    between atoms: C_7  and  N_8
REMARK    5  A    between atoms: C_13  and  C_14
REMARK    6  A    between atoms: C_14  and  N_15
REMARK                            x       y       z     vdW  Elec       q    Type
REMARK                         _______ _______ _______ _____ _____    ______ ____
ROOT
ATOM      1  N   UNL     1      45.392   4.418  14.057  0.00  0.00    +0.000 N 
ATOM      2  C   UNL     1      44.607   4.689  12.951  0.00  0.00    +0.000 A 
ATOM      3  N   UNL     1      43.413   5.234  13.195  0.00  0.00    +0.000 NA
ATOM      4  C   UNL     1      42.618   5.460  12.130  0.00  0.00    +0.000 A 
ATOM      5  C   UNL     1      42.982   5.178  10.838  0.00  0.00    +0.000 A 
ATOM      6  C   UNL     1      44.239   4.636  10.675  0.00  0.00    +0.000 A 
ATOM      7  N   UNL     1      45.055   4.390  11.724  0.00  0.00    +0.000 NA
ATOM      8  H   UNL     1      45.043   4.975  14.829  0.00  0.00    +0.000 HD
ENDROOT
BRANCH   1   9
ATOM      9  C   UNL     1      46.825   4.536  13.820  0.00  0.00    +0.000 C 
BRANCH   9  13
ATOM     10  C   UNL     1      48.914   4.232  17.500  0.00  0.00    +0.000 A 
ATOM     11  C   UNL     1      48.299   3.151  16.905  0.00  0.00    +0.000 A 
ATOM     12  N   UNL     1      47.652   3.212  15.725  0.00  0.00    +0.000 NA
ATOM     13  C   UNL     1      47.612   4.417  15.117  0.00  0.00    +0.000 A 
ATOM     14  N   UNL     1      48.192   5.535  15.607  0.00  0.00    +0.000 NA
ATOM     15  C   UNL     1      48.838   5.408  16.784  0.00  0.00    +0.000 A 
BRANCH  10  17
ATOM     16  C   UNL     1      49.218   5.248  19.777  0.00  0.00    +0.000 C 
ATOM     17  C   UNL     1      49.610   4.133  18.821  0.00  0.00    +0.000 C 
ENDBRANCH  10  17
ENDBRANCH   9  13
ENDBRANCH   1   9
BRANCH   6  18
ATOM     18  C   UNL     1      44.758   4.271   9.304  0.00  0.00    +0.000 C 
BRANCH  18  19
ATOM     19  N   UNL     1      45.681   5.272   8.763  0.00  0.00    +0.000 NA
ATOM     20  H   UNL     1      46.593   4.826   8.651  0.00  0.00    +0.000 HD
ATOM     21  H   UNL     1      45.817   5.999   9.465  0.00  0.00    +0.000 HD
ENDBRANCH  18  19
ENDBRANCH   6  18
TORSDOF 5
ENDMDL
MODEL 8
REMARK VINA RESULT:    -5.685      2.355      5.790
REMARK INTER + INTRA:          -7.579
REMARK INTER:                  -7.222
REMARK INTRA:                  -0.358
REMARK UNBOUND:                -0.399
REMARK  Name = 
REMARK  6 active torsions:
REMARK  status: ('A' for Active; 'I' for Inactive)
REMARK    1  A    between atoms: C_1  and  C_2
REMARK    2  A    between atoms: C_2  and  C_3
REMARK    3  A    between atoms: C_6  and  C_7
REMARK    4  A    between atoms: C_7  and  N_8
REMARK    5  A    between atoms: C_13  and  C_14
REMARK    6  A    between atoms: C_14  and  N_15
REMARK                            x       y       z     vdW  Elec       q    Type
REMARK                         _______ _______ _______ _____ _____    ______ ____
ROOT
ATOM      1  N   UNL     1      45.551   5.852  13.395  0.00  0.00    +0.000 N 
ATOM      2  C   UNL     1      44.919   4.922  12.589  0.00  0.00    +0.000 A 
ATOM      3  N   UNL     1      44.231   3.966  13.219  0.00  0.00    +0.000 NA
ATOM      4  C   UNL     1      43.650   3.026  12.448  0.00  0.00    +0.000 A 
ATOM      5  C   UNL     1      43.718   3.020  11.077  0.00  0.00    +0.000 A 
ATOM      6  C   UNL     1      44.431   4.055  10.509  0.00  0.00    +0.000 A 
ATOM      7  N   UNL     1      45.032   5.006  11.257  0.00  0.00    +0.000 NA
ATOM      8  H   UNL     1      45.113   5.819  14.309  0.00  0.00    +0.000 HD
ENDROOT
BRANCH   1   9
ATOM      9  C   UNL     1      45.644   7.185  12.814  0.00  0.00    +0.000 C 
BRANCH   9  13
ATOM     10  C   UNL     1      49.668   8.221  11.958  0.00  0.00    +0.000 A 
ATOM     11  C   UNL     1      48.620   9.096  11.763  0.00  0.00    +0.000 A 
ATOM     12  N   UNL     1      47.337   8.803  12.051  0.00  0.00    +0.000 NA
ATOM     13  C   UNL     1      47.092   7.573  12.549  0.00  0.00    +0.000 A 
ATOM     14  N   UNL     1      48.046   6.646  12.790  0.00  0.00    +0.000 NA
ATOM     15  C   UNL     1      49.314   7.002  12.496  0.00  0.00    +0.000 A 
BRANCH  10  17
ATOM     16  C   UNL     1      51.685   7.629  10.582  0.00  0.00    +0.000 C 
ATOM     17  C   UNL     1      51.081   8.572  11.611  0.00  0.00    +0.000 C 
ENDBRANCH  10  17
ENDBRANCH   9  13
ENDBRANCH   1   9
BRANCH   6  18
ATOM     18  C   UNL     1      44.590   4.159   9.010  0.00  0.00    +0.000 C 
BRANCH  18  19
ATOM     19  N   UNL     1      45.663   5.078   8.617  0.00  0.00    +0.000 NA
ATOM     20  H   UNL     1      46.238   5.253   9.442  0.00  0.00    +0.000 HD
ATOM     21  H   UNL     1      45.246   5.977   8.378  0.00  0.00    +0.000 HD
ENDBRANCH  18  19
ENDBRANCH   6  18
TORSDOF 5
ENDMDL
MODEL 9
REMARK VINA RESULT:    -5.446      2.078      3.611
REMARK INTER + INTRA:          -7.277
REMARK INTER:                  -6.973
REMARK INTRA:                  -0.304
REMARK UNBOUND:                -0.399
REMARK  Name = 
REMARK  6 active torsions:
REMARK  status: ('A' for Active; 'I' for Inactive)
REMARK    1  A    between atoms: C_1  and  C_2
REMARK    2  A    between atoms: C_2  and  C_3
REMARK    3  A    between atoms: C_6  and  C_7
REMARK    4  A    between atoms: C_7  and  N_8
REMARK    5  A    between atoms: C_13  and  C_14
REMARK    6  A    between atoms: C_14  and  N_15
REMARK                            x       y       z     vdW  Elec       q    Type
REMARK                         _______ _______ _______ _____ _____    ______ ____
ROOT
ATOM      1  N   UNL     1      44.426   7.520  11.804  0.00  0.00    +0.000 N 
ATOM      2  C   UNL     1      45.567   8.290  11.941  0.00  0.00    +0.000 A 
ATOM      3  N   UNL     1      45.390   9.614  11.939  0.00  0.00    +0.000 NA
ATOM      4  C   UNL     1      46.497  10.376  12.024  0.00  0.00    +0.000 A 
ATOM      5  C   UNL     1      47.766   9.864  12.129  0.00  0.00    +0.000 A 
ATOM      6  C   UNL     1      47.855   8.487  12.145  0.00  0.00    +0.000 A 
ATOM      7  N   UNL     1      46.764   7.697  12.052  0.00  0.00    +0.000 NA
ATOM      8  H   UNL     1      43.630   8.101  12.043  0.00  0.00    +0.000 HD
ENDROOT
BRANCH   1   9
ATOM      9  C   UNL     1      44.477   6.241  12.499  0.00  0.00    +0.000 C 
BRANCH   9  13
ATOM     10  C   UNL     1      44.589   2.967   9.803  0.00  0.00    +0.000 A 
ATOM     11  C   UNL     1      44.093   2.855  11.085  0.00  0.00    +0.000 A 
ATOM     12  N   UNL     1      44.021   3.883  11.952  0.00  0.00    +0.000 NA
ATOM     13  C   UNL     1      44.476   5.078  11.518  0.00  0.00    +0.000 A 
ATOM     14  N   UNL     1      44.969   5.298  10.279  0.00  0.00    +0.000 NA
ATOM     15  C   UNL     1      45.002   4.234   9.450  0.00  0.00    +0.000 A 
BRANCH  10  17
ATOM     16  C   UNL     1      46.073   1.583   8.322  0.00  0.00    +0.000 C 
ATOM     17  C   UNL     1      44.671   1.800   8.869  0.00  0.00    +0.000 C 
ENDBRANCH  10  17
ENDBRANCH   9  13
ENDBRANCH   1   9
BRANCH   6  18
ATOM     18  C   UNL     1      49.195   7.796  12.248  0.00  0.00    +0.000 C 
BRANCH  18  19
ATOM     19  N   UNL     1      49.113   6.503  12.933  0.00  0.00    +0.000 NA
ATOM     20  H   UNL     1      48.296   6.527  13.545  0.00  0.00    +0.000 HD
ATOM     21  H   UNL     1      49.918   6.414  13.553  0.00  0.00    +0.000 HD
ENDBRANCH  18  19
ENDBRANCH   6  18
TORSDOF 5
ENDMDL
