MODEL 1
REMARK VINA RESULT:    -7.362      0.000      0.000
REMARK INTER + INTRA:          -9.920
REMARK INTER:                  -9.299
REMARK INTRA:                  -0.621
REMARK UNBOUND:                -0.621
REMARK  Name = 
REMARK  8 active torsions:
REMARK  status: ('A' for Active; 'I' for Inactive)
REMARK    1  A    between atoms: C_1  and  C_2
REMARK    2  A    between atoms: C_2  and  C_3
REMARK    3  A    between atoms: C_2  and  C_4
REMARK    4  A    between atoms: C_2  and  C_5
REMARK    5  A    between atoms: C_8  and  C_9
REMARK    6  A    between atoms: C_9  and  N_10
REMARK    7  A    between atoms: C_15  and  C_16
REMARK    8  A    between atoms: C_16  and  O_18
REMARK                            x       y       z     vdW  Elec       q    Type
REMARK                         _______ _______ _______ _____ _____    ______ ____
ROOT
ATOM      1  N   UNL     1      44.299   4.285  10.535  0.00  0.00    +0.000 N 
ATOM      2  C   UNL     1      43.686   3.115  10.923  0.00  0.00    +0.000 A 
ATOM      3  C   UNL     1      44.165   2.099  10.132  0.00  0.00    +0.000 A 
ATOM      4  C   UNL     1      45.078   2.668   9.206  0.00  0.00    +0.000 A 
ATOM      5  C   UNL     1      45.820   2.137   8.133  0.00  0.00    +0.000 A 
ATOM      6  C   UNL     1      46.623   2.984   7.356  0.00  0.00    +0.000 A 
ATOM      7  C   UNL     1      46.697   4.349   7.652  0.00  0.00    +0.000 A 
ATOM      8  C   UNL     1      45.983   4.893   8.729  0.00  0.00    +0.000 A 
ATOM      9  C   UNL     1      45.163   4.035   9.483  0.00  0.00    +0.000 A 
ENDROOT
BRANCH   6  10
ATOM     10  C   UNL     1      47.315   2.378   6.186  0.00  0.00    +0.000 C 
ATOM     11  O   UNL     1      47.965   1.350   6.262  0.00  0.00    +0.000 OA
BRANCH  10  12
ATOM     12  O   UNL     1      47.190   3.082   5.041  0.00  0.00    +0.000 OA
ATOM     13  H   UNL     1      46.885   3.999   5.151  0.00  0.00    +0.000 HD
ENDBRANCH  10  12
ENDBRANCH   6  10
BRANCH   1  14
ATOM     14  C   UNL     1      43.915   5.601  11.033  0.00  0.00    +0.000 C 
BRANCH  14  18
ATOM     15  C   UNL     1      47.201   7.329  13.180  0.00  0.00    +0.000 A 
ATOM     16  C   UNL     1      46.372   8.151  12.404  0.00  0.00    +0.000 A 
ATOM     17  C   UNL     1      45.260   7.626  11.743  0.00  0.00    +0.000 A 
ATOM     18  C   UNL     1      44.977   6.270  11.866  0.00  0.00    +0.000 A 
ATOM     19  N   UNL     1      45.734   5.455  12.641  0.00  0.00    +0.000 NA
ATOM     20  C   UNL     1      46.804   5.997  13.274  0.00  0.00    +0.000 A 
BRANCH  15  22
ATOM     21  C   UNL     1      48.274   9.349  14.243  0.00  0.00    +0.000 C 
ATOM     22  C   UNL     1      48.472   7.875  13.839  0.00  0.00    +0.000 C 
ATOM     23  C   UNL     1      49.650   7.776  12.843  0.00  0.00    +0.000 C 
ATOM     24  C   UNL     1      48.887   7.100  15.111  0.00  0.00    +0.000 C 
ENDBRANCH  15  22
ENDBRANCH  14  18
ENDBRANCH   1  14
TORSDOF 5
ENDMDL
MODEL 2
REMARK VINA RESULT:    -7.262      3.232      6.936
REMARK INTER + INTRA:          -9.794
REMARK INTER:                  -9.112
REMARK INTRA:                  -0.682
REMARK UNBOUND:                -0.621
REMARK  Name = 
REMARK  8 active torsions:
REMARK  status: ('A' for Active; 'I' for Inactive)
REMARK    1  A    between atoms: C_1  and  C_2
REMARK    2  A    between atoms: C_2  and  C_3
REMARK    3  A    between atoms: C_2  and  C_4
REMARK    4  A    between atoms: C_2  and  C_5
REMARK    5  A    between atoms: C_8  and  C_9
REMARK    6  A    between atoms: C_9  and  N_10
REMARK    7  A    between atoms: C_15  and  C_16
REMARK    8  A    between atoms: C_16  and  O_18
REMARK                            x       y       z     vdW  Elec       q    Type
REMARK                         _______ _______ _______ _____ _____    ______ ____
ROOT
ATOM      1  N   UNL     1      44.967   5.189  12.047  0.00  0.00    +0.000 N 
ATOM      2  C   UNL     1      44.835   4.322  13.106  0.00  0.00    +0.000 A 
ATOM      3  C   UNL     1      45.889   4.528  13.962  0.00  0.00    +0.000 A 
ATOM      4  C   UNL     1      46.716   5.533  13.394  0.00  0.00    +0.000 A 
ATOM      5  C   UNL     1      47.944   6.104  13.780  0.00  0.00    +0.000 A 
ATOM      6  C   UNL     1      48.548   7.072  12.964  0.00  0.00    +0.000 A 
ATOM      7  C   UNL     1      47.928   7.477  11.777  0.00  0.00    +0.000 A 
ATOM      8  C   UNL     1      46.695   6.934  11.386  0.00  0.00    +0.000 A 
ATOM      9  C   UNL     1      46.115   5.948  12.202  0.00  0.00    +0.000 A 
ENDROOT
BRANCH   6  10
ATOM     10  C   UNL     1      49.884   7.575  13.384  0.00  0.00    +0.000 C 
ATOM     11  O   UNL     1      50.524   8.377  12.726  0.00  0.00    +0.000 OA
BRANCH  10  12
ATOM     12  O   UNL     1      50.341   7.044  14.537  0.00  0.00    +0.000 OA
ATOM     13  H   UNL     1      51.266   6.741  14.515  0.00  0.00    +0.000 HD
ENDBRANCH  10  12
ENDBRANCH   6  10
BRANCH   1  14
ATOM     14  C   UNL     1      44.128   5.143  10.854  0.00  0.00    +0.000 C 
BRANCH  14  18
ATOM     15  C   UNL     1      46.093   2.816   7.835  0.00  0.00    +0.000 A 
ATOM     16  C   UNL     1      45.310   2.173   8.805  0.00  0.00    +0.000 A 
ATOM     17  C   UNL     1      44.611   2.909   9.763  0.00  0.00    +0.000 A 
ATOM     18  C   UNL     1      44.695   4.298   9.744  0.00  0.00    +0.000 A 
ATOM     19  N   UNL     1      45.409   4.952   8.796  0.00  0.00    +0.000 NA
ATOM     20  C   UNL     1      46.073   4.208   7.877  0.00  0.00    +0.000 A 
BRANCH  15  22
ATOM     21  C   UNL     1      46.945   0.525   7.215  0.00  0.00    +0.000 C 
ATOM     22  C   UNL     1      46.934   2.018   6.833  0.00  0.00    +0.000 C 
ATOM     23  C   UNL     1      48.384   2.553   6.839  0.00  0.00    +0.000 C 
ATOM     24  C   UNL     1      46.418   2.119   5.379  0.00  0.00    +0.000 C 
ENDBRANCH  15  22
ENDBRANCH  14  18
ENDBRANCH   1  14
TORSDOF 5
ENDMDL
MODEL 3
REMARK VINA RESULT:    -6.285      3.439      7.296
REMARK INTER + INTRA:          -8.560
REMARK INTER:                  -8.047
REMARK INTRA:                  -0.514
REMARK UNBOUND:                -0.621
REMARK  Name = 
REMARK  8 active torsions:
REMARK  status: ('A' for Active; 'I' for Inactive)
REMARK    1  A    between atoms: C_1  and  C_2
REMARK    2  A    between atoms: C_2  and  C_3
REMARK    3  A    between atoms: C_2  and  C_4
REMARK    4  A    between atoms: C_2  and  C_5
REMARK    5  A    between atoms: C_8  and  C_9
REMARK    6  A    between atoms: C_9  and  N_10
REMARK    7  A    between atoms: C_15  and  C_16
REMARK    8  A    between atoms: C_16  and  O_18
REMARK                            x       y       z     vdW  Elec       q    Type
REMARK                         _______ _______ _______ _____ _____    ______ ____
ROOT
ATOM      1  N   UNL     1      44.728   6.529  11.422  0.00  0.00    +0.000 N 
ATOM      2  C   UNL     1      44.180   7.790  11.363  0.00  0.00    +0.000 A 
ATOM      3  C   UNL     1      44.970   8.635  12.103  0.00  0.00    +0.000 A 
ATOM      4  C   UNL     1      46.021   7.863  12.664  0.00  0.00    +0.000 A 
ATOM      5  C   UNL     1      47.079   8.168  13.542  0.00  0.00    +0.000 A 
ATOM      6  C   UNL     1      47.952   7.152  13.957  0.00  0.00    +0.000 A 
ATOM      7  C   UNL     1      47.781   5.843  13.493  0.00  0.00    +0.000 A 
ATOM      8  C   UNL     1      46.746   5.525  12.601  0.00  0.00    +0.000 A 
ATOM      9  C   UNL     1      45.865   6.549  12.214  0.00  0.00    +0.000 A 
ENDROOT
BRANCH   6  10
ATOM     10  C   UNL     1      48.997   7.519  14.951  0.00  0.00    +0.000 C 
ATOM     11  O   UNL     1      48.804   8.322  15.846  0.00  0.00    +0.000 OA
BRANCH  10  12
ATOM     12  O   UNL     1      50.187   6.912  14.756  0.00  0.00    +0.000 OA
ATOM     13  H   UNL     1      50.926   7.274  15.277  0.00  0.00    +0.000 HD
ENDBRANCH  10  12
ENDBRANCH   6  10
BRANCH   1  14
ATOM     14  C   UNL     1      44.072   5.337  10.898  0.00  0.00    +0.000 C 
BRANCH  14  18
ATOM     15  C   UNL     1      46.199   2.927   8.060  0.00  0.00    +0.000 A 
ATOM     16  C   UNL     1      46.332   4.322   8.021  0.00  0.00    +0.000 A 
ATOM     17  C   UNL     1      45.699   5.127   8.969  0.00  0.00    +0.000 A 
ATOM     18  C   UNL     1      44.933   4.528   9.964  0.00  0.00    +0.000 A 
ATOM     19  N   UNL     1      44.818   3.181  10.055  0.00  0.00    +0.000 NA
ATOM     20  C   UNL     1      45.448   2.427   9.121  0.00  0.00    +0.000 A 
BRANCH  15  22
ATOM     21  C   UNL     1      46.742   0.556   7.395  0.00  0.00    +0.000 C 
ATOM     22  C   UNL     1      46.816   2.038   6.976  0.00  0.00    +0.000 C 
ATOM     23  C   UNL     1      48.296   2.432   6.767  0.00  0.00    +0.000 C 
ATOM     24  C   UNL     1      46.115   2.164   5.604  0.00  0.00    +0.000 C 
ENDBRANCH  15  22
ENDBRANCH  14  18
ENDBRANCH   1  14
TORSDOF 5
ENDMDL
MODEL 4
REMARK VINA RESULT:    -6.081      3.654      5.955
REMARK INTER + INTRA:          -8.302
REMARK INTER:                  -7.619
REMARK INTRA:                  -0.684
REMARK UNBOUND:                -0.621
REMARK  Name = 
REMARK  8 active torsions:
REMARK  status: ('A' for Active; 'I' for Inactive)
REMARK    1  A    between atoms: C_1  and  C_2
REMARK    2  A    between atoms: C_2  and  C_3
REMARK    3  A    between atoms: C_2  and  C_4
REMARK    4  A    between atoms: C_2  and  C_5
REMARK    5  A    between atoms: C_8  and  C_9
REMARK    6  A    between atoms: C_9  and  N_10
REMARK    7  A    between atoms: C_15  and  C_16
REMARK    8  A    between atoms: C_16  and  O_18
REMARK                            x       y       z     vdW  Elec       q    Type
REMARK                         _______ _______ _______ _____ _____    ______ ____
ROOT
ATOM      1  N   UNL     1      47.381   7.019  13.628  0.00  0.00    +0.000 N 
ATOM      2  C   UNL     1      46.746   8.147  13.161  0.00  0.00    +0.000 A 
ATOM      3  C   UNL     1      45.577   7.759  12.552  0.00  0.00    +0.000 A 
ATOM      4  C   UNL     1      45.507   6.342  12.618  0.00  0.00    +0.000 A 
ATOM      5  C   UNL     1      44.588   5.399  12.120  0.00  0.00    +0.000 A 
ATOM      6  C   UNL     1      44.822   4.030  12.317  0.00  0.00    +0.000 A 
ATOM      7  C   UNL     1      45.957   3.603  13.015  0.00  0.00    +0.000 A 
ATOM      8  C   UNL     1      46.873   4.529  13.537  0.00  0.00    +0.000 A 
ATOM      9  C   UNL     1      46.637   5.896  13.309  0.00  0.00    +0.000 A 
ENDROOT
BRANCH   6  10
ATOM     10  C   UNL     1      43.860   3.080  11.694  0.00  0.00    +0.000 C 
ATOM     11  O   UNL     1      43.446   3.211  10.556  0.00  0.00    +0.000 OA
BRANCH  10  12
ATOM     12  O   UNL     1      43.461   2.080  12.508  0.00  0.00    +0.000 OA
ATOM     13  H   UNL     1      43.434   1.199  12.097  0.00  0.00    +0.000 HD
ENDBRANCH  10  12
ENDBRANCH   6  10
BRANCH   1  14
ATOM     14  C   UNL     1      48.732   7.022  14.179  0.00  0.00    +0.000 C 
BRANCH  14  18
ATOM     15  C   UNL     1      48.492   7.262  18.454  0.00  0.00    +0.000 A 
ATOM     16  C   UNL     1      48.566   6.007  17.834  0.00  0.00    +0.000 A 
ATOM     17  C   UNL     1      48.705   5.900  16.449  0.00  0.00    +0.000 A 
ATOM     18  C   UNL     1      48.775   7.060  15.684  0.00  0.00    +0.000 A 
ATOM     19  N   UNL     1      48.748   8.289  16.255  0.00  0.00    +0.000 NA
ATOM     20  C   UNL     1      48.616   8.358  17.603  0.00  0.00    +0.000 A 
BRANCH  15  22
ATOM     21  C   UNL     1      47.461   8.681  20.265  0.00  0.00    +0.000 C 
ATOM     22  C   UNL     1      48.251   7.393  19.961  0.00  0.00    +0.000 C 
ATOM     23  C   UNL     1      49.610   7.447  20.696  0.00  0.00    +0.000 C 
ATOM     24  C   UNL     1      47.457   6.211  20.563  0.00  0.00    +0.000 C 
ENDBRANCH  15  22
ENDBRANCH  14  18
ENDBRANCH   1  14
TORSDOF 5
ENDMDL
MODEL 5
REMARK VINA RESULT:    -5.998      3.126      5.036
REMARK INTER + INTRA:          -8.197
REMARK INTER:                  -7.549
REMARK INTRA:                  -0.648
REMARK UNBOUND:                -0.621
REMARK  Name = 
REMARK  8 active torsions:
REMARK  status: ('A' for Active; 'I' for Inactive)
REMARK    1  A    between atoms: C_1  and  C_2
REMARK    2  A    between atoms: C_2  and  C_3
REMARK    3  A    between atoms: C_2  and  C_4
REMARK    4  A    between atoms: C_2  and  C_5
REMARK    5  A    between atoms: C_8  and  C_9
REMARK    6  A    between atoms: C_9  and  N_10
REMARK    7  A    between atoms: C_15  and  C_16
REMARK    8  A    between atoms: C_16  and  O_18
REMARK                            x       y       z     vdW  Elec       q    Type
REMARK                         _______ _______ _______ _____ _____    ______ ____
ROOT
ATOM      1  N   UNL     1      47.297   6.327  13.609  0.00  0.00    +0.000 N 
ATOM      2  C   UNL     1      47.595   5.513  14.678  0.00  0.00    +0.000 A 
ATOM      3  C   UNL     1      46.994   4.296  14.470  0.00  0.00    +0.000 A 
ATOM      4  C   UNL     1      46.275   4.373  13.248  0.00  0.00    +0.000 A 
ATOM      5  C   UNL     1      45.434   3.474  12.565  0.00  0.00    +0.000 A 
ATOM      6  C   UNL     1      44.820   3.868  11.368  0.00  0.00    +0.000 A 
ATOM      7  C   UNL     1      45.050   5.146  10.847  0.00  0.00    +0.000 A 
ATOM      8  C   UNL     1      45.901   6.049  11.502  0.00  0.00    +0.000 A 
ATOM      9  C   UNL     1      46.489   5.647  12.713  0.00  0.00    +0.000 A 
ENDROOT
BRANCH   6  10
ATOM     10  C   UNL     1      43.877   2.904  10.738  0.00  0.00    +0.000 C 
ATOM     11  O   UNL     1      43.976   2.545   9.578  0.00  0.00    +0.000 OA
BRANCH  10  12
ATOM     12  O   UNL     1      42.885   2.486  11.552  0.00  0.00    +0.000 OA
ATOM     13  H   UNL     1      42.553   1.589  11.371  0.00  0.00    +0.000 HD
ENDBRANCH  10  12
ENDBRANCH   6  10
BRANCH   1  14
ATOM     14  C   UNL     1      47.620   7.748  13.561  0.00  0.00    +0.000 C 
BRANCH  14  18
ATOM     15  C   UNL     1      51.576   8.311  12.004  0.00  0.00    +0.000 A 
ATOM     16  C   UNL     1      50.562   7.834  11.162  0.00  0.00    +0.000 A 
ATOM     17  C   UNL     1      49.252   7.698  11.625  0.00  0.00    +0.000 A 
ATOM     18  C   UNL     1      48.959   8.048  12.940  0.00  0.00    +0.000 A 
ATOM     19  N   UNL     1      49.907   8.551  13.768  0.00  0.00    +0.000 NA
ATOM     20  C   UNL     1      51.168   8.674  13.286  0.00  0.00    +0.000 A 
BRANCH  15  22
ATOM     21  C   UNL     1      53.361   9.800  11.026  0.00  0.00    +0.000 C 
ATOM     22  C   UNL     1      53.033   8.382  11.535  0.00  0.00    +0.000 C 
ATOM     23  C   UNL     1      53.255   7.369  10.390  0.00  0.00    +0.000 C 
ATOM     24  C   UNL     1      54.054   8.043  12.645  0.00  0.00    +0.000 C 
ENDBRANCH  15  22
ENDBRANCH  14  18
ENDBRANCH   1  14
TORSDOF 5
ENDMDL
MODEL 6
REMARK VINA RESULT:    -5.859      3.021      5.106
REMARK INTER + INTRA:          -8.022
REMARK INTER:                  -7.392
REMARK INTRA:                  -0.630
REMARK UNBOUND:                -0.621
REMARK  Name = 
REMARK  8 active torsions:
REMARK  status: ('A' for Active; 'I' for Inactive)
REMARK    1  A    between atoms: C_1  and  C_2
REMARK    2  A    between atoms: C_2  and  C_3
REMARK    3  A    between atoms: C_2  and  C_4
REMARK    4  A    between atoms: C_2  and  C_5
REMARK    5  A    between atoms: C_8  and  C_9
REMARK    6  A    between atoms: C_9  and  N_10
REMARK    7  A    between atoms: C_15  and  C_16
REMARK    8  A    between atoms: C_16  and  O_18
REMARK                            x       y       z     vdW  Elec       q    Type
REMARK                         _______ _______ _______ _____ _____    ______ ____
ROOT
ATOM      1  N   UNL     1      46.142   7.651  12.916  0.00  0.00    +0.000 N 
ATOM      2  C   UNL     1      45.451   8.582  12.174  0.00  0.00    +0.000 A 
ATOM      3  C   UNL     1      44.526   7.916  11.407  0.00  0.00    +0.000 A 
ATOM      4  C   UNL     1      44.675   6.527  11.660  0.00  0.00    +0.000 A 
ATOM      5  C   UNL     1      44.058   5.378  11.129  0.00  0.00    +0.000 A 
ATOM      6  C   UNL     1      44.462   4.108  11.563  0.00  0.00    +0.000 A 
ATOM      7  C   UNL     1      45.468   3.981  12.527  0.00  0.00    +0.000 A 
ATOM      8  C   UNL     1      46.080   5.114  13.083  0.00  0.00    +0.000 A 
ATOM      9  C   UNL     1      45.681   6.379  12.620  0.00  0.00    +0.000 A 
ENDROOT
BRANCH   6  10
ATOM     10  C   UNL     1      43.831   2.932  10.904  0.00  0.00    +0.000 C 
ATOM     11  O   UNL     1      44.043   2.634   9.741  0.00  0.00    +0.000 OA
BRANCH  10  12
ATOM     12  O   UNL     1      42.980   2.243  11.692  0.00  0.00    +0.000 OA
ATOM     13  H   UNL     1      43.324   2.019  12.575  0.00  0.00    +0.000 HD
ENDBRANCH  10  12
ENDBRANCH   6  10
BRANCH   1  14
ATOM     14  C   UNL     1      47.317   7.969  13.719  0.00  0.00    +0.000 C 
BRANCH  14  18
ATOM     15  C   UNL     1      51.030   8.668  11.690  0.00  0.00    +0.000 A 
ATOM     16  C   UNL     1      50.139   7.707  11.192  0.00  0.00    +0.000 A 
ATOM     17  C   UNL     1      48.898   7.501  11.797  0.00  0.00    +0.000 A 
ATOM     18  C   UNL     1      48.548   8.266  12.904  0.00  0.00    +0.000 A 
ATOM     19  N   UNL     1      49.369   9.231  13.387  0.00  0.00    +0.000 NA
ATOM     20  C   UNL     1      50.566   9.410  12.774  0.00  0.00    +0.000 A 
BRANCH  15  22
ATOM     21  C   UNL     1      52.392   9.868   9.940  0.00  0.00    +0.000 C 
ATOM     22  C   UNL     1      52.429   8.844  11.091  0.00  0.00    +0.000 C 
ATOM     23  C   UNL     1      52.929   7.486  10.545  0.00  0.00    +0.000 C 
ATOM     24  C   UNL     1      53.479   9.337  12.113  0.00  0.00    +0.000 C 
ENDBRANCH  15  22
ENDBRANCH  14  18
ENDBRANCH   1  14
TORSDOF 5
ENDMDL
MODEL 7
REMARK VINA RESULT:    -5.497      5.116      9.011
REMARK INTER + INTRA:          -7.564
REMARK INTER:                  -6.985
REMARK INTRA:                  -0.579
REMARK UNBOUND:                -0.621
REMARK  Name = 
REMARK  8 active torsions:
REMARK  status: ('A' for Active; 'I' for Inactive)
REMARK    1  A    between atoms: C_1  and  C_2
REMARK    2  A    between atoms: C_2  and  C_3
REMARK    3  A    between atoms: C_2  and  C_4
REMARK    4  A    between atoms: C_2  and  C_5
REMARK    5  A    between atoms: C_8  and  C_9
REMARK    6  A    between atoms: C_9  and  N_10
REMARK    7  A    between atoms: C_15  and  C_16
REMARK    8  A    between atoms: C_16  and  O_18
REMARK                            x       y       z     vdW  Elec       q    Type
REMARK                         _______ _______ _______ _____ _____    ______ ____
ROOT
ATOM      1  N   UNL     1      48.726   7.353  15.000  0.00  0.00    +0.000 N 
ATOM      2  C   UNL     1      48.452   8.694  15.142  0.00  0.00    +0.000 A 
ATOM      3  C   UNL     1      48.315   8.963  16.482  0.00  0.00    +0.000 A 
ATOM      4  C   UNL     1      48.477   7.741  17.186  0.00  0.00    +0.000 A 
ATOM      5  C   UNL     1      48.386   7.392  18.547  0.00  0.00    +0.000 A 
ATOM      6  C   UNL     1      48.561   6.056  18.937  0.00  0.00    +0.000 A 
ATOM      7  C   UNL     1      48.838   5.075  17.979  0.00  0.00    +0.000 A 
ATOM      8  C   UNL     1      48.954   5.406  16.621  0.00  0.00    +0.000 A 
ATOM      9  C   UNL     1      48.751   6.745  16.244  0.00  0.00    +0.000 A 
ENDROOT
BRANCH   6  10
ATOM     10  C   UNL     1      48.369   5.738  20.378  0.00  0.00    +0.000 C 
ATOM     11  O   UNL     1      49.295   5.489  21.129  0.00  0.00    +0.000 OA
BRANCH  10  12
ATOM     12  O   UNL     1      47.079   5.716  20.774  0.00  0.00    +0.000 OA
ATOM     13  H   UNL     1      46.682   6.589  20.939  0.00  0.00    +0.000 HD
ENDBRANCH  10  12
ENDBRANCH   6  10
BRANCH   1  14
ATOM     14  C   UNL     1      48.766   6.669  13.713  0.00  0.00    +0.000 C 
BRANCH  14  18
ATOM     15  C   UNL     1      45.119   5.127  12.066  0.00  0.00    +0.000 A 
ATOM     16  C   UNL     1      45.602   4.615  13.278  0.00  0.00    +0.000 A 
ATOM     17  C   UNL     1      46.753   5.139  13.868  0.00  0.00    +0.000 A 
ATOM     18  C   UNL     1      47.421   6.185  13.239  0.00  0.00    +0.000 A 
ATOM     19  N   UNL     1      46.958   6.731  12.087  0.00  0.00    +0.000 NA
ATOM     20  C   UNL     1      45.835   6.202  11.542  0.00  0.00    +0.000 A 
BRANCH  15  22
ATOM     21  C   UNL     1      42.666   5.399  11.548  0.00  0.00    +0.000 C 
ATOM     22  C   UNL     1      43.908   4.504  11.364  0.00  0.00    +0.000 C 
ATOM     23  C   UNL     1      43.623   3.111  11.970  0.00  0.00    +0.000 C 
ATOM     24  C   UNL     1      44.112   4.306   9.844  0.00  0.00    +0.000 C 
ENDBRANCH  15  22
ENDBRANCH  14  18
ENDBRANCH   1  14
TORSDOF 5
ENDMDL
MODEL 8
REMARK VINA RESULT:    -5.254      3.371      5.655
REMARK INTER + INTRA:          -7.258
REMARK INTER:                  -6.572
REMARK INTRA:                  -0.686
REMARK UNBOUND:                -0.621
REMARK  Name = 
REMARK  8 active torsions:
REMARK  status: ('A' for Active; 'I' for Inactive)
REMARK    1  A    between atoms: C_1  and  C_2
REMARK    2  A    between atoms: C_2  and  C_3
REMARK    3  A    between atoms: C_2  and  C_4
REMARK    4  A    between atoms: C_2  and  C_5
REMARK    5  A    between atoms: C_8  and  C_9
REMARK    6  A    between atoms: C_9  and  N_10
REMARK    7  A    between atoms: C_15  and  C_16
REMARK    8  A    between atoms: C_16  and  O_18
REMARK                            x       y       z     vdW  Elec       q    Type
REMARK                         _______ _______ _______ _____ _____    ______ ____
ROOT
ATOM      1  N   UNL     1      47.603   7.630  13.133  0.00  0.00    +0.000 N 
ATOM      2  C   UNL     1      48.523   7.768  12.120  0.00  0.00    +0.000 A 
ATOM      3  C   UNL     1      48.026   7.145  11.002  0.00  0.00    +0.000 A 
ATOM      4  C   UNL     1      46.771   6.576  11.347  0.00  0.00    +0.000 A 
ATOM      5  C   UNL     1      45.846   5.783  10.642  0.00  0.00    +0.000 A 
ATOM      6  C   UNL     1      44.686   5.328  11.288  0.00  0.00    +0.000 A 
ATOM      7  C   UNL     1      44.445   5.669  12.623  0.00  0.00    +0.000 A 
ATOM      8  C   UNL     1      45.345   6.475  13.335  0.00  0.00    +0.000 A 
ATOM      9  C   UNL     1      46.514   6.903  12.682  0.00  0.00    +0.000 A 
ENDROOT
BRANCH   6  10
ATOM     10  C   UNL     1      43.790   4.425  10.516  0.00  0.00    +0.000 C 
ATOM     11  O   UNL     1      43.223   3.471  11.018  0.00  0.00    +0.000 OA
BRANCH  10  12
ATOM     12  O   UNL     1      43.684   4.734   9.206  0.00  0.00    +0.000 OA
ATOM     13  H   UNL     1      44.333   5.381   8.880  0.00  0.00    +0.000 HD
ENDBRANCH  10  12
ENDBRANCH   6  10
BRANCH   1  14
ATOM     14  C   UNL     1      47.859   8.014  14.517  0.00  0.00    +0.000 C 
BRANCH  14  18
ATOM     15  C   UNL     1      50.337   5.493  16.944  0.00  0.00    +0.000 A 
ATOM     16  C   UNL     1      48.998   5.141  16.721  0.00  0.00    +0.000 A 
ATOM     17  C   UNL     1      48.186   5.910  15.887  0.00  0.00    +0.000 A 
ATOM     18  C   UNL     1      48.721   7.036  15.270  0.00  0.00    +0.000 A 
ATOM     19  N   UNL     1      50.022   7.381  15.432  0.00  0.00    +0.000 NA
ATOM     20  C   UNL     1      50.786   6.611  16.245  0.00  0.00    +0.000 A 
BRANCH  15  22
ATOM     21  C   UNL     1      50.776   4.989  19.376  0.00  0.00    +0.000 C 
ATOM     22  C   UNL     1      51.214   4.708  17.925  0.00  0.00    +0.000 C 
ATOM     23  C   UNL     1      52.690   5.135  17.749  0.00  0.00    +0.000 C 
ATOM     24  C   UNL     1      51.156   3.178  17.714  0.00  0.00    +0.000 C 
ENDBRANCH  15  22
ENDBRANCH  14  18
ENDBRANCH   1  14
TORSDOF 5
ENDMDL
MODEL 9
REMARK VINA RESULT:    -5.097      3.639      5.716
REMARK INTER + INTRA:          -7.059
REMARK INTER:                  -6.685
REMARK INTRA:                  -0.374
REMARK UNBOUND:                -0.621
REMARK  Name = 
REMARK  8 active torsions:
REMARK  status: ('A' for Active; 'I' for Inactive)
REMARK    1  A    between atoms: C_1  and  C_2
REMARK    2  A    between atoms: C_2  and  C_3
REMARK    3  A    between atoms: C_2  and  C_4
REMARK    4  A    between atoms: C_2  and  C_5
REMARK    5  A    between atoms: C_8  and  C_9
REMARK    6  A    between atoms: C_9  and  N_10
REMARK    7  A    between atoms: C_15  and  C_16
REMARK    8  A    between atoms: C_16  and  O_18
REMARK                            x       y       z     vdW  Elec       q    Type
REMARK                         _______ _______ _______ _____ _____    ______ ____
ROOT
ATOM      1  N   UNL     1      47.734   5.927  14.218  0.00  0.00    +0.000 N 
ATOM      2  C   UNL     1      47.546   4.976  15.194  0.00  0.00    +0.000 A 
ATOM      3  C   UNL     1      46.634   4.060  14.729  0.00  0.00    +0.000 A 
ATOM      4  C   UNL     1      46.222   4.480  13.437  0.00  0.00    +0.000 A 
ATOM      5  C   UNL     1      45.279   3.983  12.517  0.00  0.00    +0.000 A 
ATOM      6  C   UNL     1      45.062   4.661  11.309  0.00  0.00    +0.000 A 
ATOM      7  C   UNL     1      45.786   5.821  11.013  0.00  0.00    +0.000 A 
ATOM      8  C   UNL     1      46.744   6.320  11.908  0.00  0.00    +0.000 A 
ATOM      9  C   UNL     1      46.933   5.642  13.125  0.00  0.00    +0.000 A 
ENDROOT
BRANCH   6  10
ATOM     10  C   UNL     1      43.994   4.135  10.417  0.00  0.00    +0.000 C 
ATOM     11  O   UNL     1      43.661   2.962  10.405  0.00  0.00    +0.000 OA
BRANCH  10  12
ATOM     12  O   UNL     1      43.448   5.058   9.597  0.00  0.00    +0.000 OA
ATOM     13  H   UNL     1      42.696   4.745   9.065  0.00  0.00    +0.000 HD
ENDBRANCH  10  12
ENDBRANCH   6  10
BRANCH   1  14
ATOM     14  C   UNL     1      48.502   7.151  14.419  0.00  0.00    +0.000 C 
BRANCH  14  18
ATOM     15  C   UNL     1      50.888   7.501  17.965  0.00  0.00    +0.000 A 
ATOM     16  C   UNL     1      49.606   8.067  17.934  0.00  0.00    +0.000 A 
ATOM     17  C   UNL     1      48.784   7.917  16.816  0.00  0.00    +0.000 A 
ATOM     18  C   UNL     1      49.251   7.191  15.725  0.00  0.00    +0.000 A 
ATOM     19  N   UNL     1      50.468   6.596  15.738  0.00  0.00    +0.000 NA
ATOM     20  C   UNL     1      51.241   6.757  16.842  0.00  0.00    +0.000 A 
BRANCH  15  22
ATOM     21  C   UNL     1      53.255   7.255  18.798  0.00  0.00    +0.000 C 
ATOM     22  C   UNL     1      51.832   7.732  19.150  0.00  0.00    +0.000 C 
ATOM     23  C   UNL     1      51.322   6.940  20.376  0.00  0.00    +0.000 C 
ATOM     24  C   UNL     1      51.934   9.214  19.576  0.00  0.00    +0.000 C 
ENDBRANCH  15  22
ENDBRANCH  14  18
ENDBRANCH   1  14
TORSDOF 5
ENDMDL
