MODEL 1
REMARK VINA RESULT:    -8.512      0.000      0.000
REMARK INTER + INTRA:         -12.588
REMARK INTER:                 -11.497
REMARK INTRA:                  -1.090
REMARK UNBOUND:                -1.090
REMARK  Name = 
REMARK  7 active torsions:
REMARK  status: ('A' for Active; 'I' for Inactive)
REMARK    1  A    between atoms: C_1  and  S_2
REMARK    2  A    between atoms: S_2  and  C_5
REMARK    3  A    between atoms: C_8  and  N_9
REMARK    4  A    between atoms: N_9  and  C_10
REMARK    5  A    between atoms: C_10  and  C_11
REMARK    6  A    between atoms: C_15  and  C_16
REMARK    7  A    between atoms: C_20  and  C_21
REMARK                            x       y       z     vdW  Elec       q    Type
REMARK                         _______ _______ _______ _____ _____    ______ ____
ROOT
ATOM      1  C   UNL     1      45.344   5.809  12.273  0.00  0.00    +0.000 A 
ATOM      2  C   UNL     1      45.552   7.065  11.694  0.00  0.00    +0.000 A 
ATOM      3  C   UNL     1      46.604   7.866  12.126  0.00  0.00    +0.000 A 
ATOM      4  C   UNL     1      47.451   7.424  13.149  0.00  0.00    +0.000 A 
ATOM      5  C   UNL     1      47.259   6.180  13.776  0.00  0.00    +0.000 A 
ATOM      6  C   UNL     1      46.214   5.373  13.286  0.00  0.00    +0.000 A 
ENDROOT
BRANCH   5   7
ATOM      7  C   UNL     1      48.030   5.776  14.980  0.00  0.00    +0.000 A 
ATOM      8  C   UNL     1      49.137   6.530  15.413  0.00  0.00    +0.000 A 
ATOM      9  C   UNL     1      49.789   6.255  16.618  0.00  0.00    +0.000 A 
ATOM     10  C   UNL     1      49.341   5.220  17.434  0.00  0.00    +0.000 A 
ATOM     11  C   UNL     1      48.260   4.436  17.025  0.00  0.00    +0.000 A 
ATOM     12  C   UNL     1      47.627   4.704  15.800  0.00  0.00    +0.000 A 
BRANCH  11  13
ATOM     13  C   UNL     1      47.696   3.366  17.893  0.00  0.00    +0.000 C 
ATOM     14  N   UNL     1      48.253   3.194  19.129  0.00  0.00    +0.000 N 
ATOM     15  O   UNL     1      46.773   2.656  17.517  0.00  0.00    +0.000 OA
ATOM     16  H   UNL     1      49.135   3.604  19.401  0.00  0.00    +0.000 HD
ATOM     17  H   UNL     1      47.899   2.425  19.682  0.00  0.00    +0.000 HD
ENDBRANCH  11  13
ENDBRANCH   5   7
BRANCH   1  18
ATOM     18  C   UNL     1      44.161   4.957  11.879  0.00  0.00    +0.000 C 
BRANCH  18  19
ATOM     19  N   UNL     1      43.956   4.987  10.437  0.00  0.00    +0.000 N 
ATOM     20  H   UNL     1      43.821   5.924  10.067  0.00  0.00    +0.000 HD
BRANCH  19  24
ATOM     21  C   UNL     1      46.378   2.735   7.809  0.00  0.00    +0.000 A 
ATOM     22  C   UNL     1      46.412   4.128   7.797  0.00  0.00    +0.000 A 
ATOM     23  C   UNL     1      45.617   4.846   8.700  0.00  0.00    +0.000 A 
ATOM     24  C   UNL     1      44.782   4.193   9.624  0.00  0.00    +0.000 A 
ATOM     25  C   UNL     1      44.744   2.785   9.565  0.00  0.00    +0.000 A 
ATOM     26  F   UNL     1      43.953   2.080  10.388  0.00  0.00    +0.000 F 
ATOM     27  C   UNL     1      45.536   2.056   8.682  0.00  0.00    +0.000 A 
BRANCH  21  29
ATOM     28  C   UNL     1      46.906   2.467   5.093  0.00  0.00    +0.000 C 
ATOM     29  S   UNL     1      47.371   1.806   6.668  0.00  0.00    +0.000 S 
ATOM     30  O   UNL     1      46.934   0.427   6.731  0.00  0.00    +0.000 OA
ATOM     31  O   UNL     1      48.759   2.159   6.914  0.00  0.00    +0.000 OA
ENDBRANCH  21  29
ENDBRANCH  19  24
ENDBRANCH  18  19
ENDBRANCH   1  18
TORSDOF 6
ENDMDL
MODEL 2
REMARK VINA RESULT:    -8.493      3.371      4.977
REMARK INTER + INTRA:         -12.562
REMARK INTER:                 -11.060
REMARK INTRA:                  -1.502
REMARK UNBOUND:                -1.090
REMARK  Name = 
REMARK  7 active torsions:
REMARK  status: ('A' for Active; 'I' for Inactive)
REMARK    1  A    between atoms: C_1  and  S_2
REMARK    2  A    between atoms: S_2  and  C_5
REMARK    3  A    between atoms: C_8  and  N_9
REMARK    4  A    between atoms: N_9  and  C_10
REMARK    5  A    between atoms: C_10  and  C_11
REMARK    6  A    between atoms: C_15  and  C_16
REMARK    7  A    between atoms: C_20  and  C_21
REMARK                            x       y       z     vdW  Elec       q    Type
REMARK                         _______ _______ _______ _____ _____    ______ ____
ROOT
ATOM      1  C   UNL     1      44.982   4.328  12.674  0.00  0.00    +0.000 A 
ATOM      2  C   UNL     1      46.065   3.635  13.222  0.00  0.00    +0.000 A 
ATOM      3  C   UNL     1      47.185   4.332  13.667  0.00  0.00    +0.000 A 
ATOM      4  C   UNL     1      47.235   5.726  13.557  0.00  0.00    +0.000 A 
ATOM      5  C   UNL     1      46.177   6.457  12.987  0.00  0.00    +0.000 A 
ATOM      6  C   UNL     1      45.041   5.729  12.588  0.00  0.00    +0.000 A 
ENDROOT
BRANCH   5   7
ATOM      7  C   UNL     1      46.289   7.910  12.696  0.00  0.00    +0.000 A 
ATOM      8  C   UNL     1      47.537   8.559  12.740  0.00  0.00    +0.000 A 
ATOM      9  C   UNL     1      47.691   9.888  12.334  0.00  0.00    +0.000 A 
ATOM     10  C   UNL     1      46.596  10.603  11.857  0.00  0.00    +0.000 A 
ATOM     11  C   UNL     1      45.338   9.998  11.821  0.00  0.00    +0.000 A 
ATOM     12  C   UNL     1      45.189   8.670  12.255  0.00  0.00    +0.000 A 
BRANCH  11  13
ATOM     13  C   UNL     1      44.151  10.692  11.252  0.00  0.00    +0.000 C 
ATOM     14  N   UNL     1      43.096  10.932  12.087  0.00  0.00    +0.000 N 
ATOM     15  O   UNL     1      44.109  11.032  10.076  0.00  0.00    +0.000 OA
ATOM     16  H   UNL     1      42.996  10.495  12.992  0.00  0.00    +0.000 HD
ATOM     17  H   UNL     1      42.274  11.350  11.671  0.00  0.00    +0.000 HD
ENDBRANCH  11  13
ENDBRANCH   5   7
BRANCH   1  18
ATOM     18  C   UNL     1      43.792   3.588  12.109  0.00  0.00    +0.000 C 
BRANCH  18  19
ATOM     19  N   UNL     1      43.524   4.006  10.739  0.00  0.00    +0.000 N 
ATOM     20  H   UNL     1      43.285   4.989  10.656  0.00  0.00    +0.000 HD
BRANCH  19  24
ATOM     21  C   UNL     1      46.187   2.508   7.822  0.00  0.00    +0.000 A 
ATOM     22  C   UNL     1      45.336   1.653   8.521  0.00  0.00    +0.000 A 
ATOM     23  C   UNL     1      44.444   2.184   9.463  0.00  0.00    +0.000 A 
ATOM     24  C   UNL     1      44.386   3.565   9.721  0.00  0.00    +0.000 A 
ATOM     25  C   UNL     1      45.300   4.383   9.026  0.00  0.00    +0.000 A 
ATOM     26  F   UNL     1      45.336   5.709   9.232  0.00  0.00    +0.000 F 
ATOM     27  C   UNL     1      46.184   3.874   8.080  0.00  0.00    +0.000 A 
BRANCH  21  29
ATOM     28  C   UNL     1      46.815   2.613   5.116  0.00  0.00    +0.000 C 
ATOM     29  S   UNL     1      47.329   1.854   6.631  0.00  0.00    +0.000 S 
ATOM     30  O   UNL     1      47.088   0.430   6.531  0.00  0.00    +0.000 OA
ATOM     31  O   UNL     1      48.647   2.365   6.967  0.00  0.00    +0.000 OA
ENDBRANCH  21  29
ENDBRANCH  19  24
ENDBRANCH  18  19
ENDBRANCH   1  18
TORSDOF 6
ENDMDL
MODEL 3
REMARK VINA RESULT:    -8.316      3.240      4.421
REMARK INTER + INTRA:         -12.323
REMARK INTER:                 -11.147
REMARK INTRA:                  -1.176
REMARK UNBOUND:                -1.090
REMARK  Name = 
REMARK  7 active torsions:
REMARK  status: ('A' for Active; 'I' for Inactive)
REMARK    1  A    between atoms: C_1  and  S_2
REMARK    2  A    between atoms: S_2  and  C_5
REMARK    3  A    between atoms: C_8  and  N_9
REMARK    4  A    between atoms: N_9  and  C_10
REMARK    5  A    between atoms: C_10  and  C_11
REMARK    6  A    between atoms: C_15  and  C_16
REMARK    7  A    between atoms: C_20  and  C_21
REMARK                            x       y       z     vdW  Elec       q    Type
REMARK                         _______ _______ _______ _____ _____    ______ ____
ROOT
ATOM      1  C   UNL     1      44.986   4.967  12.392  0.00  0.00    +0.000 A 
ATOM      2  C   UNL     1      45.621   4.056  13.241  0.00  0.00    +0.000 A 
ATOM      3  C   UNL     1      46.866   4.360  13.784  0.00  0.00    +0.000 A 
ATOM      4  C   UNL     1      47.491   5.573  13.473  0.00  0.00    +0.000 A 
ATOM      5  C   UNL     1      46.897   6.504  12.602  0.00  0.00    +0.000 A 
ATOM      6  C   UNL     1      45.619   6.188  12.105  0.00  0.00    +0.000 A 
ENDROOT
BRANCH   5   7
ATOM      7  C   UNL     1      47.623   7.707  12.118  0.00  0.00    +0.000 A 
ATOM      8  C   UNL     1      47.017   8.977  12.154  0.00  0.00    +0.000 A 
ATOM      9  C   UNL     1      47.725  10.140  11.840  0.00  0.00    +0.000 A 
ATOM     10  C   UNL     1      49.071  10.066  11.493  0.00  0.00    +0.000 A 
ATOM     11  C   UNL     1      49.699   8.820  11.424  0.00  0.00    +0.000 A 
ATOM     12  C   UNL     1      48.972   7.655  11.717  0.00  0.00    +0.000 A 
BRANCH  11  13
ATOM     13  C   UNL     1      51.153   8.691  11.131  0.00  0.00    +0.000 C 
ATOM     14  N   UNL     1      51.735   7.471  11.335  0.00  0.00    +0.000 N 
ATOM     15  O   UNL     1      51.813   9.642  10.730  0.00  0.00    +0.000 OA
ATOM     16  H   UNL     1      51.292   6.727  11.853  0.00  0.00    +0.000 HD
ATOM     17  H   UNL     1      52.734   7.416  11.189  0.00  0.00    +0.000 HD
ENDBRANCH  11  13
ENDBRANCH   5   7
BRANCH   1  18
ATOM     18  C   UNL     1      43.674   4.624  11.726  0.00  0.00    +0.000 C 
BRANCH  18  19
ATOM     19  N   UNL     1      43.739   4.874  10.292  0.00  0.00    +0.000 N 
ATOM     20  H   UNL     1      43.769   5.861  10.055  0.00  0.00    +0.000 HD
BRANCH  19  24
ATOM     21  C   UNL     1      46.313   2.676   7.765  0.00  0.00    +0.000 A 
ATOM     22  C   UNL     1      46.324   4.070   7.761  0.00  0.00    +0.000 A 
ATOM     23  C   UNL     1      45.478   4.770   8.631  0.00  0.00    +0.000 A 
ATOM     24  C   UNL     1      44.614   4.098   9.513  0.00  0.00    +0.000 A 
ATOM     25  C   UNL     1      44.602   2.690   9.446  0.00  0.00    +0.000 A 
ATOM     26  F   UNL     1      43.787   1.968  10.230  0.00  0.00    +0.000 F 
ATOM     27  C   UNL     1      45.444   1.979   8.596  0.00  0.00    +0.000 A 
BRANCH  21  29
ATOM     28  C   UNL     1      46.935   2.401   5.069  0.00  0.00    +0.000 C 
ATOM     29  S   UNL     1      47.372   1.771   6.665  0.00  0.00    +0.000 S 
ATOM     30  O   UNL     1      46.978   0.378   6.728  0.00  0.00    +0.000 OA
ATOM     31  O   UNL     1      48.739   2.172   6.950  0.00  0.00    +0.000 OA
ENDBRANCH  21  29
ENDBRANCH  19  24
ENDBRANCH  18  19
ENDBRANCH   1  18
TORSDOF 6
ENDMDL
MODEL 4
REMARK VINA RESULT:    -7.819      1.405      1.847
REMARK INTER + INTRA:         -11.651
REMARK INTER:                 -10.684
REMARK INTRA:                  -0.968
REMARK UNBOUND:                -1.090
REMARK  Name = 
REMARK  7 active torsions:
REMARK  status: ('A' for Active; 'I' for Inactive)
REMARK    1  A    between atoms: C_1  and  S_2
REMARK    2  A    between atoms: S_2  and  C_5
REMARK    3  A    between atoms: C_8  and  N_9
REMARK    4  A    between atoms: N_9  and  C_10
REMARK    5  A    between atoms: C_10  and  C_11
REMARK    6  A    between atoms: C_15  and  C_16
REMARK    7  A    between atoms: C_20  and  C_21
REMARK                            x       y       z     vdW  Elec       q    Type
REMARK                         _______ _______ _______ _____ _____    ______ ____
ROOT
ATOM      1  C   UNL     1      45.328   5.342  12.521  0.00  0.00    +0.000 A 
ATOM      2  C   UNL     1      45.818   6.541  11.996  0.00  0.00    +0.000 A 
ATOM      3  C   UNL     1      46.938   7.143  12.563  0.00  0.00    +0.000 A 
ATOM      4  C   UNL     1      47.569   6.557  13.666  0.00  0.00    +0.000 A 
ATOM      5  C   UNL     1      47.090   5.366  14.240  0.00  0.00    +0.000 A 
ATOM      6  C   UNL     1      45.983   4.757  13.617  0.00  0.00    +0.000 A 
ENDROOT
BRANCH   5   7
ATOM      7  C   UNL     1      47.632   4.830  15.515  0.00  0.00    +0.000 A 
ATOM      8  C   UNL     1      47.276   3.545  15.967  0.00  0.00    +0.000 A 
ATOM      9  C   UNL     1      47.880   2.964  17.085  0.00  0.00    +0.000 A 
ATOM     10  C   UNL     1      48.872   3.650  17.779  0.00  0.00    +0.000 A 
ATOM     11  C   UNL     1      49.234   4.937  17.373  0.00  0.00    +0.000 A 
ATOM     12  C   UNL     1      48.604   5.523  16.263  0.00  0.00    +0.000 A 
BRANCH  11  13
ATOM     13  C   UNL     1      50.339   5.684  18.034  0.00  0.00    +0.000 C 
ATOM     14  N   UNL     1      50.088   6.230  19.262  0.00  0.00    +0.000 N 
ATOM     15  O   UNL     1      51.433   5.817  17.500  0.00  0.00    +0.000 OA
ATOM     16  H   UNL     1      49.160   6.328  19.645  0.00  0.00    +0.000 HD
ATOM     17  H   UNL     1      50.829   6.785  19.670  0.00  0.00    +0.000 HD
ENDBRANCH  11  13
ENDBRANCH   5   7
BRANCH   1  18
ATOM     18  C   UNL     1      44.067   4.713  11.976  0.00  0.00    +0.000 C 
BRANCH  18  19
ATOM     19  N   UNL     1      43.966   4.915  10.536  0.00  0.00    +0.000 N 
ATOM     20  H   UNL     1      43.930   5.893  10.267  0.00  0.00    +0.000 HD
BRANCH  19  24
ATOM     21  C   UNL     1      46.362   2.746   7.816  0.00  0.00    +0.000 A 
ATOM     22  C   UNL     1      46.410   4.139   7.860  0.00  0.00    +0.000 A 
ATOM     23  C   UNL     1      45.623   4.828   8.792  0.00  0.00    +0.000 A 
ATOM     24  C   UNL     1      44.783   4.146   9.691  0.00  0.00    +0.000 A 
ATOM     25  C   UNL     1      44.731   2.741   9.575  0.00  0.00    +0.000 A 
ATOM     26  F   UNL     1      43.934   2.012  10.371  0.00  0.00    +0.000 F 
ATOM     27  C   UNL     1      45.514   2.041   8.663  0.00  0.00    +0.000 A 
BRANCH  21  29
ATOM     28  C   UNL     1      46.823   2.524   5.083  0.00  0.00    +0.000 C 
ATOM     29  S   UNL     1      47.344   1.854   6.637  0.00  0.00    +0.000 S 
ATOM     30  O   UNL     1      46.940   0.465   6.693  0.00  0.00    +0.000 OA
ATOM     31  O   UNL     1      48.731   2.235   6.850  0.00  0.00    +0.000 OA
ENDBRANCH  21  29
ENDBRANCH  19  24
ENDBRANCH  18  19
ENDBRANCH   1  18
TORSDOF 6
ENDMDL
MODEL 5
REMARK VINA RESULT:    -7.293      3.601      4.850
REMARK INTER + INTRA:         -10.941
REMARK INTER:                  -9.579
REMARK INTRA:                  -1.362
REMARK UNBOUND:                -1.090
REMARK  Name = 
REMARK  7 active torsions:
REMARK  status: ('A' for Active; 'I' for Inactive)
REMARK    1  A    between atoms: C_1  and  S_2
REMARK    2  A    between atoms: S_2  and  C_5
REMARK    3  A    between atoms: C_8  and  N_9
REMARK    4  A    between atoms: N_9  and  C_10
REMARK    5  A    between atoms: C_10  and  C_11
REMARK    6  A    between atoms: C_15  and  C_16
REMARK    7  A    between atoms: C_20  and  C_21
REMARK                            x       y       z     vdW  Elec       q    Type
REMARK                         _______ _______ _______ _____ _____    ______ ____
ROOT
ATOM      1  C   UNL     1      48.692   8.257  14.954  0.00  0.00    +0.000 A 
ATOM      2  C   UNL     1      48.375   9.427  15.650  0.00  0.00    +0.000 A 
ATOM      3  C   UNL     1      48.354   9.426  17.041  0.00  0.00    +0.000 A 
ATOM      4  C   UNL     1      48.638   8.252  17.749  0.00  0.00    +0.000 A 
ATOM      5  C   UNL     1      48.935   7.047  17.085  0.00  0.00    +0.000 A 
ATOM      6  C   UNL     1      48.993   7.091  15.679  0.00  0.00    +0.000 A 
ENDROOT
BRANCH   5   7
ATOM      7  C   UNL     1      49.058   5.757  17.810  0.00  0.00    +0.000 A 
ATOM      8  C   UNL     1      48.574   5.620  19.126  0.00  0.00    +0.000 A 
ATOM      9  C   UNL     1      48.549   4.384  19.776  0.00  0.00    +0.000 A 
ATOM     10  C   UNL     1      48.996   3.241  19.121  0.00  0.00    +0.000 A 
ATOM     11  C   UNL     1      49.504   3.342  17.823  0.00  0.00    +0.000 A 
ATOM     12  C   UNL     1      49.549   4.593  17.187  0.00  0.00    +0.000 A 
BRANCH  11  13
ATOM     13  C   UNL     1      49.925   2.141  17.052  0.00  0.00    +0.000 C 
ATOM     14  N   UNL     1      50.941   1.383  17.564  0.00  0.00    +0.000 N 
ATOM     15  O   UNL     1      49.393   1.842  15.990  0.00  0.00    +0.000 OA
ATOM     16  H   UNL     1      51.542   1.696  18.312  0.00  0.00    +0.000 HD
ATOM     17  H   UNL     1      51.255   0.606  16.999  0.00  0.00    +0.000 HD
ENDBRANCH  11  13
ENDBRANCH   5   7
BRANCH   1  18
ATOM     18  C   UNL     1      48.641   8.211  13.445  0.00  0.00    +0.000 C 
BRANCH  18  19
ATOM     19  N   UNL     1      48.673   6.836  12.965  0.00  0.00    +0.000 N 
ATOM     20  H   UNL     1      49.246   6.222  13.537  0.00  0.00    +0.000 HD
BRANCH  19  24
ATOM     21  C   UNL     1      44.966   5.253  11.706  0.00  0.00    +0.000 A 
ATOM     22  C   UNL     1      45.594   6.266  10.983  0.00  0.00    +0.000 A 
ATOM     23  C   UNL     1      46.837   6.750  11.411  0.00  0.00    +0.000 A 
ATOM     24  C   UNL     1      47.470   6.238  12.558  0.00  0.00    +0.000 A 
ATOM     25  C   UNL     1      46.772   5.250  13.283  0.00  0.00    +0.000 A 
ATOM     26  F   UNL     1      47.287   4.726  14.406  0.00  0.00    +0.000 F 
ATOM     27  C   UNL     1      45.543   4.749  12.866  0.00  0.00    +0.000 A 
BRANCH  21  29
ATOM     28  C   UNL     1      43.376   2.974  11.811  0.00  0.00    +0.000 C 
ATOM     29  S   UNL     1      43.387   4.630  11.184  0.00  0.00    +0.000 S 
ATOM     30  O   UNL     1      43.398   4.569   9.737  0.00  0.00    +0.000 OA
ATOM     31  O   UNL     1      42.367   5.387  11.890  0.00  0.00    +0.000 OA
ENDBRANCH  21  29
ENDBRANCH  19  24
ENDBRANCH  18  19
ENDBRANCH   1  18
TORSDOF 6
ENDMDL
MODEL 6
REMARK VINA RESULT:    -7.224      3.946      5.585
REMARK INTER + INTRA:         -10.848
REMARK INTER:                  -9.495
REMARK INTRA:                  -1.353
REMARK UNBOUND:                -1.090
REMARK  Name = 
REMARK  7 active torsions:
REMARK  status: ('A' for Active; 'I' for Inactive)
REMARK    1  A    between atoms: C_1  and  S_2
REMARK    2  A    between atoms: S_2  and  C_5
REMARK    3  A    between atoms: C_8  and  N_9
REMARK    4  A    between atoms: N_9  and  C_10
REMARK    5  A    between atoms: C_10  and  C_11
REMARK    6  A    between atoms: C_15  and  C_16
REMARK    7  A    between atoms: C_20  and  C_21
REMARK                            x       y       z     vdW  Elec       q    Type
REMARK                         _______ _______ _______ _____ _____    ______ ____
ROOT
ATOM      1  C   UNL     1      49.213   7.913  15.772  0.00  0.00    +0.000 A 
ATOM      2  C   UNL     1      48.532   8.560  16.807  0.00  0.00    +0.000 A 
ATOM      3  C   UNL     1      48.795   8.223  18.132  0.00  0.00    +0.000 A 
ATOM      4  C   UNL     1      49.732   7.228  18.431  0.00  0.00    +0.000 A 
ATOM      5  C   UNL     1      50.419   6.535  17.417  0.00  0.00    +0.000 A 
ATOM      6  C   UNL     1      50.164   6.929  16.090  0.00  0.00    +0.000 A 
ENDROOT
BRANCH   5   7
ATOM      7  C   UNL     1      51.276   5.357  17.708  0.00  0.00    +0.000 A 
ATOM      8  C   UNL     1      52.414   5.479  18.529  0.00  0.00    +0.000 A 
ATOM      9  C   UNL     1      53.153   4.364  18.932  0.00  0.00    +0.000 A 
ATOM     10  C   UNL     1      52.765   3.088  18.535  0.00  0.00    +0.000 A 
ATOM     11  C   UNL     1      51.655   2.931  17.702  0.00  0.00    +0.000 A 
ATOM     12  C   UNL     1      50.933   4.059  17.281  0.00  0.00    +0.000 A 
BRANCH  11  13
ATOM     13  C   UNL     1      51.154   1.585  17.310  0.00  0.00    +0.000 C 
ATOM     14  N   UNL     1      51.615   0.508  18.015  0.00  0.00    +0.000 N 
ATOM     15  O   UNL     1      50.367   1.438  16.384  0.00  0.00    +0.000 OA
ATOM     16  H   UNL     1      52.409   0.552  18.636  0.00  0.00    +0.000 HD
ATOM     17  H   UNL     1      51.313  -0.404  17.697  0.00  0.00    +0.000 HD
ENDBRANCH  11  13
ENDBRANCH   5   7
BRANCH   1  18
ATOM     18  C   UNL     1      48.886   8.203  14.326  0.00  0.00    +0.000 C 
BRANCH  18  19
ATOM     19  N   UNL     1      48.952   6.988  13.525  0.00  0.00    +0.000 N 
ATOM     20  H   UNL     1      49.732   6.385  13.770  0.00  0.00    +0.000 HD
BRANCH  19  24
ATOM     21  C   UNL     1      45.281   5.052  12.740  0.00  0.00    +0.000 A 
ATOM     22  C   UNL     1      45.801   5.989  11.848  0.00  0.00    +0.000 A 
ATOM     23  C   UNL     1      47.035   6.593  12.123  0.00  0.00    +0.000 A 
ATOM     24  C   UNL     1      47.766   6.276  13.282  0.00  0.00    +0.000 A 
ATOM     25  C   UNL     1      47.175   5.361  14.178  0.00  0.00    +0.000 A 
ATOM     26  F   UNL     1      47.787   5.024  15.324  0.00  0.00    +0.000 F 
ATOM     27  C   UNL     1      45.957   4.743  13.915  0.00  0.00    +0.000 A 
BRANCH  21  29
ATOM     28  C   UNL     1      43.440   4.630  10.700  0.00  0.00    +0.000 C 
ATOM     29  S   UNL     1      43.716   4.281  12.413  0.00  0.00    +0.000 S 
ATOM     30  O   UNL     1      42.713   4.982  13.188  0.00  0.00    +0.000 OA
ATOM     31  O   UNL     1      43.900   2.847  12.558  0.00  0.00    +0.000 OA
ENDBRANCH  21  29
ENDBRANCH  19  24
ENDBRANCH  18  19
ENDBRANCH   1  18
TORSDOF 6
ENDMDL
MODEL 7
REMARK VINA RESULT:    -7.038      3.184      5.130
REMARK INTER + INTRA:         -10.598
REMARK INTER:                  -9.331
REMARK INTRA:                  -1.267
REMARK UNBOUND:                -1.090
REMARK  Name = 
REMARK  7 active torsions:
REMARK  status: ('A' for Active; 'I' for Inactive)
REMARK    1  A    between atoms: C_1  and  S_2
REMARK    2  A    between atoms: S_2  and  C_5
REMARK    3  A    between atoms: C_8  and  N_9
REMARK    4  A    between atoms: N_9  and  C_10
REMARK    5  A    between atoms: C_10  and  C_11
REMARK    6  A    between atoms: C_15  and  C_16
REMARK    7  A    between atoms: C_20  and  C_21
REMARK                            x       y       z     vdW  Elec       q    Type
REMARK                         _______ _______ _______ _____ _____    ______ ____
ROOT
ATOM      1  C   UNL     1      45.607   4.930  13.024  0.00  0.00    +0.000 A 
ATOM      2  C   UNL     1      46.577   4.467  13.917  0.00  0.00    +0.000 A 
ATOM      3  C   UNL     1      47.582   5.322  14.361  0.00  0.00    +0.000 A 
ATOM      4  C   UNL     1      47.632   6.644  13.904  0.00  0.00    +0.000 A 
ATOM      5  C   UNL     1      46.691   7.140  12.984  0.00  0.00    +0.000 A 
ATOM      6  C   UNL     1      45.662   6.265  12.589  0.00  0.00    +0.000 A 
ENDROOT
BRANCH   5   7
ATOM      7  C   UNL     1      46.835   8.477  12.352  0.00  0.00    +0.000 A 
ATOM      8  C   UNL     1      45.726   9.335  12.219  0.00  0.00    +0.000 A 
ATOM      9  C   UNL     1      45.862  10.647  11.760  0.00  0.00    +0.000 A 
ATOM     10  C   UNL     1      47.119  11.146  11.432  0.00  0.00    +0.000 A 
ATOM     11  C   UNL     1      48.239  10.316  11.529  0.00  0.00    +0.000 A 
ATOM     12  C   UNL     1      48.089   8.991  11.967  0.00  0.00    +0.000 A 
BRANCH  11  13
ATOM     13  C   UNL     1      49.613  10.822  11.261  0.00  0.00    +0.000 C 
ATOM     14  N   UNL     1      49.818  11.516  10.102  0.00  0.00    +0.000 N 
ATOM     15  O   UNL     1      50.534  10.618  12.042  0.00  0.00    +0.000 OA
ATOM     16  H   UNL     1      49.155  11.530   9.341  0.00  0.00    +0.000 HD
ATOM     17  H   UNL     1      50.769  11.800   9.906  0.00  0.00    +0.000 HD
ENDBRANCH  11  13
ENDBRANCH   5   7
BRANCH   1  18
ATOM     18  C   UNL     1      44.557   3.999  12.465  0.00  0.00    +0.000 C 
BRANCH  18  19
ATOM     19  N   UNL     1      44.103   4.454  11.157  0.00  0.00    +0.000 N 
ATOM     20  H   UNL     1      43.955   5.457  11.107  0.00  0.00    +0.000 HD
BRANCH  19  24
ATOM     21  C   UNL     1      46.067   2.722   7.843  0.00  0.00    +0.000 A 
ATOM     22  C   UNL     1      45.289   1.945   8.700  0.00  0.00    +0.000 A 
ATOM     23  C   UNL     1      44.628   2.554   9.775  0.00  0.00    +0.000 A 
ATOM     24  C   UNL     1      44.729   3.937  10.011  0.00  0.00    +0.000 A 
ATOM     25  C   UNL     1      45.567   4.672   9.147  0.00  0.00    +0.000 A 
ATOM     26  F   UNL     1      45.747   5.990   9.317  0.00  0.00    +0.000 F 
ATOM     27  C   UNL     1      46.222   4.084   8.069  0.00  0.00    +0.000 A 
BRANCH  21  29
ATOM     28  C   UNL     1      48.568   2.597   6.634  0.00  0.00    +0.000 C 
ATOM     29  S   UNL     1      46.920   1.968   6.481  0.00  0.00    +0.000 S 
ATOM     30  O   UNL     1      46.343   2.494   5.261  0.00  0.00    +0.000 OA
ATOM     31  O   UNL     1      46.958   0.537   6.730  0.00  0.00    +0.000 OA
ENDBRANCH  21  29
ENDBRANCH  19  24
ENDBRANCH  18  19
ENDBRANCH   1  18
TORSDOF 6
ENDMDL
MODEL 8
REMARK VINA RESULT:    -6.570      4.164      8.706
REMARK INTER + INTRA:          -9.965
REMARK INTER:                  -8.612
REMARK INTRA:                  -1.353
REMARK UNBOUND:                -1.090
REMARK  Name = 
REMARK  7 active torsions:
REMARK  status: ('A' for Active; 'I' for Inactive)
REMARK    1  A    between atoms: C_1  and  S_2
REMARK    2  A    between atoms: S_2  and  C_5
REMARK    3  A    between atoms: C_8  and  N_9
REMARK    4  A    between atoms: N_9  and  C_10
REMARK    5  A    between atoms: C_10  and  C_11
REMARK    6  A    between atoms: C_15  and  C_16
REMARK    7  A    between atoms: C_20  and  C_21
REMARK                            x       y       z     vdW  Elec       q    Type
REMARK                         _______ _______ _______ _____ _____    ______ ____
ROOT
ATOM      1  C   UNL     1      47.926   8.036  12.348  0.00  0.00    +0.000 A 
ATOM      2  C   UNL     1      47.244   9.245  12.179  0.00  0.00    +0.000 A 
ATOM      3  C   UNL     1      45.861   9.248  12.021  0.00  0.00    +0.000 A 
ATOM      4  C   UNL     1      45.150   8.043  12.017  0.00  0.00    +0.000 A 
ATOM      5  C   UNL     1      45.802   6.804  12.157  0.00  0.00    +0.000 A 
ATOM      6  C   UNL     1      47.195   6.836  12.360  0.00  0.00    +0.000 A 
ENDROOT
BRANCH   5   7
ATOM      7  C   UNL     1      45.092   5.513  11.973  0.00  0.00    +0.000 A 
ATOM      8  C   UNL     1      44.180   5.048  12.940  0.00  0.00    +0.000 A 
ATOM      9  C   UNL     1      43.395   3.912  12.727  0.00  0.00    +0.000 A 
ATOM     10  C   UNL     1      43.490   3.213  11.527  0.00  0.00    +0.000 A 
ATOM     11  C   UNL     1      44.400   3.632  10.554  0.00  0.00    +0.000 A 
ATOM     12  C   UNL     1      45.203   4.760  10.788  0.00  0.00    +0.000 A 
BRANCH  11  13
ATOM     13  C   UNL     1      44.488   2.965   9.226  0.00  0.00    +0.000 C 
ATOM     14  N   UNL     1      44.393   3.754   8.113  0.00  0.00    +0.000 N 
ATOM     15  O   UNL     1      44.631   1.754   9.125  0.00  0.00    +0.000 OA
ATOM     16  H   UNL     1      44.071   4.710   8.139  0.00  0.00    +0.000 HD
ATOM     17  H   UNL     1      44.394   3.280   7.220  0.00  0.00    +0.000 HD
ENDBRANCH  11  13
ENDBRANCH   5   7
BRANCH   1  18
ATOM     18  C   UNL     1      49.433   8.000  12.439  0.00  0.00    +0.000 C 
BRANCH  18  19
ATOM     19  N   UNL     1      49.902   8.763  13.588  0.00  0.00    +0.000 N 
ATOM     20  H   UNL     1      49.742   9.762  13.503  0.00  0.00    +0.000 HD
BRANCH  19  24
ATOM     21  C   UNL     1      49.018   7.087  17.363  0.00  0.00    +0.000 A 
ATOM     22  C   UNL     1      49.778   6.385  16.429  0.00  0.00    +0.000 A 
ATOM     23  C   UNL     1      50.078   6.980  15.196  0.00  0.00    +0.000 A 
ATOM     24  C   UNL     1      49.629   8.274  14.876  0.00  0.00    +0.000 A 
ATOM     25  C   UNL     1      48.823   8.924  15.833  0.00  0.00    +0.000 A 
ATOM     26  F   UNL     1      48.326  10.148  15.600  0.00  0.00    +0.000 F 
ATOM     27  C   UNL     1      48.525   8.352  17.066  0.00  0.00    +0.000 A 
BRANCH  21  29
ATOM     28  C   UNL     1      49.255   4.703  18.774  0.00  0.00    +0.000 C 
ATOM     29  S   UNL     1      48.621   6.349  18.928  0.00  0.00    +0.000 S 
ATOM     30  O   UNL     1      47.178   6.274  19.022  0.00  0.00    +0.000 OA
ATOM     31  O   UNL     1      49.399   7.039  19.943  0.00  0.00    +0.000 OA
ENDBRANCH  21  29
ENDBRANCH  19  24
ENDBRANCH  18  19
ENDBRANCH   1  18
TORSDOF 6
ENDMDL
MODEL 9
REMARK VINA RESULT:    -6.400      3.998      8.612
REMARK INTER + INTRA:          -9.736
REMARK INTER:                  -8.897
REMARK INTRA:                  -0.839
REMARK UNBOUND:                -1.090
REMARK  Name = 
REMARK  7 active torsions:
REMARK  status: ('A' for Active; 'I' for Inactive)
REMARK    1  A    between atoms: C_1  and  S_2
REMARK    2  A    between atoms: S_2  and  C_5
REMARK    3  A    between atoms: C_8  and  N_9
REMARK    4  A    between atoms: N_9  and  C_10
REMARK    5  A    between atoms: C_10  and  C_11
REMARK    6  A    between atoms: C_15  and  C_16
REMARK    7  A    between atoms: C_20  and  C_21
REMARK                            x       y       z     vdW  Elec       q    Type
REMARK                         _______ _______ _______ _____ _____    ______ ____
ROOT
ATOM      1  C   UNL     1      47.107   8.050  13.212  0.00  0.00    +0.000 A 
ATOM      2  C   UNL     1      46.505   9.168  12.628  0.00  0.00    +0.000 A 
ATOM      3  C   UNL     1      45.324   9.025  11.905  0.00  0.00    +0.000 A 
ATOM      4  C   UNL     1      44.743   7.762  11.749  0.00  0.00    +0.000 A 
ATOM      5  C   UNL     1      45.333   6.608  12.298  0.00  0.00    +0.000 A 
ATOM      6  C   UNL     1      46.501   6.792  13.062  0.00  0.00    +0.000 A 
ENDROOT
BRANCH   5   7
ATOM      7  C   UNL     1      44.833   5.244  11.991  0.00  0.00    +0.000 A 
ATOM      8  C   UNL     1      43.965   4.578  12.877  0.00  0.00    +0.000 A 
ATOM      9  C   UNL     1      43.369   3.358  12.546  0.00  0.00    +0.000 A 
ATOM     10  C   UNL     1      43.616   2.773  11.308  0.00  0.00    +0.000 A 
ATOM     11  C   UNL     1      44.490   3.394  10.412  0.00  0.00    +0.000 A 
ATOM     12  C   UNL     1      45.104   4.608  10.764  0.00  0.00    +0.000 A 
BRANCH  11  13
ATOM     13  C   UNL     1      44.731   2.850   9.048  0.00  0.00    +0.000 C 
ATOM     14  N   UNL     1      45.085   1.533   8.945  0.00  0.00    +0.000 N 
ATOM     15  O   UNL     1      44.626   3.551   8.050  0.00  0.00    +0.000 OA
ATOM     16  H   UNL     1      45.384   0.977   9.732  0.00  0.00    +0.000 HD
ATOM     17  H   UNL     1      45.304   1.195   8.017  0.00  0.00    +0.000 HD
ENDBRANCH  11  13
ENDBRANCH   5   7
BRANCH   1  18
ATOM     18  C   UNL     1      48.431   8.167  13.930  0.00  0.00    +0.000 C 
BRANCH  18  19
ATOM     19  N   UNL     1      48.283   7.855  15.346  0.00  0.00    +0.000 N 
ATOM     20  H   UNL     1      47.320   7.687  15.624  0.00  0.00    +0.000 HD
BRANCH  19  24
ATOM     21  C   UNL     1      50.864   5.149  17.308  0.00  0.00    +0.000 A 
ATOM     22  C   UNL     1      49.485   4.950  17.308  0.00  0.00    +0.000 A 
ATOM     23  C   UNL     1      48.657   5.850  16.624  0.00  0.00    +0.000 A 
ATOM     24  C   UNL     1      49.187   6.956  15.934  0.00  0.00    +0.000 A 
ATOM     25  C   UNL     1      50.583   7.143  16.005  0.00  0.00    +0.000 A 
ATOM     26  F   UNL     1      51.170   8.188  15.402  0.00  0.00    +0.000 F 
ATOM     27  C   UNL     1      51.419   6.252  16.670  0.00  0.00    +0.000 A 
BRANCH  21  29
ATOM     28  C   UNL     1      53.552   4.555  17.704  0.00  0.00    +0.000 C 
ATOM     29  S   UNL     1      51.930   4.024  18.174  0.00  0.00    +0.000 S 
ATOM     30  O   UNL     1      51.707   2.702  17.626  0.00  0.00    +0.000 OA
ATOM     31  O   UNL     1      51.766   4.278  19.596  0.00  0.00    +0.000 OA
ENDBRANCH  21  29
ENDBRANCH  19  24
ENDBRANCH  18  19
ENDBRANCH   1  18
TORSDOF 6
ENDMDL
