MODEL 1
REMARK VINA RESULT:    -7.257      0.000      0.000
REMARK INTER + INTRA:          -9.421
REMARK INTER:                  -8.953
REMARK INTRA:                  -0.467
REMARK UNBOUND:                -0.467
REMARK  Name = 
REMARK  4 active torsions:
REMARK  status: ('A' for Active; 'I' for Inactive)
REMARK    1  A    between atoms: C_2  and  C_3
REMARK    2  A    between atoms: C_6  and  N_7
REMARK    3  A    between atoms: N_7  and  C_8
REMARK    4  A    between atoms: C_8  and  C_9
REMARK                            x       y       z     vdW  Elec       q    Type
REMARK                         _______ _______ _______ _____ _____    ______ ____
ROOT
ATOM      1  N   UNL     1      43.699   3.753  10.237  0.00  0.00    +0.000 N 
ATOM      2  H   UNL     1      42.770   3.436   9.986  0.00  0.00    +0.000 HD
ENDROOT
BRANCH   1   6
ATOM      3  C   UNL     1      46.569   2.544   7.536  0.00  0.00    +0.000 A 
ATOM      4  C   UNL     1      46.168   3.867   7.591  0.00  0.00    +0.000 A 
ATOM      5  N   UNL     1      45.230   4.309   8.465  0.00  0.00    +0.000 NA
ATOM      6  C   UNL     1      44.674   3.396   9.291  0.00  0.00    +0.000 A 
ATOM      7  C   UNL     1      45.102   2.064   9.223  0.00  0.00    +0.000 A 
ATOM      8  N   UNL     1      46.044   1.603   8.356  0.00  0.00    +0.000 NA
BRANCH   3  10
ATOM      9  N   UNL     1      48.344   1.728   5.833  0.00  0.00    +0.000 NA
ATOM     10  C   UNL     1      47.559   2.121   6.599  0.00  0.00    +0.000 C 
ENDBRANCH   3  10
ENDBRANCH   1   6
BRANCH   1  11
ATOM     11  C   UNL     1      43.791   4.895  11.157  0.00  0.00    +0.000 C 
ATOM     12  C   UNL     1      42.559   5.276  11.967  0.00  0.00    +0.000 C 
ATOM     13  C   UNL     1      43.102   6.237  10.964  0.00  0.00    +0.000 C 
BRANCH  11  14
ATOM     14  C   UNL     1      45.147   4.972  11.852  0.00  0.00    +0.000 A 
ATOM     15  C   UNL     1      45.975   6.093  11.667  0.00  0.00    +0.000 A 
ATOM     16  C   UNL     1      47.109   6.293  12.453  0.00  0.00    +0.000 A 
ATOM     17  C   UNL     1      47.453   5.356  13.422  0.00  0.00    +0.000 A 
ATOM     18  C   UNL     1      46.702   4.193  13.563  0.00  0.00    +0.000 A 
ATOM     19  C   UNL     1      45.569   3.995  12.771  0.00  0.00    +0.000 A 
ENDBRANCH  11  14
ENDBRANCH   1  11
TORSDOF 4
ENDMDL
MODEL 2
REMARK VINA RESULT:    -6.326      2.939      5.737
REMARK INTER + INTRA:          -8.273
REMARK INTER:                  -7.954
REMARK INTRA:                  -0.319
REMARK UNBOUND:                -0.467
REMARK  Name = 
REMARK  4 active torsions:
REMARK  status: ('A' for Active; 'I' for Inactive)
REMARK    1  A    between atoms: C_2  and  C_3
REMARK    2  A    between atoms: C_6  and  N_7
REMARK    3  A    between atoms: N_7  and  C_8
REMARK    4  A    between atoms: C_8  and  C_9
REMARK                            x       y       z     vdW  Elec       q    Type
REMARK                         _______ _______ _______ _____ _____    ______ ____
ROOT
ATOM      1  N   UNL     1      45.619   5.411  11.621  0.00  0.00    +0.000 N 
ATOM      2  H   UNL     1      45.674   6.413  11.483  0.00  0.00    +0.000 HD
ENDROOT
BRANCH   1   6
ATOM      3  C   UNL     1      47.444   3.991  15.033  0.00  0.00    +0.000 A 
ATOM      4  C   UNL     1      47.248   5.348  14.853  0.00  0.00    +0.000 A 
ATOM      5  N   UNL     1      46.650   5.859  13.749  0.00  0.00    +0.000 NA
ATOM      6  C   UNL     1      46.254   4.984  12.799  0.00  0.00    +0.000 A 
ATOM      7  C   UNL     1      46.456   3.613  13.007  0.00  0.00    +0.000 A 
ATOM      8  N   UNL     1      47.050   3.083  14.110  0.00  0.00    +0.000 NA
BRANCH   3  10
ATOM      9  N   UNL     1      48.633   3.064  17.141  0.00  0.00    +0.000 NA
ATOM     10  C   UNL     1      48.081   3.496  16.211  0.00  0.00    +0.000 C 
ENDBRANCH   3  10
ENDBRANCH   1   6
BRANCH   1  11
ATOM     11  C   UNL     1      44.524   4.701  10.946  0.00  0.00    +0.000 C 
ATOM     12  C   UNL     1      43.162   5.378  10.863  0.00  0.00    +0.000 C 
ATOM     13  C   UNL     1      43.304   4.110  11.635  0.00  0.00    +0.000 C 
BRANCH  11  14
ATOM     14  C   UNL     1      45.003   3.922   9.725  0.00  0.00    +0.000 A 
ATOM     15  C   UNL     1      45.620   4.593   8.654  0.00  0.00    +0.000 A 
ATOM     16  C   UNL     1      46.262   3.892   7.635  0.00  0.00    +0.000 A 
ATOM     17  C   UNL     1      46.271   2.501   7.650  0.00  0.00    +0.000 A 
ATOM     18  C   UNL     1      45.588   1.813   8.649  0.00  0.00    +0.000 A 
ATOM     19  C   UNL     1      44.944   2.519   9.667  0.00  0.00    +0.000 A 
ENDBRANCH  11  14
ENDBRANCH   1  11
TORSDOF 4
ENDMDL
MODEL 3
REMARK VINA RESULT:    -6.157      3.077      6.068
REMARK INTER + INTRA:          -8.065
REMARK INTER:                  -7.784
REMARK INTRA:                  -0.281
REMARK UNBOUND:                -0.467
REMARK  Name = 
REMARK  4 active torsions:
REMARK  status: ('A' for Active; 'I' for Inactive)
REMARK    1  A    between atoms: C_2  and  C_3
REMARK    2  A    between atoms: C_6  and  N_7
REMARK    3  A    between atoms: N_7  and  C_8
REMARK    4  A    between atoms: C_8  and  C_9
REMARK                            x       y       z     vdW  Elec       q    Type
REMARK                         _______ _______ _______ _____ _____    ______ ____
ROOT
ATOM      1  N   UNL     1      44.856   6.106  10.700  0.00  0.00    +0.000 N 
ATOM      2  H   UNL     1      44.225   6.749  10.236  0.00  0.00    +0.000 HD
ENDROOT
BRANCH   1   6
ATOM      3  C   UNL     1      47.216   8.099  13.430  0.00  0.00    +0.000 A 
ATOM      4  C   UNL     1      47.697   6.985  12.765  0.00  0.00    +0.000 A 
ATOM      5  N   UNL     1      46.957   6.301  11.857  0.00  0.00    +0.000 NA
ATOM      6  C   UNL     1      45.701   6.740  11.626  0.00  0.00    +0.000 A 
ATOM      7  C   UNL     1      45.238   7.875  12.305  0.00  0.00    +0.000 A 
ATOM      8  N   UNL     1      45.967   8.576  13.215  0.00  0.00    +0.000 NA
BRANCH   3  10
ATOM      9  N   UNL     1      48.654   9.345  15.190  0.00  0.00    +0.000 NA
ATOM     10  C   UNL     1      48.029   8.789  14.379  0.00  0.00    +0.000 C 
ENDBRANCH   3  10
ENDBRANCH   1   6
BRANCH   1  11
ATOM     11  C   UNL     1      44.456   4.693  10.749  0.00  0.00    +0.000 C 
ATOM     12  C   UNL     1      43.060   4.350  11.249  0.00  0.00    +0.000 C 
ATOM     13  C   UNL     1      44.248   3.883  12.019  0.00  0.00    +0.000 C 
BRANCH  11  14
ATOM     14  C   UNL     1      45.002   3.895   9.569  0.00  0.00    +0.000 A 
ATOM     15  C   UNL     1      45.631   4.553   8.499  0.00  0.00    +0.000 A 
ATOM     16  C   UNL     1      46.329   3.844   7.522  0.00  0.00    +0.000 A 
ATOM     17  C   UNL     1      46.385   2.455   7.582  0.00  0.00    +0.000 A 
ATOM     18  C   UNL     1      45.693   1.775   8.580  0.00  0.00    +0.000 A 
ATOM     19  C   UNL     1      44.992   2.489   9.554  0.00  0.00    +0.000 A 
ENDBRANCH  11  14
ENDBRANCH   1  11
TORSDOF 4
ENDMDL
MODEL 4
REMARK VINA RESULT:    -5.802      3.570      6.337
REMARK INTER + INTRA:          -7.627
REMARK INTER:                  -7.282
REMARK INTRA:                  -0.345
REMARK UNBOUND:                -0.467
REMARK  Name = 
REMARK  4 active torsions:
REMARK  status: ('A' for Active; 'I' for Inactive)
REMARK    1  A    between atoms: C_2  and  C_3
REMARK    2  A    between atoms: C_6  and  N_7
REMARK    3  A    between atoms: N_7  and  C_8
REMARK    4  A    between atoms: C_8  and  C_9
REMARK                            x       y       z     vdW  Elec       q    Type
REMARK                         _______ _______ _______ _____ _____    ______ ____
ROOT
ATOM      1  N   UNL     1      46.824   5.826  12.314  0.00  0.00    +0.000 N 
ATOM      2  H   UNL     1      47.410   6.579  11.973  0.00  0.00    +0.000 HD
ENDROOT
BRANCH   1   6
ATOM      3  C   UNL     1      47.949   4.225  15.942  0.00  0.00    +0.000 A 
ATOM      4  C   UNL     1      48.215   5.550  15.646  0.00  0.00    +0.000 A 
ATOM      5  N   UNL     1      47.860   6.119  14.467  0.00  0.00    +0.000 NA
ATOM      6  C   UNL     1      47.238   5.332  13.562  0.00  0.00    +0.000 A 
ATOM      7  C   UNL     1      46.972   3.995  13.888  0.00  0.00    +0.000 A 
ATOM      8  N   UNL     1      47.317   3.409  15.067  0.00  0.00    +0.000 NA
BRANCH   3  10
ATOM      9  N   UNL     1      48.628   3.170  18.210  0.00  0.00    +0.000 NA
ATOM     10  C   UNL     1      48.342   3.666  17.196  0.00  0.00    +0.000 C 
ENDBRANCH   3  10
ENDBRANCH   1   6
BRANCH   1  11
ATOM     11  C   UNL     1      45.455   5.752  11.787  0.00  0.00    +0.000 C 
ATOM     12  C   UNL     1      44.653   7.040  11.665  0.00  0.00    +0.000 C 
ATOM     13  C   UNL     1      44.188   5.974  12.598  0.00  0.00    +0.000 C 
BRANCH  11  14
ATOM     14  C   UNL     1      45.319   4.725  10.667  0.00  0.00    +0.000 A 
ATOM     15  C   UNL     1      44.670   3.501  10.903  0.00  0.00    +0.000 A 
ATOM     16  C   UNL     1      44.338   2.644   9.855  0.00  0.00    +0.000 A 
ATOM     17  C   UNL     1      44.677   2.983   8.549  0.00  0.00    +0.000 A 
ATOM     18  C   UNL     1      45.401   4.146   8.299  0.00  0.00    +0.000 A 
ATOM     19  C   UNL     1      45.735   5.000   9.352  0.00  0.00    +0.000 A 
ENDBRANCH  11  14
ENDBRANCH   1  11
TORSDOF 4
ENDMDL
MODEL 5
REMARK VINA RESULT:    -5.238      4.044      6.873
REMARK INTER + INTRA:          -6.930
REMARK INTER:                  -6.517
REMARK INTRA:                  -0.413
REMARK UNBOUND:                -0.467
REMARK  Name = 
REMARK  4 active torsions:
REMARK  status: ('A' for Active; 'I' for Inactive)
REMARK    1  A    between atoms: C_2  and  C_3
REMARK    2  A    between atoms: C_6  and  N_7
REMARK    3  A    between atoms: N_7  and  C_8
REMARK    4  A    between atoms: C_8  and  C_9
REMARK                            x       y       z     vdW  Elec       q    Type
REMARK                         _______ _______ _______ _____ _____    ______ ____
ROOT
ATOM      1  N   UNL     1      47.421   5.917  12.947  0.00  0.00    +0.000 N 
ATOM      2  H   UNL     1      48.246   5.887  12.359  0.00  0.00    +0.000 HD
ENDROOT
BRANCH   1   6
ATOM      3  C   UNL     1      48.039   4.643  16.818  0.00  0.00    +0.000 A 
ATOM      4  C   UNL     1      48.715   5.744  16.324  0.00  0.00    +0.000 A 
ATOM      5  N   UNL     1      48.541   6.200  15.058  0.00  0.00    +0.000 NA
ATOM      6  C   UNL     1      47.678   5.522  14.270  0.00  0.00    +0.000 A 
ATOM      7  C   UNL     1      46.998   4.415  14.796  0.00  0.00    +0.000 A 
ATOM      8  N   UNL     1      47.158   3.946  16.063  0.00  0.00    +0.000 NA
BRANCH   3  10
ATOM      9  N   UNL     1      48.482   3.826  19.237  0.00  0.00    +0.000 NA
ATOM     10  C   UNL     1      48.255   4.196  18.157  0.00  0.00    +0.000 C 
ENDBRANCH   3  10
ENDBRANCH   1   6
BRANCH   1  11
ATOM     11  C   UNL     1      46.329   6.804  12.525  0.00  0.00    +0.000 C 
ATOM     12  C   UNL     1      46.682   8.092  11.794  0.00  0.00    +0.000 C 
ATOM     13  C   UNL     1      46.022   8.166  13.128  0.00  0.00    +0.000 C 
BRANCH  11  14
ATOM     14  C   UNL     1      45.104   6.031  12.047  0.00  0.00    +0.000 A 
ATOM     15  C   UNL     1      45.127   5.363  10.810  0.00  0.00    +0.000 A 
ATOM     16  C   UNL     1      44.116   4.474  10.449  0.00  0.00    +0.000 A 
ATOM     17  C   UNL     1      43.043   4.259  11.309  0.00  0.00    +0.000 A 
ATOM     18  C   UNL     1      42.951   4.978  12.497  0.00  0.00    +0.000 A 
ATOM     19  C   UNL     1      43.965   5.870  12.853  0.00  0.00    +0.000 A 
ENDBRANCH  11  14
ENDBRANCH   1  11
TORSDOF 4
ENDMDL
MODEL 6
REMARK VINA RESULT:    -4.778      3.972      6.644
REMARK INTER + INTRA:          -6.363
REMARK INTER:                  -6.150
REMARK INTRA:                  -0.213
REMARK UNBOUND:                -0.467
REMARK  Name = 
REMARK  4 active torsions:
REMARK  status: ('A' for Active; 'I' for Inactive)
REMARK    1  A    between atoms: C_2  and  C_3
REMARK    2  A    between atoms: C_6  and  N_7
REMARK    3  A    between atoms: N_7  and  C_8
REMARK    4  A    between atoms: C_8  and  C_9
REMARK                            x       y       z     vdW  Elec       q    Type
REMARK                         _______ _______ _______ _____ _____    ______ ____
ROOT
ATOM      1  N   UNL     1      47.057   6.500  11.422  0.00  0.00    +0.000 N 
ATOM      2  H   UNL     1      47.474   6.819  10.556  0.00  0.00    +0.000 HD
ENDROOT
BRANCH   1   6
ATOM      3  C   UNL     1      49.243   7.791  14.670  0.00  0.00    +0.000 A 
ATOM      4  C   UNL     1      48.740   6.503  14.628  0.00  0.00    +0.000 A 
ATOM      5  N   UNL     1      48.019   6.035  13.579  0.00  0.00    +0.000 NA
ATOM      6  C   UNL     1      47.787   6.888  12.558  0.00  0.00    +0.000 A 
ATOM      7  C   UNL     1      48.313   8.186  12.619  0.00  0.00    +0.000 A 
ATOM      8  N   UNL     1      49.042   8.670  13.661  0.00  0.00    +0.000 NA
BRANCH   3  10
ATOM      9  N   UNL     1      50.651   8.622  16.681  0.00  0.00    +0.000 NA
ATOM     10  C   UNL     1      49.996   8.243  15.796  0.00  0.00    +0.000 C 
ENDBRANCH   3  10
ENDBRANCH   1   6
BRANCH   1  11
ATOM     11  C   UNL     1      45.619   6.199  11.403  0.00  0.00    +0.000 C 
ATOM     12  C   UNL     1      44.634   7.356  11.508  0.00  0.00    +0.000 C 
ATOM     13  C   UNL     1      44.678   6.331  12.591  0.00  0.00    +0.000 C 
BRANCH  11  14
ATOM     14  C   UNL     1      45.276   5.063  10.445  0.00  0.00    +0.000 A 
ATOM     15  C   UNL     1      45.712   5.106   9.109  0.00  0.00    +0.000 A 
ATOM     16  C   UNL     1      45.607   3.993   8.277  0.00  0.00    +0.000 A 
ATOM     17  C   UNL     1      45.033   2.820   8.758  0.00  0.00    +0.000 A 
ATOM     18  C   UNL     1      44.511   2.781  10.048  0.00  0.00    +0.000 A 
ATOM     19  C   UNL     1      44.615   3.900  10.878  0.00  0.00    +0.000 A 
ENDBRANCH  11  14
ENDBRANCH   1  11
TORSDOF 4
ENDMDL
MODEL 7
REMARK VINA RESULT:    -4.744      4.195      6.495
REMARK INTER + INTRA:          -6.321
REMARK INTER:                  -6.120
REMARK INTRA:                  -0.201
REMARK UNBOUND:                -0.467
REMARK  Name = 
REMARK  4 active torsions:
REMARK  status: ('A' for Active; 'I' for Inactive)
REMARK    1  A    between atoms: C_2  and  C_3
REMARK    2  A    between atoms: C_6  and  N_7
REMARK    3  A    between atoms: N_7  and  C_8
REMARK    4  A    between atoms: C_8  and  C_9
REMARK                            x       y       z     vdW  Elec       q    Type
REMARK                         _______ _______ _______ _____ _____    ______ ____
ROOT
ATOM      1  N   UNL     1      47.953   5.019  15.331  0.00  0.00    +0.000 N 
ATOM      2  H   UNL     1      48.840   5.328  14.950  0.00  0.00    +0.000 HD
ENDROOT
BRANCH   1   6
ATOM      3  C   UNL     1      45.194   3.986  12.448  0.00  0.00    +0.000 A 
ATOM      4  C   UNL     1      46.121   3.063  12.897  0.00  0.00    +0.000 A 
ATOM      5  N   UNL     1      47.044   3.357  13.845  0.00  0.00    +0.000 NA
ATOM      6  C   UNL     1      47.043   4.614  14.341  0.00  0.00    +0.000 A 
ATOM      7  C   UNL     1      46.089   5.530  13.877  0.00  0.00    +0.000 A 
ATOM      8  N   UNL     1      45.153   5.251  12.929  0.00  0.00    +0.000 NA
BRANCH   3  10
ATOM      9  N   UNL     1      43.479   3.294  10.633  0.00  0.00    +0.000 NA
ATOM     10  C   UNL     1      44.240   3.633  11.446  0.00  0.00    +0.000 C 
ENDBRANCH   3  10
ENDBRANCH   1   6
BRANCH   1  11
ATOM     11  C   UNL     1      47.948   4.555  16.725  0.00  0.00    +0.000 C 
ATOM     12  C   UNL     1      48.662   3.253  17.060  0.00  0.00    +0.000 C 
ATOM     13  C   UNL     1      47.186   3.347  17.246  0.00  0.00    +0.000 C 
BRANCH  11  14
ATOM     14  C   UNL     1      48.071   5.706  17.719  0.00  0.00    +0.000 A 
ATOM     15  C   UNL     1      48.773   6.872  17.370  0.00  0.00    +0.000 A 
ATOM     16  C   UNL     1      48.716   8.017  18.164  0.00  0.00    +0.000 A 
ATOM     17  C   UNL     1      47.976   8.006  19.342  0.00  0.00    +0.000 A 
ATOM     18  C   UNL     1      47.346   6.835  19.756  0.00  0.00    +0.000 A 
ATOM     19  C   UNL     1      47.410   5.690  18.960  0.00  0.00    +0.000 A 
ENDBRANCH  11  14
ENDBRANCH   1  11
TORSDOF 4
ENDMDL
MODEL 8
REMARK VINA RESULT:    -4.557      4.132      6.499
REMARK INTER + INTRA:          -6.090
REMARK INTER:                  -5.719
REMARK INTRA:                  -0.371
REMARK UNBOUND:                -0.467
REMARK  Name = 
REMARK  4 active torsions:
REMARK  status: ('A' for Active; 'I' for Inactive)
REMARK    1  A    between atoms: C_2  and  C_3
REMARK    2  A    between atoms: C_6  and  N_7
REMARK    3  A    between atoms: N_7  and  C_8
REMARK    4  A    between atoms: C_8  and  C_9
REMARK                            x       y       z     vdW  Elec       q    Type
REMARK                         _______ _______ _______ _____ _____    ______ ____
ROOT
ATOM      1  N   UNL     1      47.157   6.637  11.695  0.00  0.00    +0.000 N 
ATOM      2  H   UNL     1      47.516   6.785  10.759  0.00  0.00    +0.000 HD
ENDROOT
BRANCH   1   6
ATOM      3  C   UNL     1      49.875   7.225  14.738  0.00  0.00    +0.000 A 
ATOM      4  C   UNL     1      50.001   7.906  13.541  0.00  0.00    +0.000 A 
ATOM      5  N   UNL     1      49.129   7.747  12.514  0.00  0.00    +0.000 NA
ATOM      6  C   UNL     1      48.117   6.870  12.693  0.00  0.00    +0.000 A 
ATOM      7  C   UNL     1      48.005   6.198  13.918  0.00  0.00    +0.000 A 
ATOM      8  N   UNL     1      48.867   6.348  14.959  0.00  0.00    +0.000 NA
BRANCH   3  10
ATOM      9  N   UNL     1      51.547   7.604  16.681  0.00  0.00    +0.000 NA
ATOM     10  C   UNL     1      50.817   7.422  15.792  0.00  0.00    +0.000 C 
ENDBRANCH   3  10
ENDBRANCH   1   6
BRANCH   1  11
ATOM     11  C   UNL     1      45.703   6.742  11.879  0.00  0.00    +0.000 C 
ATOM     12  C   UNL     1      44.971   7.909  11.230  0.00  0.00    +0.000 C 
ATOM     13  C   UNL     1      44.997   7.797  12.717  0.00  0.00    +0.000 C 
BRANCH  11  14
ATOM     14  C   UNL     1      45.016   5.380  11.863  0.00  0.00    +0.000 A 
ATOM     15  C   UNL     1      44.306   4.932  12.991  0.00  0.00    +0.000 A 
ATOM     16  C   UNL     1      43.490   3.803  12.931  0.00  0.00    +0.000 A 
ATOM     17  C   UNL     1      43.394   3.080  11.747  0.00  0.00    +0.000 A 
ATOM     18  C   UNL     1      44.159   3.450  10.643  0.00  0.00    +0.000 A 
ATOM     19  C   UNL     1      44.977   4.580  10.708  0.00  0.00    +0.000 A 
ENDBRANCH  11  14
ENDBRANCH   1  11
TORSDOF 4
ENDMDL
MODEL 9
REMARK VINA RESULT:    -4.535      3.584      5.965
REMARK INTER + INTRA:          -6.063
REMARK INTER:                  -5.626
REMARK INTRA:                  -0.437
REMARK UNBOUND:                -0.467
REMARK  Name = 
REMARK  4 active torsions:
REMARK  status: ('A' for Active; 'I' for Inactive)
REMARK    1  A    between atoms: C_2  and  C_3
REMARK    2  A    between atoms: C_6  and  N_7
REMARK    3  A    between atoms: N_7  and  C_8
REMARK    4  A    between atoms: C_8  and  C_9
REMARK                            x       y       z     vdW  Elec       q    Type
REMARK                         _______ _______ _______ _____ _____    ______ ____
ROOT
ATOM      1  N   UNL     1      48.434   6.570  13.303  0.00  0.00    +0.000 N 
ATOM      2  H   UNL     1      49.124   5.979  13.750  0.00  0.00    +0.000 HD
ENDROOT
BRANCH   1   6
ATOM      3  C   UNL     1      45.134   4.370  12.179  0.00  0.00    +0.000 A 
ATOM      4  C   UNL     1      45.539   5.462  11.432  0.00  0.00    +0.000 A 
ATOM      5  N   UNL     1      46.619   6.212  11.763  0.00  0.00    +0.000 NA
ATOM      6  C   UNL     1      47.297   5.863  12.878  0.00  0.00    +0.000 A 
ATOM      7  C   UNL     1      46.873   4.748  13.614  0.00  0.00    +0.000 A 
ATOM      8  N   UNL     1      45.795   3.982  13.295  0.00  0.00    +0.000 NA
BRANCH   3  10
ATOM      9  N   UNL     1      43.085   2.963  11.447  0.00  0.00    +0.000 NA
ATOM     10  C   UNL     1      43.989   3.609  11.796  0.00  0.00    +0.000 C 
ENDBRANCH   3  10
ENDBRANCH   1   6
BRANCH   1  11
ATOM     11  C   UNL     1      48.465   8.002  13.631  0.00  0.00    +0.000 C 
ATOM     12  C   UNL     1      48.811   8.413  15.056  0.00  0.00    +0.000 C 
ATOM     13  C   UNL     1      47.457   8.723  14.513  0.00  0.00    +0.000 C 
BRANCH  11  14
ATOM     14  C   UNL     1      49.032   8.846  12.494  0.00  0.00    +0.000 A 
ATOM     15  C   UNL     1      48.253   9.857  11.906  0.00  0.00    +0.000 A 
ATOM     16  C   UNL     1      48.812  10.783  11.026  0.00  0.00    +0.000 A 
ATOM     17  C   UNL     1      50.160  10.695  10.693  0.00  0.00    +0.000 A 
ATOM     18  C   UNL     1      50.932   9.648  11.190  0.00  0.00    +0.000 A 
ATOM     19  C   UNL     1      50.367   8.721  12.069  0.00  0.00    +0.000 A 
ENDBRANCH  11  14
ENDBRANCH   1  11
TORSDOF 4
ENDMDL
