MODEL 1
REMARK VINA RESULT:    -7.707      0.000      0.000
REMARK INTER + INTRA:         -10.903
REMARK INTER:                 -10.186
REMARK INTRA:                  -0.717
REMARK UNBOUND:                -0.717
REMARK  Name = 
REMARK  7 active torsions:
REMARK  status: ('A' for Active; 'I' for Inactive)
REMARK    1  A    between atoms: C_1  and  C_2
REMARK    2  A    between atoms: C_4  and  C_5
REMARK    3  A    between atoms: C_10  and  O_11
REMARK    4  A    between atoms: O_11  and  C_12
REMARK    5  A    between atoms: C_12  and  C_13
REMARK    6  A    between atoms: C_16  and  C_17
REMARK    7  A    between atoms: C_17  and  N_18
REMARK                            x       y       z     vdW  Elec       q    Type
REMARK                         _______ _______ _______ _____ _____    ______ ____
ROOT
ATOM      1  C   UNL     1      46.767   3.654  13.477  0.00  0.00    +0.000 C 
ATOM      2  C   UNL     1      46.197   4.936  12.938  0.00  0.00    +0.000 A 
ATOM      3  C   UNL     1      46.864   6.118  13.338  0.00  0.00    +0.000 A 
ATOM      4  C   UNL     1      46.460   7.393  12.920  0.00  0.00    +0.000 A 
ATOM      5  C   UNL     1      45.356   7.499  12.079  0.00  0.00    +0.000 A 
ATOM      6  C   UNL     1      44.685   6.340  11.674  0.00  0.00    +0.000 A 
ATOM      7  C   UNL     1      45.085   5.055  12.088  0.00  0.00    +0.000 A 
ENDROOT
BRANCH   4   8
ATOM      8  C   UNL     1      47.249   8.562  13.409  0.00  0.00    +0.000 C 
ATOM      9  N   UNL     1      47.158   8.916  14.724  0.00  0.00    +0.000 N 
ATOM     10  O   UNL     1      47.971   9.206  12.655  0.00  0.00    +0.000 OA
ATOM     11  H   UNL     1      46.593   8.454  15.417  0.00  0.00    +0.000 HD
ATOM     12  H   UNL     1      47.707   9.716  15.014  0.00  0.00    +0.000 HD
ENDBRANCH   4   8
BRANCH   7  13
ATOM     13  O   UNL     1      44.274   4.092  11.556  0.00  0.00    +0.000 OA
BRANCH  13  14
ATOM     14  C   UNL     1      43.805   4.201  10.220  0.00  0.00    +0.000 C 
BRANCH  14  15
ATOM     15  C   UNL     1      44.752   3.536   9.246  0.00  0.00    +0.000 A 
ATOM     16  C   UNL     1      45.497   4.327   8.357  0.00  0.00    +0.000 A 
ATOM     17  C   UNL     1      46.424   3.746   7.488  0.00  0.00    +0.000 A 
ATOM     18  C   UNL     1      46.634   2.361   7.497  0.00  0.00    +0.000 A 
ATOM     19  C   UNL     1      45.900   1.574   8.394  0.00  0.00    +0.000 A 
ATOM     20  C   UNL     1      44.977   2.155   9.267  0.00  0.00    +0.000 A 
BRANCH  18  21
ATOM     21  C   UNL     1      47.614   1.723   6.546  0.00  0.00    +0.000 C 
BRANCH  21  22
ATOM     22  N   UNL     1      48.760   2.587   6.292  0.00  0.00    +0.000 NA
ATOM     23  H   UNL     1      48.688   2.957   5.346  0.00  0.00    +0.000 HD
ATOM     24  H   UNL     1      49.611   2.031   6.324  0.00  0.00    +0.000 HD
ENDBRANCH  21  22
ENDBRANCH  18  21
ENDBRANCH  14  15
ENDBRANCH  13  14
ENDBRANCH   7  13
TORSDOF 6
ENDMDL
MODEL 2
REMARK VINA RESULT:    -7.552      1.507      2.246
REMARK INTER + INTRA:         -10.697
REMARK INTER:                 -10.160
REMARK INTRA:                  -0.538
REMARK UNBOUND:                -0.717
REMARK  Name = 
REMARK  7 active torsions:
REMARK  status: ('A' for Active; 'I' for Inactive)
REMARK    1  A    between atoms: C_1  and  C_2
REMARK    2  A    between atoms: C_4  and  C_5
REMARK    3  A    between atoms: C_10  and  O_11
REMARK    4  A    between atoms: O_11  and  C_12
REMARK    5  A    between atoms: C_12  and  C_13
REMARK    6  A    between atoms: C_16  and  C_17
REMARK    7  A    between atoms: C_17  and  N_18
REMARK                            x       y       z     vdW  Elec       q    Type
REMARK                         _______ _______ _______ _____ _____    ______ ____
ROOT
ATOM      1  C   UNL     1      44.724   7.351  11.465  0.00  0.00    +0.000 C 
ATOM      2  C   UNL     1      45.299   6.126  12.119  0.00  0.00    +0.000 A 
ATOM      3  C   UNL     1      46.265   6.366  13.125  0.00  0.00    +0.000 A 
ATOM      4  C   UNL     1      46.894   5.332  13.831  0.00  0.00    +0.000 A 
ATOM      5  C   UNL     1      46.554   4.017  13.529  0.00  0.00    +0.000 A 
ATOM      6  C   UNL     1      45.600   3.762  12.537  0.00  0.00    +0.000 A 
ATOM      7  C   UNL     1      44.963   4.795  11.823  0.00  0.00    +0.000 A 
ENDROOT
BRANCH   4   8
ATOM      8  C   UNL     1      47.893   5.716  14.871  0.00  0.00    +0.000 C 
ATOM      9  N   UNL     1      47.667   5.356  16.169  0.00  0.00    +0.000 N 
ATOM     10  O   UNL     1      48.905   6.345  14.584  0.00  0.00    +0.000 OA
ATOM     11  H   UNL     1      46.867   4.844  16.503  0.00  0.00    +0.000 HD
ATOM     12  H   UNL     1      48.368   5.637  16.843  0.00  0.00    +0.000 HD
ENDBRANCH   4   8
BRANCH   7  13
ATOM     13  O   UNL     1      44.074   4.290  10.915  0.00  0.00    +0.000 OA
BRANCH  13  14
ATOM     14  C   UNL     1      44.169   2.939  10.488  0.00  0.00    +0.000 C 
BRANCH  14  15
ATOM     15  C   UNL     1      44.957   2.821   9.202  0.00  0.00    +0.000 A 
ATOM     16  C   UNL     1      45.204   3.972   8.435  0.00  0.00    +0.000 A 
ATOM     17  C   UNL     1      45.980   3.904   7.275  0.00  0.00    +0.000 A 
ATOM     18  C   UNL     1      46.534   2.686   6.862  0.00  0.00    +0.000 A 
ATOM     19  C   UNL     1      46.297   1.541   7.635  0.00  0.00    +0.000 A 
ATOM     20  C   UNL     1      45.526   1.608   8.797  0.00  0.00    +0.000 A 
BRANCH  18  21
ATOM     21  C   UNL     1      47.351   2.599   5.598  0.00  0.00    +0.000 C 
BRANCH  21  22
ATOM     22  N   UNL     1      48.599   1.876   5.813  0.00  0.00    +0.000 NA
ATOM     23  H   UNL     1      49.171   1.956   4.974  0.00  0.00    +0.000 HD
ATOM     24  H   UNL     1      48.396   0.887   5.935  0.00  0.00    +0.000 HD
ENDBRANCH  21  22
ENDBRANCH  18  21
ENDBRANCH  14  15
ENDBRANCH  13  14
ENDBRANCH   7  13
TORSDOF 6
ENDMDL
MODEL 3
REMARK VINA RESULT:    -7.425      1.291      2.177
REMARK INTER + INTRA:         -10.529
REMARK INTER:                  -9.991
REMARK INTRA:                  -0.538
REMARK UNBOUND:                -0.717
REMARK  Name = 
REMARK  7 active torsions:
REMARK  status: ('A' for Active; 'I' for Inactive)
REMARK    1  A    between atoms: C_1  and  C_2
REMARK    2  A    between atoms: C_4  and  C_5
REMARK    3  A    between atoms: C_10  and  O_11
REMARK    4  A    between atoms: O_11  and  C_12
REMARK    5  A    between atoms: C_12  and  C_13
REMARK    6  A    between atoms: C_16  and  C_17
REMARK    7  A    between atoms: C_17  and  N_18
REMARK                            x       y       z     vdW  Elec       q    Type
REMARK                         _______ _______ _______ _____ _____    ______ ____
ROOT
ATOM      1  C   UNL     1      42.405   5.427  11.681  0.00  0.00    +0.000 C 
ATOM      2  C   UNL     1      43.881   5.683  11.795  0.00  0.00    +0.000 A 
ATOM      3  C   UNL     1      44.253   7.031  12.013  0.00  0.00    +0.000 A 
ATOM      4  C   UNL     1      45.588   7.436  12.145  0.00  0.00    +0.000 A 
ATOM      5  C   UNL     1      46.587   6.472  12.055  0.00  0.00    +0.000 A 
ATOM      6  C   UNL     1      46.237   5.134  11.839  0.00  0.00    +0.000 A 
ATOM      7  C   UNL     1      44.899   4.719  11.707  0.00  0.00    +0.000 A 
ENDROOT
BRANCH   4   8
ATOM      8  C   UNL     1      45.849   8.887  12.376  0.00  0.00    +0.000 C 
ATOM      9  N   UNL     1      44.811   9.695  12.739  0.00  0.00    +0.000 N 
ATOM     10  O   UNL     1      46.972   9.363  12.245  0.00  0.00    +0.000 OA
ATOM     11  H   UNL     1      43.857   9.400  12.868  0.00  0.00    +0.000 HD
ATOM     12  H   UNL     1      45.030  10.673  12.884  0.00  0.00    +0.000 HD
ENDBRANCH   4   8
BRANCH   7  13
ATOM     13  O   UNL     1      44.820   3.369  11.507  0.00  0.00    +0.000 OA
BRANCH  13  14
ATOM     14  C   UNL     1      44.152   2.846  10.369  0.00  0.00    +0.000 C 
BRANCH  14  15
ATOM     15  C   UNL     1      45.052   2.847   9.152  0.00  0.00    +0.000 A 
ATOM     16  C   UNL     1      45.668   1.651   8.748  0.00  0.00    +0.000 A 
ATOM     17  C   UNL     1      46.456   1.609   7.595  0.00  0.00    +0.000 A 
ATOM     18  C   UNL     1      46.636   2.758   6.815  0.00  0.00    +0.000 A 
ATOM     19  C   UNL     1      46.010   3.947   7.212  0.00  0.00    +0.000 A 
ATOM     20  C   UNL     1      45.218   3.990   8.363  0.00  0.00    +0.000 A 
BRANCH  18  21
ATOM     21  C   UNL     1      47.504   2.727   5.584  0.00  0.00    +0.000 C 
BRANCH  21  22
ATOM     22  N   UNL     1      48.572   1.741   5.701  0.00  0.00    +0.000 NA
ATOM     23  H   UNL     1      48.937   1.766   6.652  0.00  0.00    +0.000 HD
ATOM     24  H   UNL     1      49.339   2.005   5.088  0.00  0.00    +0.000 HD
ENDBRANCH  21  22
ENDBRANCH  18  21
ENDBRANCH  14  15
ENDBRANCH  13  14
ENDBRANCH   7  13
TORSDOF 6
ENDMDL
MODEL 4
REMARK VINA RESULT:    -7.174      1.932      6.439
REMARK INTER + INTRA:         -10.197
REMARK INTER:                  -9.493
REMARK INTRA:                  -0.704
REMARK UNBOUND:                -0.717
REMARK  Name = 
REMARK  7 active torsions:
REMARK  status: ('A' for Active; 'I' for Inactive)
REMARK    1  A    between atoms: C_1  and  C_2
REMARK    2  A    between atoms: C_4  and  C_5
REMARK    3  A    between atoms: C_10  and  O_11
REMARK    4  A    between atoms: O_11  and  C_12
REMARK    5  A    between atoms: C_12  and  C_13
REMARK    6  A    between atoms: C_16  and  C_17
REMARK    7  A    between atoms: C_17  and  N_18
REMARK                            x       y       z     vdW  Elec       q    Type
REMARK                         _______ _______ _______ _____ _____    ______ ____
ROOT
ATOM      1  C   UNL     1      43.762   1.760  10.488  0.00  0.00    +0.000 C 
ATOM      2  C   UNL     1      44.576   2.542   9.495  0.00  0.00    +0.000 A 
ATOM      3  C   UNL     1      45.539   1.798   8.773  0.00  0.00    +0.000 A 
ATOM      4  C   UNL     1      46.375   2.377   7.810  0.00  0.00    +0.000 A 
ATOM      5  C   UNL     1      46.253   3.740   7.555  0.00  0.00    +0.000 A 
ATOM      6  C   UNL     1      45.306   4.490   8.260  0.00  0.00    +0.000 A 
ATOM      7  C   UNL     1      44.461   3.916   9.229  0.00  0.00    +0.000 A 
ENDROOT
BRANCH   4   8
ATOM      8  C   UNL     1      47.348   1.484   7.114  0.00  0.00    +0.000 C 
ATOM      9  N   UNL     1      48.457   2.037   6.539  0.00  0.00    +0.000 N 
ATOM     10  O   UNL     1      47.170   0.273   7.049  0.00  0.00    +0.000 OA
ATOM     11  H   UNL     1      48.688   3.016   6.536  0.00  0.00    +0.000 HD
ATOM     12  H   UNL     1      49.090   1.397   6.075  0.00  0.00    +0.000 HD
ENDBRANCH   4   8
BRANCH   7  13
ATOM     13  O   UNL     1      43.625   4.853   9.770  0.00  0.00    +0.000 OA
BRANCH  13  14
ATOM     14  C   UNL     1      43.441   4.929  11.176  0.00  0.00    +0.000 C 
BRANCH  14  15
ATOM     15  C   UNL     1      44.711   5.360  11.877  0.00  0.00    +0.000 A 
ATOM     16  C   UNL     1      45.190   6.668  11.694  0.00  0.00    +0.000 A 
ATOM     17  C   UNL     1      46.326   7.114  12.375  0.00  0.00    +0.000 A 
ATOM     18  C   UNL     1      47.001   6.266  13.261  0.00  0.00    +0.000 A 
ATOM     19  C   UNL     1      46.514   4.965  13.452  0.00  0.00    +0.000 A 
ATOM     20  C   UNL     1      45.376   4.520  12.776  0.00  0.00    +0.000 A 
BRANCH  18  21
ATOM     21  C   UNL     1      48.241   6.729  13.980  0.00  0.00    +0.000 C 
BRANCH  21  22
ATOM     22  N   UNL     1      49.413   6.692  13.113  0.00  0.00    +0.000 NA
ATOM     23  H   UNL     1      49.615   5.722  12.878  0.00  0.00    +0.000 HD
ATOM     24  H   UNL     1      50.219   7.042  13.625  0.00  0.00    +0.000 HD
ENDBRANCH  21  22
ENDBRANCH  18  21
ENDBRANCH  14  15
ENDBRANCH  13  14
ENDBRANCH   7  13
TORSDOF 6
ENDMDL
MODEL 5
REMARK VINA RESULT:    -7.097      2.285      6.722
REMARK INTER + INTRA:         -10.096
REMARK INTER:                  -9.313
REMARK INTRA:                  -0.783
REMARK UNBOUND:                -0.717
REMARK  Name = 
REMARK  7 active torsions:
REMARK  status: ('A' for Active; 'I' for Inactive)
REMARK    1  A    between atoms: C_1  and  C_2
REMARK    2  A    between atoms: C_4  and  C_5
REMARK    3  A    between atoms: C_10  and  O_11
REMARK    4  A    between atoms: O_11  and  C_12
REMARK    5  A    between atoms: C_12  and  C_13
REMARK    6  A    between atoms: C_16  and  C_17
REMARK    7  A    between atoms: C_17  and  N_18
REMARK                            x       y       z     vdW  Elec       q    Type
REMARK                         _______ _______ _______ _____ _____    ______ ____
ROOT
ATOM      1  C   UNL     1      44.091   2.060  10.270  0.00  0.00    +0.000 C 
ATOM      2  C   UNL     1      44.972   2.849   9.342  0.00  0.00    +0.000 A 
ATOM      3  C   UNL     1      45.776   2.084   8.465  0.00  0.00    +0.000 A 
ATOM      4  C   UNL     1      46.649   2.668   7.537  0.00  0.00    +0.000 A 
ATOM      5  C   UNL     1      46.727   4.056   7.479  0.00  0.00    +0.000 A 
ATOM      6  C   UNL     1      45.938   4.827   8.339  0.00  0.00    +0.000 A 
ATOM      7  C   UNL     1      45.058   4.249   9.274  0.00  0.00    +0.000 A 
ENDROOT
BRANCH   4   8
ATOM      8  C   UNL     1      47.442   1.752   6.665  0.00  0.00    +0.000 C 
ATOM      9  N   UNL     1      48.564   2.231   6.052  0.00  0.00    +0.000 N 
ATOM     10  O   UNL     1      47.105   0.586   6.488  0.00  0.00    +0.000 OA
ATOM     11  H   UNL     1      48.919   3.170   6.132  0.00  0.00    +0.000 HD
ATOM     12  H   UNL     1      49.071   1.579   5.467  0.00  0.00    +0.000 HD
ENDBRANCH   4   8
BRANCH   7  13
ATOM     13  O   UNL     1      44.401   5.210   9.991  0.00  0.00    +0.000 OA
BRANCH  13  14
ATOM     14  C   UNL     1      45.123   6.249  10.635  0.00  0.00    +0.000 C 
BRANCH  14  15
ATOM     15  C   UNL     1      45.718   5.777  11.944  0.00  0.00    +0.000 A 
ATOM     16  C   UNL     1      45.059   4.781  12.683  0.00  0.00    +0.000 A 
ATOM     17  C   UNL     1      45.616   4.282  13.864  0.00  0.00    +0.000 A 
ATOM     18  C   UNL     1      46.847   4.762  14.327  0.00  0.00    +0.000 A 
ATOM     19  C   UNL     1      47.510   5.747  13.581  0.00  0.00    +0.000 A 
ATOM     20  C   UNL     1      46.957   6.242  12.398  0.00  0.00    +0.000 A 
BRANCH  18  21
ATOM     21  C   UNL     1      47.443   4.248  15.612  0.00  0.00    +0.000 C 
BRANCH  21  22
ATOM     22  N   UNL     1      47.955   2.891  15.464  0.00  0.00    +0.000 NA
ATOM     23  H   UNL     1      47.590   2.496  14.599  0.00  0.00    +0.000 HD
ATOM     24  H   UNL     1      47.597   2.315  16.221  0.00  0.00    +0.000 HD
ENDBRANCH  21  22
ENDBRANCH  18  21
ENDBRANCH  14  15
ENDBRANCH  13  14
ENDBRANCH   7  13
TORSDOF 6
ENDMDL
MODEL 6
REMARK VINA RESULT:    -5.800      4.398      7.741
REMARK INTER + INTRA:          -8.382
REMARK INTER:                  -7.899
REMARK INTRA:                  -0.483
REMARK UNBOUND:                -0.717
REMARK  Name = 
REMARK  7 active torsions:
REMARK  status: ('A' for Active; 'I' for Inactive)
REMARK    1  A    between atoms: C_1  and  C_2
REMARK    2  A    between atoms: C_4  and  C_5
REMARK    3  A    between atoms: C_10  and  O_11
REMARK    4  A    between atoms: O_11  and  C_12
REMARK    5  A    between atoms: C_12  and  C_13
REMARK    6  A    between atoms: C_16  and  C_17
REMARK    7  A    between atoms: C_17  and  N_18
REMARK                            x       y       z     vdW  Elec       q    Type
REMARK                         _______ _______ _______ _____ _____    ______ ____
ROOT
ATOM      1  C   UNL     1      46.710   7.555  12.988  0.00  0.00    +0.000 C 
ATOM      2  C   UNL     1      46.396   6.086  12.939  0.00  0.00    +0.000 A 
ATOM      3  C   UNL     1      45.560   5.675  11.874  0.00  0.00    +0.000 A 
ATOM      4  C   UNL     1      45.175   4.341  11.685  0.00  0.00    +0.000 A 
ATOM      5  C   UNL     1      45.635   3.383  12.584  0.00  0.00    +0.000 A 
ATOM      6  C   UNL     1      46.462   3.772  13.643  0.00  0.00    +0.000 A 
ATOM      7  C   UNL     1      46.854   5.110  13.839  0.00  0.00    +0.000 A 
ENDROOT
BRANCH   4   8
ATOM      8  C   UNL     1      44.293   4.035  10.521  0.00  0.00    +0.000 C 
ATOM      9  N   UNL     1      44.508   4.687   9.341  0.00  0.00    +0.000 N 
ATOM     10  O   UNL     1      43.384   3.216  10.606  0.00  0.00    +0.000 OA
ATOM     11  H   UNL     1      45.223   5.376   9.174  0.00  0.00    +0.000 HD
ATOM     12  H   UNL     1      43.886   4.452   8.577  0.00  0.00    +0.000 HD
ENDBRANCH   4   8
BRANCH   7  13
ATOM     13  O   UNL     1      47.662   5.231  14.935  0.00  0.00    +0.000 OA
BRANCH  13  14
ATOM     14  C   UNL     1      47.474   4.392  16.066  0.00  0.00    +0.000 C 
BRANCH  14  15
ATOM     15  C   UNL     1      48.793   3.862  16.584  0.00  0.00    +0.000 A 
ATOM     16  C   UNL     1      49.761   4.762  17.059  0.00  0.00    +0.000 A 
ATOM     17  C   UNL     1      50.963   4.298  17.599  0.00  0.00    +0.000 A 
ATOM     18  C   UNL     1      51.219   2.924  17.687  0.00  0.00    +0.000 A 
ATOM     19  C   UNL     1      50.246   2.027  17.225  0.00  0.00    +0.000 A 
ATOM     20  C   UNL     1      49.042   2.489  16.689  0.00  0.00    +0.000 A 
BRANCH  18  21
ATOM     21  C   UNL     1      52.523   2.416  18.245  0.00  0.00    +0.000 C 
BRANCH  21  22
ATOM     22  N   UNL     1      52.565   0.958  18.274  0.00  0.00    +0.000 NA
ATOM     23  H   UNL     1      51.646   0.610  18.544  0.00  0.00    +0.000 HD
ATOM     24  H   UNL     1      53.214   0.657  18.996  0.00  0.00    +0.000 HD
ENDBRANCH  21  22
ENDBRANCH  18  21
ENDBRANCH  14  15
ENDBRANCH  13  14
ENDBRANCH   7  13
TORSDOF 6
ENDMDL
MODEL 7
REMARK VINA RESULT:    -5.785      3.433      4.497
REMARK INTER + INTRA:          -8.362
REMARK INTER:                  -7.871
REMARK INTRA:                  -0.491
REMARK UNBOUND:                -0.717
REMARK  Name = 
REMARK  7 active torsions:
REMARK  status: ('A' for Active; 'I' for Inactive)
REMARK    1  A    between atoms: C_1  and  C_2
REMARK    2  A    between atoms: C_4  and  C_5
REMARK    3  A    between atoms: C_10  and  O_11
REMARK    4  A    between atoms: O_11  and  C_12
REMARK    5  A    between atoms: C_12  and  C_13
REMARK    6  A    between atoms: C_16  and  C_17
REMARK    7  A    between atoms: C_17  and  N_18
REMARK                            x       y       z     vdW  Elec       q    Type
REMARK                         _______ _______ _______ _____ _____    ______ ____
ROOT
ATOM      1  C   UNL     1      48.829   7.558  15.057  0.00  0.00    +0.000 C 
ATOM      2  C   UNL     1      48.321   6.180  15.376  0.00  0.00    +0.000 A 
ATOM      3  C   UNL     1      48.899   5.564  16.511  0.00  0.00    +0.000 A 
ATOM      4  C   UNL     1      48.533   4.282  16.943  0.00  0.00    +0.000 A 
ATOM      5  C   UNL     1      47.563   3.589  16.225  0.00  0.00    +0.000 A 
ATOM      6  C   UNL     1      46.981   4.185  15.101  0.00  0.00    +0.000 A 
ATOM      7  C   UNL     1      47.342   5.472  14.659  0.00  0.00    +0.000 A 
ENDROOT
BRANCH   4   8
ATOM      8  C   UNL     1      49.213   3.743  18.157  0.00  0.00    +0.000 C 
ATOM      9  N   UNL     1      48.456   3.402  19.242  0.00  0.00    +0.000 N 
ATOM     10  O   UNL     1      50.431   3.604  18.199  0.00  0.00    +0.000 OA
ATOM     11  H   UNL     1      47.455   3.483  19.306  0.00  0.00    +0.000 HD
ATOM     12  H   UNL     1      48.957   3.043  20.045  0.00  0.00    +0.000 HD
ENDBRANCH   4   8
BRANCH   7  13
ATOM     13  O   UNL     1      46.632   5.828  13.547  0.00  0.00    +0.000 OA
BRANCH  13  14
ATOM     14  C   UNL     1      45.397   5.195  13.247  0.00  0.00    +0.000 C 
BRANCH  14  15
ATOM     15  C   UNL     1      45.332   4.776  11.794  0.00  0.00    +0.000 A 
ATOM     16  C   UNL     1      45.721   5.683  10.795  0.00  0.00    +0.000 A 
ATOM     17  C   UNL     1      45.728   5.304   9.450  0.00  0.00    +0.000 A 
ATOM     18  C   UNL     1      45.358   4.007   9.076  0.00  0.00    +0.000 A 
ATOM     19  C   UNL     1      44.983   3.098  10.075  0.00  0.00    +0.000 A 
ATOM     20  C   UNL     1      44.979   3.474  11.420  0.00  0.00    +0.000 A 
BRANCH  18  21
ATOM     21  C   UNL     1      45.339   3.597   7.626  0.00  0.00    +0.000 C 
BRANCH  21  22
ATOM     22  N   UNL     1      46.538   4.041   6.925  0.00  0.00    +0.000 NA
ATOM     23  H   UNL     1      47.137   3.235   6.757  0.00  0.00    +0.000 HD
ATOM     24  H   UNL     1      47.062   4.673   7.526  0.00  0.00    +0.000 HD
ENDBRANCH  21  22
ENDBRANCH  18  21
ENDBRANCH  14  15
ENDBRANCH  13  14
ENDBRANCH   7  13
TORSDOF 6
ENDMDL
MODEL 8
REMARK VINA RESULT:    -5.515      1.701      2.111
REMARK INTER + INTRA:          -8.005
REMARK INTER:                  -8.336
REMARK INTRA:                   0.331
REMARK UNBOUND:                -0.717
REMARK  Name = 
REMARK  7 active torsions:
REMARK  status: ('A' for Active; 'I' for Inactive)
REMARK    1  A    between atoms: C_1  and  C_2
REMARK    2  A    between atoms: C_4  and  C_5
REMARK    3  A    between atoms: C_10  and  O_11
REMARK    4  A    between atoms: O_11  and  C_12
REMARK    5  A    between atoms: C_12  and  C_13
REMARK    6  A    between atoms: C_16  and  C_17
REMARK    7  A    between atoms: C_17  and  N_18
REMARK                            x       y       z     vdW  Elec       q    Type
REMARK                         _______ _______ _______ _____ _____    ______ ____
ROOT
ATOM      1  C   UNL     1      46.714   4.335  14.116  0.00  0.00    +0.000 C 
ATOM      2  C   UNL     1      46.697   5.675  13.436  0.00  0.00    +0.000 A 
ATOM      3  C   UNL     1      47.946   6.336  13.358  0.00  0.00    +0.000 A 
ATOM      4  C   UNL     1      48.101   7.591  12.753  0.00  0.00    +0.000 A 
ATOM      5  C   UNL     1      46.980   8.210  12.210  0.00  0.00    +0.000 A 
ATOM      6  C   UNL     1      45.738   7.570  12.278  0.00  0.00    +0.000 A 
ATOM      7  C   UNL     1      45.573   6.309  12.883  0.00  0.00    +0.000 A 
ENDROOT
BRANCH   4   8
ATOM      8  C   UNL     1      49.471   8.182  12.732  0.00  0.00    +0.000 C 
ATOM      9  N   UNL     1      49.743   9.186  11.847  0.00  0.00    +0.000 N 
ATOM     10  O   UNL     1      50.351   7.784  13.488  0.00  0.00    +0.000 OA
ATOM     11  H   UNL     1      49.092   9.576  11.187  0.00  0.00    +0.000 HD
ATOM     12  H   UNL     1      50.685   9.557  11.863  0.00  0.00    +0.000 HD
ENDBRANCH   4   8
BRANCH   7  13
ATOM     13  O   UNL     1      44.271   5.899  12.819  0.00  0.00    +0.000 OA
BRANCH  13  14
ATOM     14  C   UNL     1      43.954   4.551  12.504  0.00  0.00    +0.000 C 
BRANCH  14  15
ATOM     15  C   UNL     1      44.391   4.195  11.100  0.00  0.00    +0.000 A 
ATOM     16  C   UNL     1      45.043   5.159  10.314  0.00  0.00    +0.000 A 
ATOM     17  C   UNL     1      45.512   4.841   9.036  0.00  0.00    +0.000 A 
ATOM     18  C   UNL     1      45.347   3.549   8.521  0.00  0.00    +0.000 A 
ATOM     19  C   UNL     1      44.707   2.585   9.311  0.00  0.00    +0.000 A 
ATOM     20  C   UNL     1      44.243   2.900  10.591  0.00  0.00    +0.000 A 
BRANCH  18  21
ATOM     21  C   UNL     1      45.826   3.205   7.134  0.00  0.00    +0.000 C 
BRANCH  21  22
ATOM     22  N   UNL     1      46.822   4.156   6.656  0.00  0.00    +0.000 NA
ATOM     23  H   UNL     1      47.510   4.307   7.392  0.00  0.00    +0.000 HD
ATOM     24  H   UNL     1      46.373   5.054   6.489  0.00  0.00    +0.000 HD
ENDBRANCH  21  22
ENDBRANCH  18  21
ENDBRANCH  14  15
ENDBRANCH  13  14
ENDBRANCH   7  13
TORSDOF 6
ENDMDL
MODEL 9
REMARK VINA RESULT:    -5.488      3.416      6.513
REMARK INTER + INTRA:          -7.970
REMARK INTER:                  -7.456
REMARK INTRA:                  -0.514
REMARK UNBOUND:                -0.717
REMARK  Name = 
REMARK  7 active torsions:
REMARK  status: ('A' for Active; 'I' for Inactive)
REMARK    1  A    between atoms: C_1  and  C_2
REMARK    2  A    between atoms: C_4  and  C_5
REMARK    3  A    between atoms: C_10  and  O_11
REMARK    4  A    between atoms: O_11  and  C_12
REMARK    5  A    between atoms: C_12  and  C_13
REMARK    6  A    between atoms: C_16  and  C_17
REMARK    7  A    between atoms: C_17  and  N_18
REMARK                            x       y       z     vdW  Elec       q    Type
REMARK                         _______ _______ _______ _____ _____    ______ ____
ROOT
ATOM      1  C   UNL     1      46.873   4.417  14.659  0.00  0.00    +0.000 C 
ATOM      2  C   UNL     1      46.311   4.791  13.316  0.00  0.00    +0.000 A 
ATOM      3  C   UNL     1      45.518   3.801  12.688  0.00  0.00    +0.000 A 
ATOM      4  C   UNL     1      44.920   3.994  11.436  0.00  0.00    +0.000 A 
ATOM      5  C   UNL     1      45.116   5.207  10.784  0.00  0.00    +0.000 A 
ATOM      6  C   UNL     1      45.897   6.197  11.391  0.00  0.00    +0.000 A 
ATOM      7  C   UNL     1      46.501   6.013  12.649  0.00  0.00    +0.000 A 
ENDROOT
BRANCH   4   8
ATOM      8  C   UNL     1      44.104   2.874  10.882  0.00  0.00    +0.000 C 
ATOM      9  N   UNL     1      44.575   2.186   9.800  0.00  0.00    +0.000 N 
ATOM     10  O   UNL     1      43.025   2.563  11.376  0.00  0.00    +0.000 OA
ATOM     11  H   UNL     1      45.443   2.368   9.324  0.00  0.00    +0.000 HD
ATOM     12  H   UNL     1      43.990   1.436   9.454  0.00  0.00    +0.000 HD
ENDBRANCH   4   8
BRANCH   7  13
ATOM     13  O   UNL     1      47.206   7.122  13.024  0.00  0.00    +0.000 OA
BRANCH  13  14
ATOM     14  C   UNL     1      47.177   8.298  12.229  0.00  0.00    +0.000 C 
BRANCH  14  15
ATOM     15  C   UNL     1      48.560   8.668  11.740  0.00  0.00    +0.000 A 
ATOM     16  C   UNL     1      48.854  10.010  11.449  0.00  0.00    +0.000 A 
ATOM     17  C   UNL     1      50.140  10.390  11.054  0.00  0.00    +0.000 A 
ATOM     18  C   UNL     1      51.162   9.438  10.952  0.00  0.00    +0.000 A 
ATOM     19  C   UNL     1      50.870   8.101  11.256  0.00  0.00    +0.000 A 
ATOM     20  C   UNL     1      49.587   7.721  11.655  0.00  0.00    +0.000 A 
BRANCH  18  21
ATOM     21  C   UNL     1      52.544   9.835  10.503  0.00  0.00    +0.000 C 
BRANCH  21  22
ATOM     22  N   UNL     1      52.814   9.397   9.138  0.00  0.00    +0.000 NA
ATOM     23  H   UNL     1      52.450   8.454   9.020  0.00  0.00    +0.000 HD
ATOM     24  H   UNL     1      53.819   9.342   8.998  0.00  0.00    +0.000 HD
ENDBRANCH  21  22
ENDBRANCH  18  21
ENDBRANCH  14  15
ENDBRANCH  13  14
ENDBRANCH   7  13
TORSDOF 6
ENDMDL
