MODEL 1
REMARK VINA RESULT:    -9.069      0.000      0.000
REMARK INTER + INTRA:         -14.172
REMARK INTER:                 -13.045
REMARK INTRA:                  -1.127
REMARK UNBOUND:                -1.127
REMARK  Name = 
REMARK  8 active torsions:
REMARK  status: ('A' for Active; 'I' for Inactive)
REMARK    1  A    between atoms: C_2  and  C_5
REMARK    2  A    between atoms: N_3  and  O_4
REMARK    3  A    between atoms: C_8  and  N_9
REMARK    4  A    between atoms: N_9  and  C_10
REMARK    5  A    between atoms: C_10  and  C_11
REMARK    6  A    between atoms: C_11  and  C_14
REMARK    7  A    between atoms: C_18  and  O_19
REMARK    8  A    between atoms: O_19  and  C_20
REMARK                            x       y       z     vdW  Elec       q    Type
REMARK                         _______ _______ _______ _____ _____    ______ ____
ROOT
ATOM      1  C   UNL     1      43.429   5.004  11.177  0.00  0.00    +0.000 C 
ENDROOT
BRANCH   1   2
ATOM      2  C   UNL     1      43.878   4.848  12.654  0.00  0.00    +0.000 C 
ATOM      3  F   UNL     1      43.027   5.548  13.459  0.00  0.00    +0.000 F 
ATOM      4  F   UNL     1      43.714   3.536  13.011  0.00  0.00    +0.000 F 
BRANCH   2   5
ATOM      5  C   UNL     1      45.313   5.311  12.798  0.00  0.00    +0.000 A 
ATOM      6  C   UNL     1      45.870   6.224  11.893  0.00  0.00    +0.000 A 
ATOM      7  C   UNL     1      47.166   6.706  12.086  0.00  0.00    +0.000 A 
ATOM      8  C   UNL     1      47.922   6.280  13.182  0.00  0.00    +0.000 A 
ATOM      9  C   UNL     1      47.384   5.362  14.079  0.00  0.00    +0.000 A 
ATOM     10  C   UNL     1      46.087   4.882  13.888  0.00  0.00    +0.000 A 
BRANCH   9  11
ATOM     11  O   UNL     1      48.015   4.902  15.206  0.00  0.00    +0.000 OA
BRANCH  11  12
ATOM     12  C   UNL     1      47.249   4.162  16.185  0.00  0.00    +0.000 C 
ATOM     13  C   UNL     1      47.219   4.695  17.631  0.00  0.00    +0.000 C 
ATOM     14  N   UNL     1      47.633   3.380  18.142  0.00  0.00    +0.000 NA
ATOM     15  C   UNL     1      47.976   2.940  16.781  0.00  0.00    +0.000 C 
ATOM     16  H   UNL     1      46.881   2.845  18.572  0.00  0.00    +0.000 HD
ENDBRANCH  11  12
ENDBRANCH   9  11
ENDBRANCH   2   5
ENDBRANCH   1   2
BRANCH   1  17
ATOM     17  N   UNL     1      43.420   3.737  10.426  0.00  0.00    +0.000 N 
ATOM     18  H   UNL     1      43.049   2.944  10.948  0.00  0.00    +0.000 HD
BRANCH  17  22
ATOM     19  C   UNL     1      46.402   2.601   7.671  0.00  0.00    +0.000 A 
ATOM     20  C   UNL     1      46.109   3.956   7.843  0.00  0.00    +0.000 A 
ATOM     21  C   UNL     1      45.131   4.349   8.763  0.00  0.00    +0.000 A 
ATOM     22  C   UNL     1      44.465   3.414   9.562  0.00  0.00    +0.000 A 
ATOM     23  C   UNL     1      44.780   2.058   9.384  0.00  0.00    +0.000 A 
ATOM     24  C   UNL     1      45.739   1.649   8.450  0.00  0.00    +0.000 A 
BRANCH  19  26
ATOM     25  O   UNL     1      48.309   1.414   6.922  0.00  0.00    +0.000 OA
ATOM     26  C   UNL     1      47.415   2.214   6.659  0.00  0.00    +0.000 C 
ATOM     27  N   UNL     1      47.321   2.843   5.439  0.00  0.00    +0.000 N 
ATOM     28  H   UNL     1      46.866   3.743   5.339  0.00  0.00    +0.000 HD
BRANCH  27  29
ATOM     29  O   UNL     1      48.406   2.597   4.561  0.00  0.00    +0.000 OA
ATOM     30  H   UNL     1      48.262   1.657   4.311  0.00  0.00    +0.000 HD
ENDBRANCH  27  29
ENDBRANCH  19  26
ENDBRANCH  17  22
ENDBRANCH   1  17
TORSDOF 8
ENDMDL
MODEL 2
REMARK VINA RESULT:    -7.814      2.334      3.395
REMARK INTER + INTRA:         -12.367
REMARK INTER:                 -11.526
REMARK INTRA:                  -0.841
REMARK UNBOUND:                -1.127
REMARK  Name = 
REMARK  8 active torsions:
REMARK  status: ('A' for Active; 'I' for Inactive)
REMARK    1  A    between atoms: C_2  and  C_5
REMARK    2  A    between atoms: N_3  and  O_4
REMARK    3  A    between atoms: C_8  and  N_9
REMARK    4  A    between atoms: N_9  and  C_10
REMARK    5  A    between atoms: C_10  and  C_11
REMARK    6  A    between atoms: C_11  and  C_14
REMARK    7  A    between atoms: C_18  and  O_19
REMARK    8  A    between atoms: O_19  and  C_20
REMARK                            x       y       z     vdW  Elec       q    Type
REMARK                         _______ _______ _______ _____ _____    ______ ____
ROOT
ATOM      1  C   UNL     1      43.590   4.003  11.844  0.00  0.00    +0.000 C 
ENDROOT
BRANCH   1   2
ATOM      2  C   UNL     1      43.622   5.428  12.458  0.00  0.00    +0.000 C 
ATOM      3  F   UNL     1      43.215   6.331  11.519  0.00  0.00    +0.000 F 
ATOM      4  F   UNL     1      42.676   5.485  13.446  0.00  0.00    +0.000 F 
BRANCH   2   5
ATOM      5  C   UNL     1      45.015   5.727  12.973  0.00  0.00    +0.000 A 
ATOM      6  C   UNL     1      45.799   4.722  13.555  0.00  0.00    +0.000 A 
ATOM      7  C   UNL     1      47.111   4.991  13.948  0.00  0.00    +0.000 A 
ATOM      8  C   UNL     1      47.655   6.266  13.769  0.00  0.00    +0.000 A 
ATOM      9  C   UNL     1      46.880   7.276  13.206  0.00  0.00    +0.000 A 
ATOM     10  C   UNL     1      45.568   7.006  12.810  0.00  0.00    +0.000 A 
BRANCH   9  11
ATOM     11  O   UNL     1      47.315   8.550  12.948  0.00  0.00    +0.000 OA
BRANCH  11  12
ATOM     12  C   UNL     1      48.735   8.797  12.837  0.00  0.00    +0.000 C 
ATOM     13  C   UNL     1      49.192  10.207  12.410  0.00  0.00    +0.000 C 
ATOM     14  N   UNL     1      50.022   9.632  11.341  0.00  0.00    +0.000 NA
ATOM     15  C   UNL     1      49.369   8.325  11.513  0.00  0.00    +0.000 C 
ATOM     16  H   UNL     1      51.019   9.625  11.546  0.00  0.00    +0.000 HD
ENDBRANCH  11  12
ENDBRANCH   9  11
ENDBRANCH   2   5
ENDBRANCH   1   2
BRANCH   1  17
ATOM     17  N   UNL     1      43.396   3.994  10.384  0.00  0.00    +0.000 N 
ATOM     18  H   UNL     1      42.467   3.694  10.088  0.00  0.00    +0.000 HD
BRANCH  17  22
ATOM     19  C   UNL     1      46.326   2.618   7.685  0.00  0.00    +0.000 A 
ATOM     20  C   UNL     1      46.011   3.978   7.718  0.00  0.00    +0.000 A 
ATOM     21  C   UNL     1      45.049   4.451   8.618  0.00  0.00    +0.000 A 
ATOM     22  C   UNL     1      44.423   3.597   9.531  0.00  0.00    +0.000 A 
ATOM     23  C   UNL     1      44.761   2.235   9.491  0.00  0.00    +0.000 A 
ATOM     24  C   UNL     1      45.703   1.745   8.579  0.00  0.00    +0.000 A 
BRANCH  19  26
ATOM     25  O   UNL     1      48.078   1.208   6.943  0.00  0.00    +0.000 OA
ATOM     26  C   UNL     1      47.320   2.141   6.692  0.00  0.00    +0.000 C 
ATOM     27  N   UNL     1      47.373   2.839   5.508  0.00  0.00    +0.000 N 
ATOM     28  H   UNL     1      47.056   3.800   5.442  0.00  0.00    +0.000 HD
BRANCH  27  29
ATOM     29  O   UNL     1      48.452   2.485   4.659  0.00  0.00    +0.000 OA
ATOM     30  H   UNL     1      48.001   1.963   3.958  0.00  0.00    +0.000 HD
ENDBRANCH  27  29
ENDBRANCH  19  26
ENDBRANCH  17  22
ENDBRANCH   1  17
TORSDOF 8
ENDMDL
MODEL 3
REMARK VINA RESULT:    -7.556      2.151      8.295
REMARK INTER + INTRA:         -11.996
REMARK INTER:                 -11.196
REMARK INTRA:                  -0.800
REMARK UNBOUND:                -1.127
REMARK  Name = 
REMARK  8 active torsions:
REMARK  status: ('A' for Active; 'I' for Inactive)
REMARK    1  A    between atoms: C_2  and  C_5
REMARK    2  A    between atoms: N_3  and  O_4
REMARK    3  A    between atoms: C_8  and  N_9
REMARK    4  A    between atoms: N_9  and  C_10
REMARK    5  A    between atoms: C_10  and  C_11
REMARK    6  A    between atoms: C_11  and  C_14
REMARK    7  A    between atoms: C_18  and  O_19
REMARK    8  A    between atoms: O_19  and  C_20
REMARK                            x       y       z     vdW  Elec       q    Type
REMARK                         _______ _______ _______ _____ _____    ______ ____
ROOT
ATOM      1  C   UNL     1      46.668   6.419  11.812  0.00  0.00    +0.000 C 
ENDROOT
BRANCH   1   2
ATOM      2  C   UNL     1      45.182   6.172  11.438  0.00  0.00    +0.000 C 
ATOM      3  F   UNL     1      44.444   6.066  12.581  0.00  0.00    +0.000 F 
ATOM      4  F   UNL     1      44.713   7.293  10.808  0.00  0.00    +0.000 F 
BRANCH   2   5
ATOM      5  C   UNL     1      45.077   4.934  10.571  0.00  0.00    +0.000 A 
ATOM      6  C   UNL     1      44.308   3.834  10.976  0.00  0.00    +0.000 A 
ATOM      7  C   UNL     1      44.151   2.736  10.129  0.00  0.00    +0.000 A 
ATOM      8  C   UNL     1      44.764   2.718   8.873  0.00  0.00    +0.000 A 
ATOM      9  C   UNL     1      45.543   3.798   8.468  0.00  0.00    +0.000 A 
ATOM     10  C   UNL     1      45.697   4.899   9.313  0.00  0.00    +0.000 A 
BRANCH   9  11
ATOM     11  O   UNL     1      46.159   3.910   7.248  0.00  0.00    +0.000 OA
BRANCH  11  12
ATOM     12  C   UNL     1      46.530   2.707   6.537  0.00  0.00    +0.000 C 
ATOM     13  C   UNL     1      47.772   1.934   7.026  0.00  0.00    +0.000 C 
ATOM     14  N   UNL     1      48.336   1.950   5.669  0.00  0.00    +0.000 NA
ATOM     15  C   UNL     1      47.340   2.946   5.247  0.00  0.00    +0.000 C 
ATOM     16  H   UNL     1      48.265   1.060   5.177  0.00  0.00    +0.000 HD
ENDBRANCH  11  12
ENDBRANCH   9  11
ENDBRANCH   2   5
ENDBRANCH   1   2
BRANCH   1  17
ATOM     17  N   UNL     1      46.860   6.879  13.197  0.00  0.00    +0.000 N 
ATOM     18  H   UNL     1      47.211   7.834  13.276  0.00  0.00    +0.000 HD
BRANCH  17  22
ATOM     19  C   UNL     1      48.228   4.441  16.352  0.00  0.00    +0.000 A 
ATOM     20  C   UNL     1      47.281   3.936  15.458  0.00  0.00    +0.000 A 
ATOM     21  C   UNL     1      46.828   4.729  14.398  0.00  0.00    +0.000 A 
ATOM     22  C   UNL     1      47.339   6.012  14.177  0.00  0.00    +0.000 A 
ATOM     23  C   UNL     1      48.298   6.498  15.079  0.00  0.00    +0.000 A 
ATOM     24  C   UNL     1      48.743   5.724  16.157  0.00  0.00    +0.000 A 
BRANCH  19  26
ATOM     25  O   UNL     1      49.491   2.698  17.341  0.00  0.00    +0.000 OA
ATOM     26  C   UNL     1      48.659   3.590  17.488  0.00  0.00    +0.000 C 
ATOM     27  N   UNL     1      48.033   3.827  18.690  0.00  0.00    +0.000 N 
ATOM     28  H   UNL     1      47.117   4.258  18.737  0.00  0.00    +0.000 HD
BRANCH  27  29
ATOM     29  O   UNL     1      48.325   2.882  19.706  0.00  0.00    +0.000 OA
ATOM     30  H   UNL     1      48.716   3.447  20.409  0.00  0.00    +0.000 HD
ENDBRANCH  27  29
ENDBRANCH  19  26
ENDBRANCH  17  22
ENDBRANCH   1  17
TORSDOF 8
ENDMDL
MODEL 4
REMARK VINA RESULT:    -7.526      1.993      2.532
REMARK INTER + INTRA:         -11.953
REMARK INTER:                 -11.025
REMARK INTRA:                  -0.929
REMARK UNBOUND:                -1.127
REMARK  Name = 
REMARK  8 active torsions:
REMARK  status: ('A' for Active; 'I' for Inactive)
REMARK    1  A    between atoms: C_2  and  C_5
REMARK    2  A    between atoms: N_3  and  O_4
REMARK    3  A    between atoms: C_8  and  N_9
REMARK    4  A    between atoms: N_9  and  C_10
REMARK    5  A    between atoms: C_10  and  C_11
REMARK    6  A    between atoms: C_11  and  C_14
REMARK    7  A    between atoms: C_18  and  O_19
REMARK    8  A    between atoms: O_19  and  C_20
REMARK                            x       y       z     vdW  Elec       q    Type
REMARK                         _______ _______ _______ _____ _____    ______ ____
ROOT
ATOM      1  C   UNL     1      44.929   5.128  12.032  0.00  0.00    +0.000 C 
ENDROOT
BRANCH   1   2
ATOM      2  C   UNL     1      45.301   6.634  12.085  0.00  0.00    +0.000 C 
ATOM      3  F   UNL     1      44.978   7.218  10.895  0.00  0.00    +0.000 F 
ATOM      4  F   UNL     1      44.495   7.237  13.013  0.00  0.00    +0.000 F 
BRANCH   2   5
ATOM      5  C   UNL     1      46.772   6.781  12.415  0.00  0.00    +0.000 A 
ATOM      6  C   UNL     1      47.652   7.408  11.521  0.00  0.00    +0.000 A 
ATOM      7  C   UNL     1      48.987   7.612  11.874  0.00  0.00    +0.000 A 
ATOM      8  C   UNL     1      49.461   7.189  13.119  0.00  0.00    +0.000 A 
ATOM      9  C   UNL     1      48.600   6.551  14.007  0.00  0.00    +0.000 A 
ATOM     10  C   UNL     1      47.264   6.350  13.656  0.00  0.00    +0.000 A 
BRANCH   9  11
ATOM     11  O   UNL     1      48.941   6.127  15.266  0.00  0.00    +0.000 OA
BRANCH  11  12
ATOM     12  C   UNL     1      49.681   7.020  16.130  0.00  0.00    +0.000 C 
ATOM     13  C   UNL     1      49.965   6.557  17.573  0.00  0.00    +0.000 C 
ATOM     14  N   UNL     1      49.400   7.807  18.102  0.00  0.00    +0.000 NA
ATOM     15  C   UNL     1      48.835   8.130  16.783  0.00  0.00    +0.000 C 
ATOM     16  H   UNL     1      50.097   8.475  18.428  0.00  0.00    +0.000 HD
ENDBRANCH  11  12
ENDBRANCH   9  11
ENDBRANCH   2   5
ENDBRANCH   1   2
BRANCH   1  17
ATOM     17  N   UNL     1      44.173   4.749  10.827  0.00  0.00    +0.000 N 
ATOM     18  H   UNL     1      43.198   4.506  11.004  0.00  0.00    +0.000 HD
BRANCH  17  22
ATOM     19  C   UNL     1      46.231   2.601   7.841  0.00  0.00    +0.000 A 
ATOM     20  C   UNL     1      45.484   1.904   8.793  0.00  0.00    +0.000 A 
ATOM     21  C   UNL     1      44.785   2.605   9.783  0.00  0.00    +0.000 A 
ATOM     22  C   UNL     1      44.773   4.002   9.815  0.00  0.00    +0.000 A 
ATOM     23  C   UNL     1      45.520   4.686   8.843  0.00  0.00    +0.000 A 
ATOM     24  C   UNL     1      46.243   3.997   7.862  0.00  0.00    +0.000 A 
BRANCH  19  26
ATOM     25  O   UNL     1      47.042   0.602   6.863  0.00  0.00    +0.000 OA
ATOM     26  C   UNL     1      46.993   1.829   6.829  0.00  0.00    +0.000 C 
ATOM     27  N   UNL     1      47.679   2.571   5.895  0.00  0.00    +0.000 N 
ATOM     28  H   UNL     1      47.961   3.527   6.078  0.00  0.00    +0.000 HD
BRANCH  27  29
ATOM     29  O   UNL     1      48.545   1.820   5.061  0.00  0.00    +0.000 OA
ATOM     30  H   UNL     1      48.044   1.788   4.216  0.00  0.00    +0.000 HD
ENDBRANCH  27  29
ENDBRANCH  19  26
ENDBRANCH  17  22
ENDBRANCH   1  17
TORSDOF 8
ENDMDL
MODEL 5
REMARK VINA RESULT:    -7.371      2.561      4.113
REMARK INTER + INTRA:         -11.729
REMARK INTER:                 -10.815
REMARK INTRA:                  -0.914
REMARK UNBOUND:                -1.127
REMARK  Name = 
REMARK  8 active torsions:
REMARK  status: ('A' for Active; 'I' for Inactive)
REMARK    1  A    between atoms: C_2  and  C_5
REMARK    2  A    between atoms: N_3  and  O_4
REMARK    3  A    between atoms: C_8  and  N_9
REMARK    4  A    between atoms: N_9  and  C_10
REMARK    5  A    between atoms: C_10  and  C_11
REMARK    6  A    between atoms: C_11  and  C_14
REMARK    7  A    between atoms: C_18  and  O_19
REMARK    8  A    between atoms: O_19  and  C_20
REMARK                            x       y       z     vdW  Elec       q    Type
REMARK                         _______ _______ _______ _____ _____    ______ ____
ROOT
ATOM      1  C   UNL     1      44.128   3.234  11.991  0.00  0.00    +0.000 C 
ENDROOT
BRANCH   1   2
ATOM      2  C   UNL     1      43.677   4.585  12.607  0.00  0.00    +0.000 C 
ATOM      3  F   UNL     1      42.768   5.175  11.779  0.00  0.00    +0.000 F 
ATOM      4  F   UNL     1      42.992   4.317  13.762  0.00  0.00    +0.000 F 
BRANCH   2   5
ATOM      5  C   UNL     1      44.889   5.463  12.844  0.00  0.00    +0.000 A 
ATOM      6  C   UNL     1      46.171   4.907  12.953  0.00  0.00    +0.000 A 
ATOM      7  C   UNL     1      47.288   5.734  13.086  0.00  0.00    +0.000 A 
ATOM      8  C   UNL     1      47.139   7.124  13.117  0.00  0.00    +0.000 A 
ATOM      9  C   UNL     1      45.869   7.685  13.026  0.00  0.00    +0.000 A 
ATOM     10  C   UNL     1      44.751   6.859  12.889  0.00  0.00    +0.000 A 
BRANCH   9  11
ATOM     11  O   UNL     1      45.603   9.030  13.008  0.00  0.00    +0.000 OA
BRANCH  11  12
ATOM     12  C   UNL     1      45.292   9.666  11.747  0.00  0.00    +0.000 C 
ATOM     13  C   UNL     1      45.718  11.136  11.555  0.00  0.00    +0.000 C 
ATOM     14  N   UNL     1      44.349  11.498  11.160  0.00  0.00    +0.000 NA
ATOM     15  C   UNL     1      43.850  10.199  11.634  0.00  0.00    +0.000 C 
ATOM     16  H   UNL     1      44.230  11.647  10.159  0.00  0.00    +0.000 HD
ENDBRANCH  11  12
ENDBRANCH   9  11
ENDBRANCH   2   5
ENDBRANCH   1   2
BRANCH   1  17
ATOM     17  N   UNL     1      43.616   3.007  10.629  0.00  0.00    +0.000 N 
ATOM     18  H   UNL     1      42.758   2.457  10.591  0.00  0.00    +0.000 HD
BRANCH  17  22
ATOM     19  C   UNL     1      46.445   2.468   7.551  0.00  0.00    +0.000 A 
ATOM     20  C   UNL     1      45.946   1.351   8.224  0.00  0.00    +0.000 A 
ATOM     21  C   UNL     1      44.996   1.514   9.239  0.00  0.00    +0.000 A 
ATOM     22  C   UNL     1      44.491   2.775   9.569  0.00  0.00    +0.000 A 
ATOM     23  C   UNL     1      44.996   3.885   8.874  0.00  0.00    +0.000 A 
ATOM     24  C   UNL     1      45.963   3.739   7.873  0.00  0.00    +0.000 A 
BRANCH  19  26
ATOM     25  O   UNL     1      48.386   1.450   6.653  0.00  0.00    +0.000 OA
ATOM     26  C   UNL     1      47.480   2.267   6.507  0.00  0.00    +0.000 C 
ATOM     27  N   UNL     1      47.391   3.085   5.404  0.00  0.00    +0.000 N 
ATOM     28  H   UNL     1      46.921   3.982   5.444  0.00  0.00    +0.000 HD
BRANCH  27  29
ATOM     29  O   UNL     1      48.494   3.003   4.516  0.00  0.00    +0.000 OA
ATOM     30  H   UNL     1      48.919   3.882   4.632  0.00  0.00    +0.000 HD
ENDBRANCH  27  29
ENDBRANCH  19  26
ENDBRANCH  17  22
ENDBRANCH   1  17
TORSDOF 8
ENDMDL
MODEL 6
REMARK VINA RESULT:    -7.014      3.034      8.294
REMARK INTER + INTRA:         -11.217
REMARK INTER:                 -10.568
REMARK INTRA:                  -0.648
REMARK UNBOUND:                -1.127
REMARK  Name = 
REMARK  8 active torsions:
REMARK  status: ('A' for Active; 'I' for Inactive)
REMARK    1  A    between atoms: C_2  and  C_5
REMARK    2  A    between atoms: N_3  and  O_4
REMARK    3  A    between atoms: C_8  and  N_9
REMARK    4  A    between atoms: N_9  and  C_10
REMARK    5  A    between atoms: C_10  and  C_11
REMARK    6  A    between atoms: C_11  and  C_14
REMARK    7  A    between atoms: C_18  and  O_19
REMARK    8  A    between atoms: O_19  and  C_20
REMARK                            x       y       z     vdW  Elec       q    Type
REMARK                         _______ _______ _______ _____ _____    ______ ____
ROOT
ATOM      1  C   UNL     1      46.581   4.534  14.625  0.00  0.00    +0.000 C 
ENDROOT
BRANCH   1   2
ATOM      2  C   UNL     1      46.636   5.554  13.457  0.00  0.00    +0.000 C 
ATOM      3  F   UNL     1      46.572   6.820  13.962  0.00  0.00    +0.000 F 
ATOM      4  F   UNL     1      47.870   5.461  12.871  0.00  0.00    +0.000 F 
BRANCH   2   5
ATOM      5  C   UNL     1      45.510   5.269  12.483  0.00  0.00    +0.000 A 
ATOM      6  C   UNL     1      44.172   5.296  12.900  0.00  0.00    +0.000 A 
ATOM      7  C   UNL     1      43.143   5.115  11.975  0.00  0.00    +0.000 A 
ATOM      8  C   UNL     1      43.435   4.900  10.626  0.00  0.00    +0.000 A 
ATOM      9  C   UNL     1      44.760   4.855  10.203  0.00  0.00    +0.000 A 
ATOM     10  C   UNL     1      45.791   5.040  11.128  0.00  0.00    +0.000 A 
BRANCH   9  11
ATOM     11  O   UNL     1      45.167   4.689   8.904  0.00  0.00    +0.000 OA
BRANCH  11  12
ATOM     12  C   UNL     1      45.010   3.394   8.281  0.00  0.00    +0.000 C 
ATOM     13  C   UNL     1      45.327   2.143   9.126  0.00  0.00    +0.000 C 
ATOM     14  N   UNL     1      46.232   1.645   8.080  0.00  0.00    +0.000 NA
ATOM     15  C   UNL     1      46.201   2.953   7.407  0.00  0.00    +0.000 C 
ATOM     16  H   UNL     1      45.847   0.884   7.523  0.00  0.00    +0.000 HD
ENDBRANCH  11  12
ENDBRANCH   9  11
ENDBRANCH   2   5
ENDBRANCH   1   2
BRANCH   1  17
ATOM     17  N   UNL     1      47.216   5.019  15.862  0.00  0.00    +0.000 N 
ATOM     18  H   UNL     1      47.318   6.033  15.910  0.00  0.00    +0.000 HD
BRANCH  17  22
ATOM     19  C   UNL     1      50.434   2.769  17.395  0.00  0.00    +0.000 A 
ATOM     20  C   UNL     1      50.442   4.158  17.536  0.00  0.00    +0.000 A 
ATOM     21  C   UNL     1      49.374   4.917  17.044  0.00  0.00    +0.000 A 
ATOM     22  C   UNL     1      48.262   4.312  16.451  0.00  0.00    +0.000 A 
ATOM     23  C   UNL     1      48.266   2.913  16.328  0.00  0.00    +0.000 A 
ATOM     24  C   UNL     1      49.338   2.144  16.795  0.00  0.00    +0.000 A 
BRANCH  19  26
ATOM     25  O   UNL     1      52.661   2.545  18.169  0.00  0.00    +0.000 OA
ATOM     26  C   UNL     1      51.599   1.995  17.891  0.00  0.00    +0.000 C 
ATOM     27  N   UNL     1      51.429   0.632  17.966  0.00  0.00    +0.000 N 
ATOM     28  H   UNL     1      50.743   0.149  17.399  0.00  0.00    +0.000 HD
BRANCH  27  29
ATOM     29  O   UNL     1      52.610  -0.096  18.261  0.00  0.00    +0.000 OA
ATOM     30  H   UNL     1      52.578  -0.820  17.596  0.00  0.00    +0.000 HD
ENDBRANCH  27  29
ENDBRANCH  19  26
ENDBRANCH  17  22
ENDBRANCH   1  17
TORSDOF 8
ENDMDL
MODEL 7
REMARK VINA RESULT:    -6.790      3.483      8.117
REMARK INTER + INTRA:         -10.894
REMARK INTER:                 -10.037
REMARK INTRA:                  -0.857
REMARK UNBOUND:                -1.127
REMARK  Name = 
REMARK  8 active torsions:
REMARK  status: ('A' for Active; 'I' for Inactive)
REMARK    1  A    between atoms: C_2  and  C_5
REMARK    2  A    between atoms: N_3  and  O_4
REMARK    3  A    between atoms: C_8  and  N_9
REMARK    4  A    between atoms: N_9  and  C_10
REMARK    5  A    between atoms: C_10  and  C_11
REMARK    6  A    between atoms: C_11  and  C_14
REMARK    7  A    between atoms: C_18  and  O_19
REMARK    8  A    between atoms: O_19  and  C_20
REMARK                            x       y       z     vdW  Elec       q    Type
REMARK                         _______ _______ _______ _____ _____    ______ ____
ROOT
ATOM      1  C   UNL     1      47.172   5.079  14.833  0.00  0.00    +0.000 C 
ENDROOT
BRANCH   1   2
ATOM      2  C   UNL     1      47.647   6.328  14.044  0.00  0.00    +0.000 C 
ATOM      3  F   UNL     1      48.076   7.279  14.924  0.00  0.00    +0.000 F 
ATOM      4  F   UNL     1      48.757   5.977  13.323  0.00  0.00    +0.000 F 
BRANCH   2   5
ATOM      5  C   UNL     1      46.521   6.830  13.163  0.00  0.00    +0.000 A 
ATOM      6  C   UNL     1      46.276   8.202  13.018  0.00  0.00    +0.000 A 
ATOM      7  C   UNL     1      45.291   8.652  12.138  0.00  0.00    +0.000 A 
ATOM      8  C   UNL     1      44.534   7.740  11.397  0.00  0.00    +0.000 A 
ATOM      9  C   UNL     1      44.758   6.374  11.546  0.00  0.00    +0.000 A 
ATOM     10  C   UNL     1      45.747   5.923  12.423  0.00  0.00    +0.000 A 
BRANCH   9  11
ATOM     11  O   UNL     1      44.108   5.389  10.848  0.00  0.00    +0.000 OA
BRANCH  11  12
ATOM     12  C   UNL     1      44.591   4.030  10.939  0.00  0.00    +0.000 C 
ATOM     13  C   UNL     1      44.607   3.182   9.651  0.00  0.00    +0.000 C 
ATOM     14  N   UNL     1      43.859   2.111  10.327  0.00  0.00    +0.000 NA
ATOM     15  C   UNL     1      43.553   3.011  11.450  0.00  0.00    +0.000 C 
ATOM     16  H   UNL     1      44.426   1.306  10.585  0.00  0.00    +0.000 HD
ENDBRANCH  11  12
ENDBRANCH   9  11
ENDBRANCH   2   5
ENDBRANCH   1   2
BRANCH   1  17
ATOM     17  N   UNL     1      47.541   5.105  16.258  0.00  0.00    +0.000 N 
ATOM     18  H   UNL     1      47.484   6.028  16.688  0.00  0.00    +0.000 HD
BRANCH  17  22
ATOM     19  C   UNL     1      50.719   2.607  17.456  0.00  0.00    +0.000 A 
ATOM     20  C   UNL     1      50.835   3.989  17.620  0.00  0.00    +0.000 A 
ATOM     21  C   UNL     1      49.783   4.830  17.240  0.00  0.00    +0.000 A 
ATOM     22  C   UNL     1      48.584   4.315  16.738  0.00  0.00    +0.000 A 
ATOM     23  C   UNL     1      48.480   2.923  16.590  0.00  0.00    +0.000 A 
ATOM     24  C   UNL     1      49.534   2.072  16.945  0.00  0.00    +0.000 A 
BRANCH  19  26
ATOM     25  O   UNL     1      53.013   2.184  17.860  0.00  0.00    +0.000 OA
ATOM     26  C   UNL     1      51.866   1.746  17.831  0.00  0.00    +0.000 C 
ATOM     27  N   UNL     1      51.571   0.426  18.088  0.00  0.00    +0.000 N 
ATOM     28  H   UNL     1      50.746  -0.019  17.703  0.00  0.00    +0.000 HD
BRANCH  27  29
ATOM     29  O   UNL     1      52.703  -0.411  18.258  0.00  0.00    +0.000 OA
ATOM     30  H   UNL     1      52.299  -1.308  18.258  0.00  0.00    +0.000 HD
ENDBRANCH  27  29
ENDBRANCH  19  26
ENDBRANCH  17  22
ENDBRANCH   1  17
TORSDOF 8
ENDMDL
MODEL 8
REMARK VINA RESULT:    -6.733      3.192      4.713
REMARK INTER + INTRA:         -10.813
REMARK INTER:                  -9.687
REMARK INTRA:                  -1.126
REMARK UNBOUND:                -1.127
REMARK  Name = 
REMARK  8 active torsions:
REMARK  status: ('A' for Active; 'I' for Inactive)
REMARK    1  A    between atoms: C_2  and  C_5
REMARK    2  A    between atoms: N_3  and  O_4
REMARK    3  A    between atoms: C_8  and  N_9
REMARK    4  A    between atoms: N_9  and  C_10
REMARK    5  A    between atoms: C_10  and  C_11
REMARK    6  A    between atoms: C_11  and  C_14
REMARK    7  A    between atoms: C_18  and  O_19
REMARK    8  A    between atoms: O_19  and  C_20
REMARK                            x       y       z     vdW  Elec       q    Type
REMARK                         _______ _______ _______ _____ _____    ______ ____
ROOT
ATOM      1  C   UNL     1      46.774   8.748  12.503  0.00  0.00    +0.000 C 
ENDROOT
BRANCH   1   2
ATOM      2  C   UNL     1      48.202   8.150  12.402  0.00  0.00    +0.000 C 
ATOM      3  F   UNL     1      48.142   6.950  11.757  0.00  0.00    +0.000 F 
ATOM      4  F   UNL     1      48.945   8.962  11.586  0.00  0.00    +0.000 F 
BRANCH   2   5
ATOM      5  C   UNL     1      48.797   8.025  13.790  0.00  0.00    +0.000 A 
ATOM      6  C   UNL     1      49.327   9.141  14.451  0.00  0.00    +0.000 A 
ATOM      7  C   UNL     1      49.794   9.027  15.761  0.00  0.00    +0.000 A 
ATOM      8  C   UNL     1      49.744   7.798  16.425  0.00  0.00    +0.000 A 
ATOM      9  C   UNL     1      49.235   6.680  15.772  0.00  0.00    +0.000 A 
ATOM     10  C   UNL     1      48.764   6.794  14.463  0.00  0.00    +0.000 A 
BRANCH   9  11
ATOM     11  O   UNL     1      49.101   5.435  16.332  0.00  0.00    +0.000 OA
BRANCH  11  12
ATOM     12  C   UNL     1      47.784   4.845  16.422  0.00  0.00    +0.000 C 
ATOM     13  C   UNL     1      47.188   4.620  17.826  0.00  0.00    +0.000 C 
ATOM     14  N   UNL     1      46.921   3.210  17.505  0.00  0.00    +0.000 NA
ATOM     15  C   UNL     1      47.758   3.308  16.300  0.00  0.00    +0.000 C 
ATOM     16  H   UNL     1      45.942   3.005  17.312  0.00  0.00    +0.000 HD
ENDBRANCH  11  12
ENDBRANCH   9  11
ENDBRANCH   2   5
ENDBRANCH   1   2
BRANCH   1  17
ATOM     17  N   UNL     1      45.844   7.926  13.295  0.00  0.00    +0.000 N 
ATOM     18  H   UNL     1      46.047   7.911  14.294  0.00  0.00    +0.000 HD
BRANCH  17  22
ATOM     19  C   UNL     1      44.492   4.340  11.541  0.00  0.00    +0.000 A 
ATOM     20  C   UNL     1      45.213   4.287  12.735  0.00  0.00    +0.000 A 
ATOM     21  C   UNL     1      45.657   5.471  13.336  0.00  0.00    +0.000 A 
ATOM     22  C   UNL     1      45.352   6.723  12.793  0.00  0.00    +0.000 A 
ATOM     23  C   UNL     1      44.617   6.756  11.598  0.00  0.00    +0.000 A 
ATOM     24  C   UNL     1      44.187   5.579  10.974  0.00  0.00    +0.000 A 
BRANCH  19  26
ATOM     25  O   UNL     1      43.096   2.439  11.317  0.00  0.00    +0.000 OA
ATOM     26  C   UNL     1      44.069   3.066  10.907  0.00  0.00    +0.000 C 
ATOM     27  N   UNL     1      44.863   2.612   9.879  0.00  0.00    +0.000 N 
ATOM     28  H   UNL     1      45.834   2.888   9.795  0.00  0.00    +0.000 HD
BRANCH  27  29
ATOM     29  O   UNL     1      44.548   1.308   9.420  0.00  0.00    +0.000 OA
ATOM     30  H   UNL     1      44.805   1.354   8.472  0.00  0.00    +0.000 HD
ENDBRANCH  27  29
ENDBRANCH  19  26
ENDBRANCH  17  22
ENDBRANCH   1  17
TORSDOF 8
ENDMDL
MODEL 9
REMARK VINA RESULT:    -6.535      4.532      6.391
REMARK INTER + INTRA:         -10.527
REMARK INTER:                  -9.159
REMARK INTRA:                  -1.368
REMARK UNBOUND:                -1.127
REMARK  Name = 
REMARK  8 active torsions:
REMARK  status: ('A' for Active; 'I' for Inactive)
REMARK    1  A    between atoms: C_2  and  C_5
REMARK    2  A    between atoms: N_3  and  O_4
REMARK    3  A    between atoms: C_8  and  N_9
REMARK    4  A    between atoms: N_9  and  C_10
REMARK    5  A    between atoms: C_10  and  C_11
REMARK    6  A    between atoms: C_11  and  C_14
REMARK    7  A    between atoms: C_18  and  O_19
REMARK    8  A    between atoms: O_19  and  C_20
REMARK                            x       y       z     vdW  Elec       q    Type
REMARK                         _______ _______ _______ _____ _____    ______ ____
ROOT
ATOM      1  C   UNL     1      49.476   7.562  15.008  0.00  0.00    +0.000 C 
ENDROOT
BRANCH   1   2
ATOM      2  C   UNL     1      48.950   8.518  16.112  0.00  0.00    +0.000 C 
ATOM      3  F   UNL     1      49.888   9.479  16.358  0.00  0.00    +0.000 F 
ATOM      4  F   UNL     1      47.868   9.190  15.611  0.00  0.00    +0.000 F 
BRANCH   2   5
ATOM      5  C   UNL     1      48.610   7.719  17.354  0.00  0.00    +0.000 A 
ATOM      6  C   UNL     1      47.928   8.308  18.426  0.00  0.00    +0.000 A 
ATOM      7  C   UNL     1      47.547   7.539  19.527  0.00  0.00    +0.000 A 
ATOM      8  C   UNL     1      47.847   6.174  19.573  0.00  0.00    +0.000 A 
ATOM      9  C   UNL     1      48.539   5.582  18.520  0.00  0.00    +0.000 A 
ATOM     10  C   UNL     1      48.917   6.351  17.417  0.00  0.00    +0.000 A 
BRANCH   9  11
ATOM     11  O   UNL     1      48.855   4.250  18.437  0.00  0.00    +0.000 OA
BRANCH  11  12
ATOM     12  C   UNL     1      49.278   3.709  17.165  0.00  0.00    +0.000 C 
ATOM     13  C   UNL     1      48.360   2.676  16.479  0.00  0.00    +0.000 C 
ATOM     14  N   UNL     1      49.487   1.741  16.344  0.00  0.00    +0.000 NA
ATOM     15  C   UNL     1      50.296   2.556  17.263  0.00  0.00    +0.000 C 
ATOM     16  H   UNL     1      49.867   1.681  15.401  0.00  0.00    +0.000 HD
ENDBRANCH  11  12
ENDBRANCH   9  11
ENDBRANCH   2   5
ENDBRANCH   1   2
BRANCH   1  17
ATOM     17  N   UNL     1      48.658   7.569  13.784  0.00  0.00    +0.000 N 
ATOM     18  H   UNL     1      48.538   8.492  13.366  0.00  0.00    +0.000 HD
BRANCH  17  22
ATOM     19  C   UNL     1      45.320   5.074  13.150  0.00  0.00    +0.000 A 
ATOM     20  C   UNL     1      46.390   4.604  13.915  0.00  0.00    +0.000 A 
ATOM     21  C   UNL     1      47.499   5.426  14.145  0.00  0.00    +0.000 A 
ATOM     22  C   UNL     1      47.545   6.739  13.665  0.00  0.00    +0.000 A 
ATOM     23  C   UNL     1      46.455   7.198  12.909  0.00  0.00    +0.000 A 
ATOM     24  C   UNL     1      45.350   6.379  12.651  0.00  0.00    +0.000 A 
BRANCH  19  26
ATOM     25  O   UNL     1      43.015   4.540  13.034  0.00  0.00    +0.000 OA
ATOM     26  C   UNL     1      44.176   4.165  12.891  0.00  0.00    +0.000 C 
ATOM     27  N   UNL     1      44.499   2.876  12.537  0.00  0.00    +0.000 N 
ATOM     28  H   UNL     1      45.390   2.462  12.788  0.00  0.00    +0.000 HD
BRANCH  27  29
ATOM     29  O   UNL     1      43.398   1.984  12.480  0.00  0.00    +0.000 OA
ATOM     30  H   UNL     1      43.798   1.140  12.788  0.00  0.00    +0.000 HD
ENDBRANCH  27  29
ENDBRANCH  19  26
ENDBRANCH  17  22
ENDBRANCH   1  17
TORSDOF 8
ENDMDL
