MODEL 1
REMARK VINA RESULT:    -8.225      0.000      0.000
REMARK INTER + INTRA:         -11.079
REMARK INTER:                 -10.388
REMARK INTRA:                  -0.691
REMARK UNBOUND:                -0.691
REMARK  Name = 
REMARK  6 active torsions:
REMARK  status: ('A' for Active; 'I' for Inactive)
REMARK    1  A    between atoms: C_1  and  O_2
REMARK    2  A    between atoms: O_2  and  C_3
REMARK    3  A    between atoms: C_5  and  C_6
REMARK    4  A    between atoms: C_6  and  N_7
REMARK    5  A    between atoms: C_12  and  C_13
REMARK    6  A    between atoms: C_21  and  O_22
REMARK                            x       y       z     vdW  Elec       q    Type
REMARK                         _______ _______ _______ _____ _____    ______ ____
ROOT
ATOM      1  N   UNL     1      44.434   3.916  10.677  0.00  0.00    +0.000 N 
ATOM      2  C   UNL     1      44.010   3.028  11.628  0.00  0.00    +0.000 A 
ATOM      3  N   UNL     1      44.531   3.291  12.807  0.00  0.00    +0.000 NA
ATOM      4  C   UNL     1      45.338   4.381  12.610  0.00  0.00    +0.000 A 
ATOM      5  C   UNL     1      46.169   5.044  13.527  0.00  0.00    +0.000 A 
ATOM      6  C   UNL     1      46.929   6.136  13.083  0.00  0.00    +0.000 A 
ATOM      7  C   UNL     1      46.832   6.562  11.746  0.00  0.00    +0.000 A 
ATOM      8  C   UNL     1      46.000   5.917  10.822  0.00  0.00    +0.000 A 
ATOM      9  C   UNL     1      45.284   4.812  11.287  0.00  0.00    +0.000 A 
ENDROOT
BRANCH   6  10
ATOM     10  C   UNL     1      47.873   6.878  13.971  0.00  0.00    +0.000 C 
ATOM     11  N   UNL     1      47.536   8.134  14.386  0.00  0.00    +0.000 N 
ATOM     12  O   UNL     1      48.932   6.379  14.330  0.00  0.00    +0.000 OA
ATOM     13  H   UNL     1      46.696   8.629  14.138  0.00  0.00    +0.000 HD
ATOM     14  H   UNL     1      48.202   8.604  14.991  0.00  0.00    +0.000 HD
ENDBRANCH   6  10
BRANCH   1  15
ATOM     15  C   UNL     1      44.146   3.825   9.252  0.00  0.00    +0.000 C 
BRANCH  15  18
ATOM     16  C   UNL     1      46.713   1.364   7.793  0.00  0.00    +0.000 A 
ATOM     17  C   UNL     1      45.632   1.878   8.517  0.00  0.00    +0.000 A 
ATOM     18  C   UNL     1      45.270   3.234   8.431  0.00  0.00    +0.000 A 
ATOM     19  C   UNL     1      45.953   4.050   7.516  0.00  0.00    +0.000 A 
ATOM     20  C   UNL     1      47.012   3.543   6.759  0.00  0.00    +0.000 A 
ATOM     21  C   UNL     1      47.396   2.212   6.915  0.00  0.00    +0.000 A 
BRANCH  16  23
ATOM     22  C   UNL     1      46.374  -0.938   7.282  0.00  0.00    +0.000 C 
ATOM     23  O   UNL     1      47.168   0.074   7.888  0.00  0.00    +0.000 OA
ENDBRANCH  16  23
BRANCH  21  24
ATOM     24  O   UNL     1      48.460   1.724   6.199  0.00  0.00    +0.000 OA
ATOM     25  H   UNL     1      49.263   2.203   6.453  0.00  0.00    +0.000 HD
ENDBRANCH  21  24
ENDBRANCH  15  18
ENDBRANCH   1  15
TORSDOF 5
ENDMDL
MODEL 2
REMARK VINA RESULT:    -7.848      2.077      6.639
REMARK INTER + INTRA:         -10.603
REMARK INTER:                 -10.045
REMARK INTRA:                  -0.558
REMARK UNBOUND:                -0.691
REMARK  Name = 
REMARK  6 active torsions:
REMARK  status: ('A' for Active; 'I' for Inactive)
REMARK    1  A    between atoms: C_1  and  O_2
REMARK    2  A    between atoms: O_2  and  C_3
REMARK    3  A    between atoms: C_5  and  C_6
REMARK    4  A    between atoms: C_6  and  N_7
REMARK    5  A    between atoms: C_12  and  C_13
REMARK    6  A    between atoms: C_21  and  O_22
REMARK                            x       y       z     vdW  Elec       q    Type
REMARK                         _______ _______ _______ _____ _____    ______ ____
ROOT
ATOM      1  N   UNL     1      44.002   4.393  10.414  0.00  0.00    +0.000 N 
ATOM      2  C   UNL     1      43.450   3.279  10.985  0.00  0.00    +0.000 A 
ATOM      3  N   UNL     1      43.952   2.173  10.479  0.00  0.00    +0.000 NA
ATOM      4  C   UNL     1      44.853   2.585   9.532  0.00  0.00    +0.000 A 
ATOM      5  C   UNL     1      45.633   1.813   8.658  0.00  0.00    +0.000 A 
ATOM      6  C   UNL     1      46.476   2.468   7.747  0.00  0.00    +0.000 A 
ATOM      7  C   UNL     1      46.544   3.872   7.738  0.00  0.00    +0.000 A 
ATOM      8  C   UNL     1      45.778   4.656   8.610  0.00  0.00    +0.000 A 
ATOM      9  C   UNL     1      44.923   3.975   9.480  0.00  0.00    +0.000 A 
ENDROOT
BRANCH   6  10
ATOM     10  C   UNL     1      47.312   1.735   6.750  0.00  0.00    +0.000 C 
ATOM     11  N   UNL     1      48.344   2.395   6.147  0.00  0.00    +0.000 N 
ATOM     12  O   UNL     1      47.089   0.564   6.471  0.00  0.00    +0.000 OA
ATOM     13  H   UNL     1      48.600   3.355   6.303  0.00  0.00    +0.000 HD
ATOM     14  H   UNL     1      48.891   1.863   5.477  0.00  0.00    +0.000 HD
ENDBRANCH   6  10
BRANCH   1  15
ATOM     15  C   UNL     1      43.573   5.764  10.658  0.00  0.00    +0.000 C 
BRANCH  15  18
ATOM     16  C   UNL     1      46.326   6.701  13.171  0.00  0.00    +0.000 A 
ATOM     17  C   UNL     1      45.501   5.950  12.327  0.00  0.00    +0.000 A 
ATOM     18  C   UNL     1      44.517   6.561  11.530  0.00  0.00    +0.000 A 
ATOM     19  C   UNL     1      44.445   7.963  11.517  0.00  0.00    +0.000 A 
ATOM     20  C   UNL     1      45.285   8.729  12.328  0.00  0.00    +0.000 A 
ATOM     21  C   UNL     1      46.205   8.095  13.162  0.00  0.00    +0.000 A 
BRANCH  16  23
ATOM     22  C   UNL     1      47.057   4.813  14.426  0.00  0.00    +0.000 C 
ATOM     23  O   UNL     1      47.250   6.166  14.031  0.00  0.00    +0.000 OA
ENDBRANCH  16  23
BRANCH  21  24
ATOM     24  O   UNL     1      47.004   8.845  13.985  0.00  0.00    +0.000 OA
ATOM     25  H   UNL     1      47.143   8.369  14.818  0.00  0.00    +0.000 HD
ENDBRANCH  21  24
ENDBRANCH  15  18
ENDBRANCH   1  15
TORSDOF 5
ENDMDL
MODEL 3
REMARK VINA RESULT:    -7.568      2.602      7.061
REMARK INTER + INTRA:         -10.250
REMARK INTER:                  -9.734
REMARK INTRA:                  -0.516
REMARK UNBOUND:                -0.691
REMARK  Name = 
REMARK  6 active torsions:
REMARK  status: ('A' for Active; 'I' for Inactive)
REMARK    1  A    between atoms: C_1  and  O_2
REMARK    2  A    between atoms: O_2  and  C_3
REMARK    3  A    between atoms: C_5  and  C_6
REMARK    4  A    between atoms: C_6  and  N_7
REMARK    5  A    between atoms: C_12  and  C_13
REMARK    6  A    between atoms: C_21  and  O_22
REMARK                            x       y       z     vdW  Elec       q    Type
REMARK                         _______ _______ _______ _____ _____    ______ ____
ROOT
ATOM      1  N   UNL     1      43.938   4.389  10.444  0.00  0.00    +0.000 N 
ATOM      2  C   UNL     1      43.450   3.264  11.051  0.00  0.00    +0.000 A 
ATOM      3  N   UNL     1      43.999   2.172  10.565  0.00  0.00    +0.000 NA
ATOM      4  C   UNL     1      44.864   2.603   9.593  0.00  0.00    +0.000 A 
ATOM      5  C   UNL     1      45.669   1.849   8.726  0.00  0.00    +0.000 A 
ATOM      6  C   UNL     1      46.464   2.521   7.786  0.00  0.00    +0.000 A 
ATOM      7  C   UNL     1      46.462   3.926   7.740  0.00  0.00    +0.000 A 
ATOM      8  C   UNL     1      45.672   4.693   8.605  0.00  0.00    +0.000 A 
ATOM      9  C   UNL     1      44.865   3.994   9.506  0.00  0.00    +0.000 A 
ENDROOT
BRANCH   6  10
ATOM     10  C   UNL     1      47.320   1.805   6.793  0.00  0.00    +0.000 C 
ATOM     11  N   UNL     1      48.358   2.478   6.214  0.00  0.00    +0.000 N 
ATOM     12  O   UNL     1      47.109   0.636   6.497  0.00  0.00    +0.000 OA
ATOM     13  H   UNL     1      48.605   3.438   6.385  0.00  0.00    +0.000 HD
ATOM     14  H   UNL     1      48.919   1.956   5.547  0.00  0.00    +0.000 HD
ENDBRANCH   6  10
BRANCH   1  15
ATOM     15  C   UNL     1      43.445   5.744  10.660  0.00  0.00    +0.000 C 
BRANCH  15  18
ATOM     16  C   UNL     1      45.245   8.809  12.122  0.00  0.00    +0.000 A 
ATOM     17  C   UNL     1      44.338   8.021  11.407  0.00  0.00    +0.000 A 
ATOM     18  C   UNL     1      44.375   6.617  11.473  0.00  0.00    +0.000 A 
ATOM     19  C   UNL     1      45.280   6.014  12.360  0.00  0.00    +0.000 A 
ATOM     20  C   UNL     1      46.169   6.789  13.108  0.00  0.00    +0.000 A 
ATOM     21  C   UNL     1      46.159   8.176  12.971  0.00  0.00    +0.000 A 
BRANCH  16  23
ATOM     22  C   UNL     1      44.500  10.810  11.067  0.00  0.00    +0.000 C 
ATOM     23  O   UNL     1      45.317  10.176  12.044  0.00  0.00    +0.000 OA
ENDBRANCH  16  23
BRANCH  21  24
ATOM     24  O   UNL     1      47.058   8.934  13.678  0.00  0.00    +0.000 OA
ATOM     25  H   UNL     1      46.757   9.855  13.694  0.00  0.00    +0.000 HD
ENDBRANCH  21  24
ENDBRANCH  15  18
ENDBRANCH   1  15
TORSDOF 5
ENDMDL
MODEL 4
REMARK VINA RESULT:    -7.268      1.552      2.067
REMARK INTER + INTRA:          -9.871
REMARK INTER:                  -9.262
REMARK INTRA:                  -0.609
REMARK UNBOUND:                -0.691
REMARK  Name = 
REMARK  6 active torsions:
REMARK  status: ('A' for Active; 'I' for Inactive)
REMARK    1  A    between atoms: C_1  and  O_2
REMARK    2  A    between atoms: O_2  and  C_3
REMARK    3  A    between atoms: C_5  and  C_6
REMARK    4  A    between atoms: C_6  and  N_7
REMARK    5  A    between atoms: C_12  and  C_13
REMARK    6  A    between atoms: C_21  and  O_22
REMARK                            x       y       z     vdW  Elec       q    Type
REMARK                         _______ _______ _______ _____ _____    ______ ____
ROOT
ATOM      1  N   UNL     1      44.785   4.761  10.713  0.00  0.00    +0.000 N 
ATOM      2  C   UNL     1      44.545   6.107  10.731  0.00  0.00    +0.000 A 
ATOM      3  N   UNL     1      45.051   6.678  11.803  0.00  0.00    +0.000 NA
ATOM      4  C   UNL     1      45.628   5.660  12.517  0.00  0.00    +0.000 A 
ATOM      5  C   UNL     1      46.267   5.706  13.764  0.00  0.00    +0.000 A 
ATOM      6  C   UNL     1      46.765   4.514  14.313  0.00  0.00    +0.000 A 
ATOM      7  C   UNL     1      46.640   3.308  13.602  0.00  0.00    +0.000 A 
ATOM      8  C   UNL     1      46.014   3.248  12.351  0.00  0.00    +0.000 A 
ATOM      9  C   UNL     1      45.497   4.445  11.849  0.00  0.00    +0.000 A 
ENDROOT
BRANCH   6  10
ATOM     10  C   UNL     1      47.422   4.454  15.653  0.00  0.00    +0.000 C 
ATOM     11  N   UNL     1      46.867   3.668  16.622  0.00  0.00    +0.000 N 
ATOM     12  O   UNL     1      48.440   5.091  15.892  0.00  0.00    +0.000 OA
ATOM     13  H   UNL     1      46.030   3.118  16.525  0.00  0.00    +0.000 HD
ATOM     14  H   UNL     1      47.343   3.651  17.518  0.00  0.00    +0.000 HD
ENDBRANCH   6  10
BRANCH   1  15
ATOM     15  C   UNL     1      44.249   3.823   9.735  0.00  0.00    +0.000 C 
BRANCH  15  18
ATOM     16  C   UNL     1      46.642   1.415   7.932  0.00  0.00    +0.000 A 
ATOM     17  C   UNL     1      45.641   1.902   8.778  0.00  0.00    +0.000 A 
ATOM     18  C   UNL     1      45.284   3.262   8.785  0.00  0.00    +0.000 A 
ATOM     19  C   UNL     1      45.883   4.113   7.844  0.00  0.00    +0.000 A 
ATOM     20  C   UNL     1      46.860   3.635   6.968  0.00  0.00    +0.000 A 
ATOM     21  C   UNL     1      47.246   2.296   7.030  0.00  0.00    +0.000 A 
BRANCH  16  23
ATOM     22  C   UNL     1      46.345  -0.823   7.170  0.00  0.00    +0.000 C 
ATOM     23  O   UNL     1      47.093   0.120   7.928  0.00  0.00    +0.000 OA
ENDBRANCH  16  23
BRANCH  21  24
ATOM     24  O   UNL     1      48.231   1.835   6.195  0.00  0.00    +0.000 OA
ATOM     25  H   UNL     1      48.882   1.338   6.711  0.00  0.00    +0.000 HD
ENDBRANCH  21  24
ENDBRANCH  15  18
ENDBRANCH   1  15
TORSDOF 5
ENDMDL
MODEL 5
REMARK VINA RESULT:    -6.195      2.112      3.530
REMARK INTER + INTRA:          -8.515
REMARK INTER:                  -7.972
REMARK INTRA:                  -0.543
REMARK UNBOUND:                -0.691
REMARK  Name = 
REMARK  6 active torsions:
REMARK  status: ('A' for Active; 'I' for Inactive)
REMARK    1  A    between atoms: C_1  and  O_2
REMARK    2  A    between atoms: O_2  and  C_3
REMARK    3  A    between atoms: C_5  and  C_6
REMARK    4  A    between atoms: C_6  and  N_7
REMARK    5  A    between atoms: C_12  and  C_13
REMARK    6  A    between atoms: C_21  and  O_22
REMARK                            x       y       z     vdW  Elec       q    Type
REMARK                         _______ _______ _______ _____ _____    ______ ____
ROOT
ATOM      1  N   UNL     1      44.449   6.858  11.663  0.00  0.00    +0.000 N 
ATOM      2  C   UNL     1      44.439   8.188  11.343  0.00  0.00    +0.000 A 
ATOM      3  N   UNL     1      45.476   8.819  11.848  0.00  0.00    +0.000 NA
ATOM      4  C   UNL     1      46.179   7.865  12.538  0.00  0.00    +0.000 A 
ATOM      5  C   UNL     1      47.344   8.007  13.307  0.00  0.00    +0.000 A 
ATOM      6  C   UNL     1      47.873   6.877  13.947  0.00  0.00    +0.000 A 
ATOM      7  C   UNL     1      47.251   5.626  13.791  0.00  0.00    +0.000 A 
ATOM      8  C   UNL     1      46.093   5.466  13.019  0.00  0.00    +0.000 A 
ATOM      9  C   UNL     1      45.571   6.617  12.424  0.00  0.00    +0.000 A 
ENDROOT
BRANCH   6  10
ATOM     10  C   UNL     1      49.083   6.935  14.822  0.00  0.00    +0.000 C 
ATOM     11  N   UNL     1      50.270   7.330  14.275  0.00  0.00    +0.000 N 
ATOM     12  O   UNL     1      49.024   6.641  16.008  0.00  0.00    +0.000 OA
ATOM     13  H   UNL     1      50.420   7.582  13.313  0.00  0.00    +0.000 HD
ATOM     14  H   UNL     1      51.068   7.361  14.902  0.00  0.00    +0.000 HD
ENDBRANCH   6  10
BRANCH   1  15
ATOM     15  C   UNL     1      43.380   5.913  11.369  0.00  0.00    +0.000 C 
BRANCH  15  18
ATOM     16  C   UNL     1      44.804   3.555   8.687  0.00  0.00    +0.000 A 
ATOM     17  C   UNL     1      44.440   4.720   9.369  0.00  0.00    +0.000 A 
ATOM     18  C   UNL     1      43.839   4.669  10.640  0.00  0.00    +0.000 A 
ATOM     19  C   UNL     1      43.704   3.420  11.264  0.00  0.00    +0.000 A 
ATOM     20  C   UNL     1      44.095   2.249  10.610  0.00  0.00    +0.000 A 
ATOM     21  C   UNL     1      44.624   2.322   9.322  0.00  0.00    +0.000 A 
BRANCH  16  23
ATOM     22  C   UNL     1      46.723   3.727   7.286  0.00  0.00    +0.000 C 
ATOM     23  O   UNL     1      45.321   3.528   7.418  0.00  0.00    +0.000 OA
ENDBRANCH  16  23
BRANCH  21  24
ATOM     24  O   UNL     1      44.974   1.169   8.666  0.00  0.00    +0.000 OA
ATOM     25  H   UNL     1      45.872   0.914   8.924  0.00  0.00    +0.000 HD
ENDBRANCH  21  24
ENDBRANCH  15  18
ENDBRANCH   1  15
TORSDOF 5
ENDMDL
MODEL 6
REMARK VINA RESULT:    -6.034      2.463      4.022
REMARK INTER + INTRA:          -8.312
REMARK INTER:                  -7.802
REMARK INTRA:                  -0.510
REMARK UNBOUND:                -0.691
REMARK  Name = 
REMARK  6 active torsions:
REMARK  status: ('A' for Active; 'I' for Inactive)
REMARK    1  A    between atoms: C_1  and  O_2
REMARK    2  A    between atoms: O_2  and  C_3
REMARK    3  A    between atoms: C_5  and  C_6
REMARK    4  A    between atoms: C_6  and  N_7
REMARK    5  A    between atoms: C_12  and  C_13
REMARK    6  A    between atoms: C_21  and  O_22
REMARK                            x       y       z     vdW  Elec       q    Type
REMARK                         _______ _______ _______ _____ _____    ______ ____
ROOT
ATOM      1  N   UNL     1      46.054   5.935  13.271  0.00  0.00    +0.000 N 
ATOM      2  C   UNL     1      46.550   5.037  14.176  0.00  0.00    +0.000 A 
ATOM      3  N   UNL     1      47.810   5.283  14.466  0.00  0.00    +0.000 NA
ATOM      4  C   UNL     1      48.149   6.373  13.707  0.00  0.00    +0.000 A 
ATOM      5  C   UNL     1      49.388   7.022  13.594  0.00  0.00    +0.000 A 
ATOM      6  C   UNL     1      49.501   8.117  12.724  0.00  0.00    +0.000 A 
ATOM      7  C   UNL     1      48.378   8.560  12.004  0.00  0.00    +0.000 A 
ATOM      8  C   UNL     1      47.132   7.929  12.113  0.00  0.00    +0.000 A 
ATOM      9  C   UNL     1      47.062   6.820  12.960  0.00  0.00    +0.000 A 
ENDROOT
BRANCH   6  10
ATOM     10  C   UNL     1      50.787   8.844  12.504  0.00  0.00    +0.000 C 
ATOM     11  N   UNL     1      51.896   8.127  12.160  0.00  0.00    +0.000 N 
ATOM     12  O   UNL     1      50.858  10.060  12.622  0.00  0.00    +0.000 OA
ATOM     13  H   UNL     1      51.940   7.128  12.048  0.00  0.00    +0.000 HD
ATOM     14  H   UNL     1      52.750   8.657  12.015  0.00  0.00    +0.000 HD
ENDBRANCH   6  10
BRANCH   1  15
ATOM     15  C   UNL     1      44.739   5.862  12.647  0.00  0.00    +0.000 C 
BRANCH  15  18
ATOM     16  C   UNL     1      45.002   4.197   9.193  0.00  0.00    +0.000 A 
ATOM     17  C   UNL     1      45.152   5.117  10.236  0.00  0.00    +0.000 A 
ATOM     18  C   UNL     1      44.644   4.857  11.521  0.00  0.00    +0.000 A 
ATOM     19  C   UNL     1      44.070   3.601  11.771  0.00  0.00    +0.000 A 
ATOM     20  C   UNL     1      43.945   2.658  10.748  0.00  0.00    +0.000 A 
ATOM     21  C   UNL     1      44.394   2.967   9.465  0.00  0.00    +0.000 A 
BRANCH  16  23
ATOM     22  C   UNL     1      46.678   3.914   7.524  0.00  0.00    +0.000 C 
ATOM     23  O   UNL     1      45.402   4.418   7.900  0.00  0.00    +0.000 OA
ENDBRANCH  16  23
BRANCH  21  24
ATOM     24  O   UNL     1      44.237   2.056   8.453  0.00  0.00    +0.000 OA
ATOM     25  H   UNL     1      44.188   1.164   8.829  0.00  0.00    +0.000 HD
ENDBRANCH  21  24
ENDBRANCH  15  18
ENDBRANCH   1  15
TORSDOF 5
ENDMDL
MODEL 7
REMARK VINA RESULT:    -5.804      3.201      5.176
REMARK INTER + INTRA:          -8.021
REMARK INTER:                  -7.637
REMARK INTRA:                  -0.384
REMARK UNBOUND:                -0.691
REMARK  Name = 
REMARK  6 active torsions:
REMARK  status: ('A' for Active; 'I' for Inactive)
REMARK    1  A    between atoms: C_1  and  O_2
REMARK    2  A    between atoms: O_2  and  C_3
REMARK    3  A    between atoms: C_5  and  C_6
REMARK    4  A    between atoms: C_6  and  N_7
REMARK    5  A    between atoms: C_12  and  C_13
REMARK    6  A    between atoms: C_21  and  O_22
REMARK                            x       y       z     vdW  Elec       q    Type
REMARK                         _______ _______ _______ _____ _____    ______ ____
ROOT
ATOM      1  N   UNL     1      46.707   6.952  12.769  0.00  0.00    +0.000 N 
ATOM      2  C   UNL     1      47.408   5.894  13.278  0.00  0.00    +0.000 A 
ATOM      3  N   UNL     1      48.706   6.102  13.237  0.00  0.00    +0.000 NA
ATOM      4  C   UNL     1      48.855   7.339  12.663  0.00  0.00    +0.000 A 
ATOM      5  C   UNL     1      50.033   8.026  12.337  0.00  0.00    +0.000 A 
ATOM      6  C   UNL     1      49.934   9.286  11.726  0.00  0.00    +0.000 A 
ATOM      7  C   UNL     1      48.670   9.845  11.473  0.00  0.00    +0.000 A 
ATOM      8  C   UNL     1      47.484   9.175  11.801  0.00  0.00    +0.000 A 
ATOM      9  C   UNL     1      47.617   7.909  12.376  0.00  0.00    +0.000 A 
ENDROOT
BRANCH   6  10
ATOM     10  C   UNL     1      51.129  10.075  11.303  0.00  0.00    +0.000 C 
ATOM     11  N   UNL     1      51.321  11.315  11.840  0.00  0.00    +0.000 N 
ATOM     12  O   UNL     1      51.932   9.629  10.493  0.00  0.00    +0.000 OA
ATOM     13  H   UNL     1      50.716  11.769  12.504  0.00  0.00    +0.000 HD
ATOM     14  H   UNL     1      52.147  11.819  11.531  0.00  0.00    +0.000 HD
ENDBRANCH   6  10
BRANCH   1  15
ATOM     15  C   UNL     1      45.267   6.983  12.552  0.00  0.00    +0.000 C 
BRANCH  15  18
ATOM     16  C   UNL     1      44.186   3.775  10.732  0.00  0.00    +0.000 A 
ATOM     17  C   UNL     1      44.805   4.998  11.006  0.00  0.00    +0.000 A 
ATOM     18  C   UNL     1      44.658   5.631  12.254  0.00  0.00    +0.000 A 
ATOM     19  C   UNL     1      43.958   4.956  13.265  0.00  0.00    +0.000 A 
ATOM     20  C   UNL     1      43.362   3.717  13.018  0.00  0.00    +0.000 A 
ATOM     21  C   UNL     1      43.464   3.144  11.751  0.00  0.00    +0.000 A 
BRANCH  16  23
ATOM     22  C   UNL     1      44.704   3.895   8.410  0.00  0.00    +0.000 C 
ATOM     23  O   UNL     1      44.222   3.142   9.516  0.00  0.00    +0.000 OA
ENDBRANCH  16  23
BRANCH  21  24
ATOM     24  O   UNL     1      42.849   1.945  11.497  0.00  0.00    +0.000 OA
ATOM     25  H   UNL     1      42.229   1.745  12.214  0.00  0.00    +0.000 HD
ENDBRANCH  21  24
ENDBRANCH  15  18
ENDBRANCH   1  15
TORSDOF 5
ENDMDL
MODEL 8
REMARK VINA RESULT:    -5.626      3.905      8.251
REMARK INTER + INTRA:          -7.796
REMARK INTER:                  -7.145
REMARK INTRA:                  -0.651
REMARK UNBOUND:                -0.691
REMARK  Name = 
REMARK  6 active torsions:
REMARK  status: ('A' for Active; 'I' for Inactive)
REMARK    1  A    between atoms: C_1  and  O_2
REMARK    2  A    between atoms: O_2  and  C_3
REMARK    3  A    between atoms: C_5  and  C_6
REMARK    4  A    between atoms: C_6  and  N_7
REMARK    5  A    between atoms: C_12  and  C_13
REMARK    6  A    between atoms: C_21  and  O_22
REMARK                            x       y       z     vdW  Elec       q    Type
REMARK                         _______ _______ _______ _____ _____    ______ ____
ROOT
ATOM      1  N   UNL     1      47.629   7.308  13.741  0.00  0.00    +0.000 N 
ATOM      2  C   UNL     1      47.207   8.567  13.411  0.00  0.00    +0.000 A 
ATOM      3  N   UNL     1      46.133   8.537  12.652  0.00  0.00    +0.000 NA
ATOM      4  C   UNL     1      45.856   7.207  12.469  0.00  0.00    +0.000 A 
ATOM      5  C   UNL     1      44.845   6.611  11.700  0.00  0.00    +0.000 A 
ATOM      6  C   UNL     1      44.774   5.211  11.644  0.00  0.00    +0.000 A 
ATOM      7  C   UNL     1      45.692   4.433  12.371  0.00  0.00    +0.000 A 
ATOM      8  C   UNL     1      46.700   5.012  13.151  0.00  0.00    +0.000 A 
ATOM      9  C   UNL     1      46.766   6.408  13.157  0.00  0.00    +0.000 A 
ENDROOT
BRANCH   6  10
ATOM     10  C   UNL     1      43.762   4.485  10.820  0.00  0.00    +0.000 C 
ATOM     11  N   UNL     1      43.746   4.689   9.470  0.00  0.00    +0.000 N 
ATOM     12  O   UNL     1      42.958   3.717  11.332  0.00  0.00    +0.000 OA
ATOM     13  H   UNL     1      44.358   5.305   8.961  0.00  0.00    +0.000 HD
ATOM     14  H   UNL     1      43.046   4.176   8.943  0.00  0.00    +0.000 HD
ENDBRANCH   6  10
BRANCH   1  15
ATOM     15  C   UNL     1      48.858   6.993  14.457  0.00  0.00    +0.000 C 
BRANCH  15  18
ATOM     16  C   UNL     1      48.215   5.232  17.813  0.00  0.00    +0.000 A 
ATOM     17  C   UNL     1      48.452   5.443  16.451  0.00  0.00    +0.000 A 
ATOM     18  C   UNL     1      48.662   6.734  15.935  0.00  0.00    +0.000 A 
ATOM     19  C   UNL     1      48.736   7.808  16.834  0.00  0.00    +0.000 A 
ATOM     20  C   UNL     1      48.535   7.609  18.202  0.00  0.00    +0.000 A 
ATOM     21  C   UNL     1      48.259   6.329  18.680  0.00  0.00    +0.000 A 
BRANCH  16  23
ATOM     22  C   UNL     1      47.418   3.009  17.501  0.00  0.00    +0.000 C 
ATOM     23  O   UNL     1      47.925   4.014  18.371  0.00  0.00    +0.000 OA
ENDBRANCH  16  23
BRANCH  21  24
ATOM     24  O   UNL     1      48.026   6.139  20.018  0.00  0.00    +0.000 OA
ATOM     25  H   UNL     1      48.153   5.204  20.236  0.00  0.00    +0.000 HD
ENDBRANCH  21  24
ENDBRANCH  15  18
ENDBRANCH   1  15
TORSDOF 5
ENDMDL
MODEL 9
REMARK VINA RESULT:    -5.566      3.597      6.878
REMARK INTER + INTRA:          -7.721
REMARK INTER:                  -7.383
REMARK INTRA:                  -0.338
REMARK UNBOUND:                -0.691
REMARK  Name = 
REMARK  6 active torsions:
REMARK  status: ('A' for Active; 'I' for Inactive)
REMARK    1  A    between atoms: C_1  and  O_2
REMARK    2  A    between atoms: O_2  and  C_3
REMARK    3  A    between atoms: C_5  and  C_6
REMARK    4  A    between atoms: C_6  and  N_7
REMARK    5  A    between atoms: C_12  and  C_13
REMARK    6  A    between atoms: C_21  and  O_22
REMARK                            x       y       z     vdW  Elec       q    Type
REMARK                         _______ _______ _______ _____ _____    ______ ____
ROOT
ATOM      1  N   UNL     1      47.068   6.984  13.238  0.00  0.00    +0.000 N 
ATOM      2  C   UNL     1      47.718   6.223  14.171  0.00  0.00    +0.000 A 
ATOM      3  N   UNL     1      47.381   4.955  14.087  0.00  0.00    +0.000 NA
ATOM      4  C   UNL     1      46.463   4.891  13.070  0.00  0.00    +0.000 A 
ATOM      5  C   UNL     1      45.745   3.784  12.595  0.00  0.00    +0.000 A 
ATOM      6  C   UNL     1      44.831   3.971  11.546  0.00  0.00    +0.000 A 
ATOM      7  C   UNL     1      44.668   5.246  10.976  0.00  0.00    +0.000 A 
ATOM      8  C   UNL     1      45.385   6.359  11.433  0.00  0.00    +0.000 A 
ATOM      9  C   UNL     1      46.260   6.147  12.502  0.00  0.00    +0.000 A 
ENDROOT
BRANCH   6  10
ATOM     10  C   UNL     1      43.990   2.864  11.001  0.00  0.00    +0.000 C 
ATOM     11  N   UNL     1      44.436   2.174   9.911  0.00  0.00    +0.000 N 
ATOM     12  O   UNL     1      42.918   2.569  11.515  0.00  0.00    +0.000 OA
ATOM     13  H   UNL     1      45.295   2.348   9.417  0.00  0.00    +0.000 HD
ATOM     14  H   UNL     1      43.838   1.427   9.572  0.00  0.00    +0.000 HD
ENDBRANCH   6  10
BRANCH   1  15
ATOM     15  C   UNL     1      47.121   8.438  13.151  0.00  0.00    +0.000 C 
BRANCH  15  18
ATOM     16  C   UNL     1      50.565   8.746  11.472  0.00  0.00    +0.000 A 
ATOM     17  C   UNL     1      49.468   8.216  12.159  0.00  0.00    +0.000 A 
ATOM     18  C   UNL     1      48.295   8.966  12.358  0.00  0.00    +0.000 A 
ATOM     19  C   UNL     1      48.203  10.231  11.757  0.00  0.00    +0.000 A 
ATOM     20  C   UNL     1      49.276  10.761  11.038  0.00  0.00    +0.000 A 
ATOM     21  C   UNL     1      50.454  10.024  10.916  0.00  0.00    +0.000 A 
BRANCH  16  23
ATOM     22  C   UNL     1      51.871   7.201  10.215  0.00  0.00    +0.000 C 
ATOM     23  O   UNL     1      51.764   8.102  11.310  0.00  0.00    +0.000 OA
ENDBRANCH  16  23
BRANCH  21  24
ATOM     24  O   UNL     1      51.522  10.559  10.241  0.00  0.00    +0.000 OA
ATOM     25  H   UNL     1      51.933  11.247  10.785  0.00  0.00    +0.000 HD
ENDBRANCH  21  24
ENDBRANCH  15  18
ENDBRANCH   1  15
TORSDOF 5
ENDMDL
