MODEL 1
REMARK VINA RESULT:    -7.971      0.000      0.000
REMARK INTER + INTRA:         -11.533
REMARK INTER:                 -10.767
REMARK INTRA:                  -0.766
REMARK UNBOUND:                -0.766
REMARK  Name = 
REMARK  6 active torsions:
REMARK  status: ('A' for Active; 'I' for Inactive)
REMARK    1  A    between atoms: C_2  and  C_25
REMARK    2  A    between atoms: N_3  and  C_4
REMARK    3  A    between atoms: C_4  and  C_5
REMARK    4  A    between atoms: C_8  and  C_9
REMARK    5  A    between atoms: C_9  and  N_10
REMARK    6  A    between atoms: C_11  and  C_13
REMARK                            x       y       z     vdW  Elec       q    Type
REMARK                         _______ _______ _______ _____ _____    ______ ____
ROOT
ATOM      1  C   UNL     1      44.657   5.106  11.371  0.00  0.00    +0.000 A 
ATOM      2  C   UNL     1      45.803   4.671  12.052  0.00  0.00    +0.000 A 
ATOM      3  C   UNL     1      46.622   5.584  12.727  0.00  0.00    +0.000 A 
ATOM      4  C   UNL     1      46.301   6.947  12.753  0.00  0.00    +0.000 A 
ATOM      5  C   UNL     1      45.159   7.382  12.068  0.00  0.00    +0.000 A 
ATOM      6  C   UNL     1      44.340   6.471  11.394  0.00  0.00    +0.000 A 
ENDROOT
BRANCH   1   7
ATOM      7  C   UNL     1      43.802   4.135  10.602  0.00  0.00    +0.000 C 
BRANCH   7  10
ATOM      8  O   UNL     1      45.213   4.569   8.277  0.00  0.00    +0.000 OA
ATOM      9  C   UNL     1      45.258   3.437   8.758  0.00  0.00    +0.000 C 
ATOM     10  N   UNL     1      44.565   3.123   9.918  0.00  0.00    +0.000 N 
ATOM     11  H   UNL     1      44.645   2.182  10.289  0.00  0.00    +0.000 HD
BRANCH   9  12
ATOM     12  C   UNL     1      46.023   2.337   8.185  0.00  0.00    +0.000 A 
ATOM     13  N   UNL     1      45.846   1.046   8.424  0.00  0.00    +0.000 NA
ATOM     14  C   UNL     1      46.813   0.440   7.657  0.00  0.00    +0.000 A 
ATOM     15  C   UNL     1      47.545   1.386   6.984  0.00  0.00    +0.000 A 
ATOM     16  O   UNL     1      47.048   2.610   7.311  0.00  0.00    +0.000 OA
ENDBRANCH   9  12
ENDBRANCH   7  10
ENDBRANCH   1   7
BRANCH   4  17
ATOM     17  C   UNL     1      47.183   7.940  13.467  0.00  0.00    +0.000 C 
BRANCH  17  18
ATOM     18  N   UNL     1      47.650   7.419  14.728  0.00  0.00    +0.000 N 
ATOM     19  C   UNL     1      48.939   6.975  14.881  0.00  0.00    +0.000 C 
ATOM     20  O   UNL     1      49.765   7.055  13.974  0.00  0.00    +0.000 OA
ATOM     21  H   UNL     1      46.942   7.136  15.398  0.00  0.00    +0.000 HD
BRANCH  19  22
ATOM     22  C   UNL     1      49.304   6.454  16.205  0.00  0.00    +0.000 A 
ATOM     23  C   UNL     1      50.255   7.120  16.968  0.00  0.00    +0.000 A 
ATOM     24  S   UNL     1      50.523   6.413  18.496  0.00  0.00    +0.000 S 
ATOM     25  C   UNL     1      49.420   5.160  18.172  0.00  0.00    +0.000 A 
ATOM     26  N   UNL     1      49.193   4.175  19.082  0.00  0.00    +0.000 NA
ATOM     27  C   UNL     1      48.357   3.271  18.693  0.00  0.00    +0.000 A 
ATOM     28  N   UNL     1      47.723   3.267  17.479  0.00  0.00    +0.000 N 
ATOM     29  C   UNL     1      47.900   4.254  16.539  0.00  0.00    +0.000 A 
ATOM     30  O   UNL     1      47.287   4.237  15.476  0.00  0.00    +0.000 OA
ATOM     31  C   UNL     1      48.839   5.289  16.922  0.00  0.00    +0.000 A 
ATOM     32  H   UNL     1      47.074   2.532  17.236  0.00  0.00    +0.000 HD
ENDBRANCH  19  22
ENDBRANCH  17  18
ENDBRANCH   4  17
TORSDOF 6
ENDMDL
MODEL 2
REMARK VINA RESULT:    -7.647      2.050      2.446
REMARK INTER + INTRA:         -11.095
REMARK INTER:                 -10.281
REMARK INTRA:                  -0.814
REMARK UNBOUND:                -0.766
REMARK  Name = 
REMARK  6 active torsions:
REMARK  status: ('A' for Active; 'I' for Inactive)
REMARK    1  A    between atoms: C_2  and  C_25
REMARK    2  A    between atoms: N_3  and  C_4
REMARK    3  A    between atoms: C_4  and  C_5
REMARK    4  A    between atoms: C_8  and  C_9
REMARK    5  A    between atoms: C_9  and  N_10
REMARK    6  A    between atoms: C_11  and  C_13
REMARK                            x       y       z     vdW  Elec       q    Type
REMARK                         _______ _______ _______ _____ _____    ______ ____
ROOT
ATOM      1  C   UNL     1      45.212   5.088  11.432  0.00  0.00    +0.000 A 
ATOM      2  C   UNL     1      45.559   4.581  12.692  0.00  0.00    +0.000 A 
ATOM      3  C   UNL     1      46.479   5.256  13.504  0.00  0.00    +0.000 A 
ATOM      4  C   UNL     1      47.054   6.461  13.082  0.00  0.00    +0.000 A 
ATOM      5  C   UNL     1      46.711   6.964  11.820  0.00  0.00    +0.000 A 
ATOM      6  C   UNL     1      45.792   6.292  11.009  0.00  0.00    +0.000 A 
ENDROOT
BRANCH   1   7
ATOM      7  C   UNL     1      44.263   4.340  10.535  0.00  0.00    +0.000 C 
BRANCH   7  10
ATOM      8  O   UNL     1      45.538   4.765   8.131  0.00  0.00    +0.000 OA
ATOM      9  C   UNL     1      45.536   3.614   8.570  0.00  0.00    +0.000 C 
ATOM     10  N   UNL     1      44.904   3.305   9.766  0.00  0.00    +0.000 N 
ATOM     11  H   UNL     1      44.942   2.347  10.098  0.00  0.00    +0.000 HD
BRANCH   9  12
ATOM     12  C   UNL     1      46.181   2.487   7.907  0.00  0.00    +0.000 A 
ATOM     13  N   UNL     1      46.817   2.516   6.746  0.00  0.00    +0.000 NA
ATOM     14  C   UNL     1      47.225   1.215   6.570  0.00  0.00    +0.000 A 
ATOM     15  C   UNL     1      46.817   0.443   7.628  0.00  0.00    +0.000 A 
ATOM     16  O   UNL     1      46.146   1.247   8.499  0.00  0.00    +0.000 OA
ENDBRANCH   9  12
ENDBRANCH   7  10
ENDBRANCH   1   7
BRANCH   4  17
ATOM     17  C   UNL     1      48.054   7.189  13.944  0.00  0.00    +0.000 C 
BRANCH  17  18
ATOM     18  N   UNL     1      47.950   6.789  15.325  0.00  0.00    +0.000 N 
ATOM     19  C   UNL     1      49.059   6.428  16.047  0.00  0.00    +0.000 C 
ATOM     20  O   UNL     1      50.190   6.484  15.571  0.00  0.00    +0.000 OA
ATOM     21  H   UNL     1      47.029   6.519  15.656  0.00  0.00    +0.000 HD
BRANCH  19  22
ATOM     22  C   UNL     1      48.835   6.027  17.443  0.00  0.00    +0.000 A 
ATOM     23  C   UNL     1      49.097   4.721  17.834  0.00  0.00    +0.000 A 
ATOM     24  S   UNL     1      48.834   4.437  19.494  0.00  0.00    +0.000 S 
ATOM     25  C   UNL     1      48.306   6.036  19.740  0.00  0.00    +0.000 A 
ATOM     26  N   UNL     1      47.898   6.456  20.968  0.00  0.00    +0.000 NA
ATOM     27  C   UNL     1      47.492   7.682  21.004  0.00  0.00    +0.000 A 
ATOM     28  N   UNL     1      47.466   8.526  19.925  0.00  0.00    +0.000 N 
ATOM     29  C   UNL     1      47.894   8.155  18.674  0.00  0.00    +0.000 A 
ATOM     30  O   UNL     1      47.891   8.949  17.739  0.00  0.00    +0.000 OA
ATOM     31  C   UNL     1      48.349   6.782  18.575  0.00  0.00    +0.000 A 
ATOM     32  H   UNL     1      47.142   9.478  20.021  0.00  0.00    +0.000 HD
ENDBRANCH  19  22
ENDBRANCH  17  18
ENDBRANCH   4  17
TORSDOF 6
ENDMDL
MODEL 3
REMARK VINA RESULT:    -7.447      4.718      9.283
REMARK INTER + INTRA:         -10.825
REMARK INTER:                 -10.036
REMARK INTRA:                  -0.789
REMARK UNBOUND:                -0.766
REMARK  Name = 
REMARK  6 active torsions:
REMARK  status: ('A' for Active; 'I' for Inactive)
REMARK    1  A    between atoms: C_2  and  C_25
REMARK    2  A    between atoms: N_3  and  C_4
REMARK    3  A    between atoms: C_4  and  C_5
REMARK    4  A    between atoms: C_8  and  C_9
REMARK    5  A    between atoms: C_9  and  N_10
REMARK    6  A    between atoms: C_11  and  C_13
REMARK                            x       y       z     vdW  Elec       q    Type
REMARK                         _______ _______ _______ _____ _____    ______ ____
ROOT
ATOM      1  C   UNL     1      51.432   2.934  17.769  0.00  0.00    +0.000 A 
ATOM      2  C   UNL     1      50.682   1.948  17.113  0.00  0.00    +0.000 A 
ATOM      3  C   UNL     1      49.320   2.142  16.852  0.00  0.00    +0.000 A 
ATOM      4  C   UNL     1      48.685   3.334  17.224  0.00  0.00    +0.000 A 
ATOM      5  C   UNL     1      49.434   4.317  17.884  0.00  0.00    +0.000 A 
ATOM      6  C   UNL     1      50.795   4.124  18.143  0.00  0.00    +0.000 A 
ENDROOT
BRANCH   1   7
ATOM      7  C   UNL     1      52.884   2.708  18.096  0.00  0.00    +0.000 C 
BRANCH   7  10
ATOM      8  O   UNL     1      54.640   1.002  16.836  0.00  0.00    +0.000 OA
ATOM      9  C   UNL     1      54.078   0.582  17.848  0.00  0.00    +0.000 C 
ATOM     10  N   UNL     1      53.165   1.367  18.538  0.00  0.00    +0.000 N 
ATOM     11  H   UNL     1      52.739   0.988  19.376  0.00  0.00    +0.000 HD
BRANCH   9  12
ATOM     12  C   UNL     1      54.304  -0.740  18.418  0.00  0.00    +0.000 A 
ATOM     13  N   UNL     1      54.225  -1.068  19.700  0.00  0.00    +0.000 NA
ATOM     14  C   UNL     1      54.531  -2.409  19.708  0.00  0.00    +0.000 A 
ATOM     15  C   UNL     1      54.790  -2.844  18.433  0.00  0.00    +0.000 A 
ATOM     16  O   UNL     1      54.645  -1.783  17.592  0.00  0.00    +0.000 OA
ENDBRANCH   9  12
ENDBRANCH   7  10
ENDBRANCH   1   7
BRANCH   4  17
ATOM     17  C   UNL     1      47.217   3.548  16.958  0.00  0.00    +0.000 C 
BRANCH  17  18
ATOM     18  N   UNL     1      47.004   4.569  15.963  0.00  0.00    +0.000 N 
ATOM     19  C   UNL     1      47.072   4.283  14.624  0.00  0.00    +0.000 C 
ATOM     20  O   UNL     1      47.259   3.141  14.213  0.00  0.00    +0.000 OA
ATOM     21  H   UNL     1      47.079   5.533  16.272  0.00  0.00    +0.000 HD
BRANCH  19  22
ATOM     22  C   UNL     1      46.849   5.402  13.699  0.00  0.00    +0.000 A 
ATOM     23  C   UNL     1      47.881   6.294  13.437  0.00  0.00    +0.000 A 
ATOM     24  S   UNL     1      47.473   7.501  12.304  0.00  0.00    +0.000 S 
ATOM     25  C   UNL     1      45.884   6.910  12.164  0.00  0.00    +0.000 A 
ATOM     26  N   UNL     1      44.979   7.521  11.353  0.00  0.00    +0.000 NA
ATOM     27  C   UNL     1      43.803   6.986  11.367  0.00  0.00    +0.000 A 
ATOM     28  N   UNL     1      43.453   5.893  12.115  0.00  0.00    +0.000 N 
ATOM     29  C   UNL     1      44.340   5.227  12.927  0.00  0.00    +0.000 A 
ATOM     30  O   UNL     1      44.000   4.228  13.553  0.00  0.00    +0.000 OA
ATOM     31  C   UNL     1      45.673   5.794  12.956  0.00  0.00    +0.000 A 
ATOM     32  H   UNL     1      42.516   5.519  12.077  0.00  0.00    +0.000 HD
ENDBRANCH  19  22
ENDBRANCH  17  18
ENDBRANCH   4  17
TORSDOF 6
ENDMDL
MODEL 4
REMARK VINA RESULT:    -7.355      1.841      2.201
REMARK INTER + INTRA:         -10.701
REMARK INTER:                  -9.803
REMARK INTRA:                  -0.898
REMARK UNBOUND:                -0.766
REMARK  Name = 
REMARK  6 active torsions:
REMARK  status: ('A' for Active; 'I' for Inactive)
REMARK    1  A    between atoms: C_2  and  C_25
REMARK    2  A    between atoms: N_3  and  C_4
REMARK    3  A    between atoms: C_4  and  C_5
REMARK    4  A    between atoms: C_8  and  C_9
REMARK    5  A    between atoms: C_9  and  N_10
REMARK    6  A    between atoms: C_11  and  C_13
REMARK                            x       y       z     vdW  Elec       q    Type
REMARK                         _______ _______ _______ _____ _____    ______ ____
ROOT
ATOM      1  C   UNL     1      45.421   4.507  12.149  0.00  0.00    +0.000 A 
ATOM      2  C   UNL     1      45.444   5.819  11.656  0.00  0.00    +0.000 A 
ATOM      3  C   UNL     1      46.229   6.800  12.274  0.00  0.00    +0.000 A 
ATOM      4  C   UNL     1      47.023   6.485  13.384  0.00  0.00    +0.000 A 
ATOM      5  C   UNL     1      46.995   5.174  13.879  0.00  0.00    +0.000 A 
ATOM      6  C   UNL     1      46.212   4.194  13.262  0.00  0.00    +0.000 A 
ENDROOT
BRANCH   1   7
ATOM      7  C   UNL     1      44.540   3.462  11.519  0.00  0.00    +0.000 C 
BRANCH   7  10
ATOM      8  O   UNL     1      44.527   3.920   8.803  0.00  0.00    +0.000 OA
ATOM      9  C   UNL     1      45.180   2.957   9.207  0.00  0.00    +0.000 C 
ATOM     10  N   UNL     1      45.230   2.642  10.557  0.00  0.00    +0.000 N 
ATOM     11  H   UNL     1      45.794   1.850  10.848  0.00  0.00    +0.000 HD
BRANCH   9  12
ATOM     12  C   UNL     1      45.952   2.073   8.342  0.00  0.00    +0.000 A 
ATOM     13  N   UNL     1      46.760   2.443   7.360  0.00  0.00    +0.000 NA
ATOM     14  C   UNL     1      47.227   1.249   6.861  0.00  0.00    +0.000 A 
ATOM     15  C   UNL     1      46.681   0.200   7.556  0.00  0.00    +0.000 A 
ATOM     16  O   UNL     1      45.861   0.713   8.513  0.00  0.00    +0.000 OA
ENDBRANCH   9  12
ENDBRANCH   7  10
ENDBRANCH   1   7
BRANCH   4  17
ATOM     17  C   UNL     1      47.862   7.536  14.064  0.00  0.00    +0.000 C 
BRANCH  17  18
ATOM     18  N   UNL     1      49.074   6.975  14.606  0.00  0.00    +0.000 N 
ATOM     19  C   UNL     1      49.435   7.186  15.911  0.00  0.00    +0.000 C 
ATOM     20  O   UNL     1      48.719   7.812  16.690  0.00  0.00    +0.000 OA
ATOM     21  H   UNL     1      49.774   6.663  13.939  0.00  0.00    +0.000 HD
BRANCH  19  22
ATOM     22  C   UNL     1      50.696   6.576  16.354  0.00  0.00    +0.000 A 
ATOM     23  C   UNL     1      51.900   7.222  16.102  0.00  0.00    +0.000 A 
ATOM     24  S   UNL     1      53.260   6.405  16.726  0.00  0.00    +0.000 S 
ATOM     25  C   UNL     1      52.295   5.130  17.308  0.00  0.00    +0.000 A 
ATOM     26  N   UNL     1      52.855   4.063  17.940  0.00  0.00    +0.000 NA
ATOM     27  C   UNL     1      52.011   3.154  18.300  0.00  0.00    +0.000 A 
ATOM     28  N   UNL     1      50.658   3.220  18.091  0.00  0.00    +0.000 N 
ATOM     29  C   UNL     1      50.046   4.289  17.482  0.00  0.00    +0.000 A 
ATOM     30  O   UNL     1      48.828   4.330  17.345  0.00  0.00    +0.000 OA
ATOM     31  C   UNL     1      50.951   5.333  17.047  0.00  0.00    +0.000 A 
ATOM     32  H   UNL     1      50.050   2.477  18.403  0.00  0.00    +0.000 HD
ENDBRANCH  19  22
ENDBRANCH  17  18
ENDBRANCH   4  17
TORSDOF 6
ENDMDL
MODEL 5
REMARK VINA RESULT:    -6.946      2.250      3.517
REMARK INTER + INTRA:         -10.149
REMARK INTER:                  -9.331
REMARK INTRA:                  -0.818
REMARK UNBOUND:                -0.766
REMARK  Name = 
REMARK  6 active torsions:
REMARK  status: ('A' for Active; 'I' for Inactive)
REMARK    1  A    between atoms: C_2  and  C_25
REMARK    2  A    between atoms: N_3  and  C_4
REMARK    3  A    between atoms: C_4  and  C_5
REMARK    4  A    between atoms: C_8  and  C_9
REMARK    5  A    between atoms: C_9  and  N_10
REMARK    6  A    between atoms: C_11  and  C_13
REMARK                            x       y       z     vdW  Elec       q    Type
REMARK                         _______ _______ _______ _____ _____    ______ ____
ROOT
ATOM      1  C   UNL     1      45.773   5.321  11.692  0.00  0.00    +0.000 A 
ATOM      2  C   UNL     1      46.714   6.153  12.314  0.00  0.00    +0.000 A 
ATOM      3  C   UNL     1      47.219   5.837  13.581  0.00  0.00    +0.000 A 
ATOM      4  C   UNL     1      46.810   4.672  14.242  0.00  0.00    +0.000 A 
ATOM      5  C   UNL     1      45.866   3.844  13.622  0.00  0.00    +0.000 A 
ATOM      6  C   UNL     1      45.361   4.158  12.356  0.00  0.00    +0.000 A 
ENDROOT
BRANCH   1   7
ATOM      7  C   UNL     1      45.189   5.684  10.352  0.00  0.00    +0.000 C 
BRANCH   7  10
ATOM      8  O   UNL     1      44.305   3.328   9.234  0.00  0.00    +0.000 OA
ATOM      9  C   UNL     1      45.311   3.840   8.742  0.00  0.00    +0.000 C 
ATOM     10  N   UNL     1      45.837   5.018   9.252  0.00  0.00    +0.000 N 
ATOM     11  H   UNL     1      46.657   5.414   8.804  0.00  0.00    +0.000 HD
BRANCH   9  12
ATOM     12  C   UNL     1      46.035   3.287   7.604  0.00  0.00    +0.000 A 
ATOM     13  N   UNL     1      46.320   3.914   6.473  0.00  0.00    +0.000 NA
ATOM     14  C   UNL     1      46.995   2.966   5.740  0.00  0.00    +0.000 A 
ATOM     15  C   UNL     1      47.091   1.797   6.451  0.00  0.00    +0.000 A 
ATOM     16  O   UNL     1      46.481   1.988   7.654  0.00  0.00    +0.000 OA
ENDBRANCH   9  12
ENDBRANCH   7  10
ENDBRANCH   1   7
BRANCH   4  17
ATOM     17  C   UNL     1      47.339   4.329  15.611  0.00  0.00    +0.000 C 
BRANCH  17  18
ATOM     18  N   UNL     1      47.578   5.514  16.397  0.00  0.00    +0.000 N 
ATOM     19  C   UNL     1      48.823   5.799  16.896  0.00  0.00    +0.000 C 
ATOM     20  O   UNL     1      49.798   5.092  16.650  0.00  0.00    +0.000 OA
ATOM     21  H   UNL     1      46.764   5.972  16.795  0.00  0.00    +0.000 HD
BRANCH  19  22
ATOM     22  C   UNL     1      48.950   7.027  17.692  0.00  0.00    +0.000 A 
ATOM     23  C   UNL     1      49.253   6.942  19.045  0.00  0.00    +0.000 A 
ATOM     24  S   UNL     1      49.413   8.459  19.807  0.00  0.00    +0.000 S 
ATOM     25  C   UNL     1      49.028   9.284  18.370  0.00  0.00    +0.000 A 
ATOM     26  N   UNL     1      48.966  10.642  18.339  0.00  0.00    +0.000 NA
ATOM     27  C   UNL     1      48.631  11.135  17.193  0.00  0.00    +0.000 A 
ATOM     28  N   UNL     1      48.362  10.391  16.074  0.00  0.00    +0.000 N 
ATOM     29  C   UNL     1      48.440   9.020  16.050  0.00  0.00    +0.000 A 
ATOM     30  O   UNL     1      48.227   8.389  15.020  0.00  0.00    +0.000 OA
ATOM     31  C   UNL     1      48.800   8.415  17.317  0.00  0.00    +0.000 A 
ATOM     32  H   UNL     1      48.111  10.838  15.204  0.00  0.00    +0.000 HD
ENDBRANCH  19  22
ENDBRANCH  17  18
ENDBRANCH   4  17
TORSDOF 6
ENDMDL
MODEL 6
REMARK VINA RESULT:    -6.931      3.606      8.175
REMARK INTER + INTRA:         -10.128
REMARK INTER:                  -9.321
REMARK INTRA:                  -0.807
REMARK UNBOUND:                -0.766
REMARK  Name = 
REMARK  6 active torsions:
REMARK  status: ('A' for Active; 'I' for Inactive)
REMARK    1  A    between atoms: C_2  and  C_25
REMARK    2  A    between atoms: N_3  and  C_4
REMARK    3  A    between atoms: C_4  and  C_5
REMARK    4  A    between atoms: C_8  and  C_9
REMARK    5  A    between atoms: C_9  and  N_10
REMARK    6  A    between atoms: C_11  and  C_13
REMARK                            x       y       z     vdW  Elec       q    Type
REMARK                         _______ _______ _______ _____ _____    ______ ____
ROOT
ATOM      1  C   UNL     1      49.947   6.642  16.166  0.00  0.00    +0.000 A 
ATOM      2  C   UNL     1      48.668   6.260  15.739  0.00  0.00    +0.000 A 
ATOM      3  C   UNL     1      48.191   6.648  14.480  0.00  0.00    +0.000 A 
ATOM      4  C   UNL     1      48.991   7.407  13.617  0.00  0.00    +0.000 A 
ATOM      5  C   UNL     1      50.267   7.792  14.047  0.00  0.00    +0.000 A 
ATOM      6  C   UNL     1      50.745   7.405  15.303  0.00  0.00    +0.000 A 
ENDROOT
BRANCH   1   7
ATOM      7  C   UNL     1      50.445   6.270  17.538  0.00  0.00    +0.000 C 
BRANCH   7  10
ATOM      8  O   UNL     1      49.379   3.746  17.817  0.00  0.00    +0.000 OA
ATOM      9  C   UNL     1      50.600   3.828  17.682  0.00  0.00    +0.000 C 
ATOM     10  N   UNL     1      51.225   5.060  17.551  0.00  0.00    +0.000 N 
ATOM     11  H   UNL     1      52.231   5.080  17.424  0.00  0.00    +0.000 HD
BRANCH   9  12
ATOM     12  C   UNL     1      51.496   2.679  17.640  0.00  0.00    +0.000 A 
ATOM     13  N   UNL     1      51.173   1.442  17.293  0.00  0.00    +0.000 NA
ATOM     14  C   UNL     1      52.354   0.751  17.428  0.00  0.00    +0.000 A 
ATOM     15  C   UNL     1      53.349   1.592  17.857  0.00  0.00    +0.000 A 
ATOM     16  O   UNL     1      52.814   2.837  17.995  0.00  0.00    +0.000 OA
ENDBRANCH   9  12
ENDBRANCH   7  10
ENDBRANCH   1   7
BRANCH   4  17
ATOM     17  C   UNL     1      48.482   7.839  12.265  0.00  0.00    +0.000 C 
BRANCH  17  18
ATOM     18  N   UNL     1      47.730   6.789  11.624  0.00  0.00    +0.000 N 
ATOM     19  C   UNL     1      46.366   6.858  11.511  0.00  0.00    +0.000 C 
ATOM     20  O   UNL     1      45.731   7.837  11.896  0.00  0.00    +0.000 OA
ATOM     21  H   UNL     1      48.196   5.894  11.513  0.00  0.00    +0.000 HD
BRANCH  19  22
ATOM     22  C   UNL     1      45.701   5.727  10.849  0.00  0.00    +0.000 A 
ATOM     23  C   UNL     1      45.805   5.578   9.472  0.00  0.00    +0.000 A 
ATOM     24  S   UNL     1      45.019   4.188   8.873  0.00  0.00    +0.000 S 
ATOM     25  C   UNL     1      44.465   3.765  10.424  0.00  0.00    +0.000 A 
ATOM     26  N   UNL     1      43.691   2.662  10.614  0.00  0.00    +0.000 NA
ATOM     27  C   UNL     1      43.314   2.478  11.835  0.00  0.00    +0.000 A 
ATOM     28  N   UNL     1      43.647   3.294  12.884  0.00  0.00    +0.000 N 
ATOM     29  C   UNL     1      44.448   4.402  12.746  0.00  0.00    +0.000 A 
ATOM     30  O   UNL     1      44.755   5.089  13.715  0.00  0.00    +0.000 OA
ATOM     31  C   UNL     1      44.889   4.661  11.390  0.00  0.00    +0.000 A 
ATOM     32  H   UNL     1      43.324   3.092  13.820  0.00  0.00    +0.000 HD
ENDBRANCH  19  22
ENDBRANCH  17  18
ENDBRANCH   4  17
TORSDOF 6
ENDMDL
MODEL 7
REMARK VINA RESULT:    -6.909      3.109      8.564
REMARK INTER + INTRA:         -10.098
REMARK INTER:                  -9.126
REMARK INTRA:                  -0.972
REMARK UNBOUND:                -0.766
REMARK  Name = 
REMARK  6 active torsions:
REMARK  status: ('A' for Active; 'I' for Inactive)
REMARK    1  A    between atoms: C_2  and  C_25
REMARK    2  A    between atoms: N_3  and  C_4
REMARK    3  A    between atoms: C_4  and  C_5
REMARK    4  A    between atoms: C_8  and  C_9
REMARK    5  A    between atoms: C_9  and  N_10
REMARK    6  A    between atoms: C_11  and  C_13
REMARK                            x       y       z     vdW  Elec       q    Type
REMARK                         _______ _______ _______ _____ _____    ______ ____
ROOT
ATOM      1  C   UNL     1      50.279   7.324  15.406  0.00  0.00    +0.000 A 
ATOM      2  C   UNL     1      50.741   7.899  14.213  0.00  0.00    +0.000 A 
ATOM      3  C   UNL     1      49.888   8.039  13.112  0.00  0.00    +0.000 A 
ATOM      4  C   UNL     1      48.551   7.627  13.187  0.00  0.00    +0.000 A 
ATOM      5  C   UNL     1      48.092   7.048  14.377  0.00  0.00    +0.000 A 
ATOM      6  C   UNL     1      48.943   6.908  15.478  0.00  0.00    +0.000 A 
ENDROOT
BRANCH   1   7
ATOM      7  C   UNL     1      51.206   7.125  16.575  0.00  0.00    +0.000 C 
BRANCH   7  10
ATOM      8  O   UNL     1      50.161   5.378  18.429  0.00  0.00    +0.000 OA
ATOM      9  C   UNL     1      51.042   4.946  17.686  0.00  0.00    +0.000 C 
ATOM     10  N   UNL     1      51.638   5.760  16.733  0.00  0.00    +0.000 N 
ATOM     11  H   UNL     1      52.348   5.359  16.130  0.00  0.00    +0.000 HD
BRANCH   9  12
ATOM     12  C   UNL     1      51.540   3.577  17.719  0.00  0.00    +0.000 A 
ATOM     13  N   UNL     1      52.659   3.159  18.292  0.00  0.00    +0.000 NA
ATOM     14  C   UNL     1      52.668   1.809  18.034  0.00  0.00    +0.000 A 
ATOM     15  C   UNL     1      51.557   1.457  17.310  0.00  0.00    +0.000 A 
ATOM     16  O   UNL     1      50.820   2.582  17.101  0.00  0.00    +0.000 OA
ENDBRANCH   9  12
ENDBRANCH   7  10
ENDBRANCH   1   7
BRANCH   4  17
ATOM     17  C   UNL     1      47.628   7.763  12.002  0.00  0.00    +0.000 C 
BRANCH  17  18
ATOM     18  N   UNL     1      46.927   6.531  11.737  0.00  0.00    +0.000 N 
ATOM     19  C   UNL     1      45.558   6.467  11.784  0.00  0.00    +0.000 C 
ATOM     20  O   UNL     1      44.869   7.461  11.996  0.00  0.00    +0.000 OA
ATOM     21  H   UNL     1      47.469   5.674  11.789  0.00  0.00    +0.000 HD
BRANCH  19  22
ATOM     22  C   UNL     1      44.950   5.159  11.507  0.00  0.00    +0.000 A 
ATOM     23  C   UNL     1      44.236   4.507  12.504  0.00  0.00    +0.000 A 
ATOM     24  S   UNL     1      43.553   3.027  12.003  0.00  0.00    +0.000 S 
ATOM     25  C   UNL     1      44.234   3.176  10.451  0.00  0.00    +0.000 A 
ATOM     26  N   UNL     1      44.051   2.209   9.511  0.00  0.00    +0.000 NA
ATOM     27  C   UNL     1      44.650   2.435   8.389  0.00  0.00    +0.000 A 
ATOM     28  N   UNL     1      45.408   3.544   8.121  0.00  0.00    +0.000 N 
ATOM     29  C   UNL     1      45.598   4.559   9.028  0.00  0.00    +0.000 A 
ATOM     30  O   UNL     1      46.254   5.555   8.739  0.00  0.00    +0.000 OA
ATOM     31  C   UNL     1      44.956   4.349  10.310  0.00  0.00    +0.000 A 
ATOM     32  H   UNL     1      45.847   3.665   7.219  0.00  0.00    +0.000 HD
ENDBRANCH  19  22
ENDBRANCH  17  18
ENDBRANCH   4  17
TORSDOF 6
ENDMDL
MODEL 8
REMARK VINA RESULT:    -6.897      3.794      8.360
REMARK INTER + INTRA:         -10.083
REMARK INTER:                  -9.017
REMARK INTRA:                  -1.066
REMARK UNBOUND:                -0.766
REMARK  Name = 
REMARK  6 active torsions:
REMARK  status: ('A' for Active; 'I' for Inactive)
REMARK    1  A    between atoms: C_2  and  C_25
REMARK    2  A    between atoms: N_3  and  C_4
REMARK    3  A    between atoms: C_4  and  C_5
REMARK    4  A    between atoms: C_8  and  C_9
REMARK    5  A    between atoms: C_9  and  N_10
REMARK    6  A    between atoms: C_11  and  C_13
REMARK                            x       y       z     vdW  Elec       q    Type
REMARK                         _______ _______ _______ _____ _____    ______ ____
ROOT
ATOM      1  C   UNL     1      49.779   4.673  17.597  0.00  0.00    +0.000 A 
ATOM      2  C   UNL     1      50.550   5.750  17.138  0.00  0.00    +0.000 A 
ATOM      3  C   UNL     1      50.078   6.580  16.114  0.00  0.00    +0.000 A 
ATOM      4  C   UNL     1      48.818   6.364  15.543  0.00  0.00    +0.000 A 
ATOM      5  C   UNL     1      48.050   5.284  15.999  0.00  0.00    +0.000 A 
ATOM      6  C   UNL     1      48.520   4.455  17.022  0.00  0.00    +0.000 A 
ENDROOT
BRANCH   1   7
ATOM      7  C   UNL     1      50.304   3.748  18.662  0.00  0.00    +0.000 C 
BRANCH   7  10
ATOM      8  O   UNL     1      50.788   1.360  17.381  0.00  0.00    +0.000 OA
ATOM      9  C   UNL     1      51.768   2.028  17.710  0.00  0.00    +0.000 C 
ATOM     10  N   UNL     1      51.619   3.237  18.374  0.00  0.00    +0.000 N 
ATOM     11  H   UNL     1      52.453   3.764  18.611  0.00  0.00    +0.000 HD
BRANCH   9  12
ATOM     12  C   UNL     1      53.147   1.641  17.443  0.00  0.00    +0.000 A 
ATOM     13  N   UNL     1      54.222   2.401  17.598  0.00  0.00    +0.000 NA
ATOM     14  C   UNL     1      55.255   1.581  17.207  0.00  0.00    +0.000 A 
ATOM     15  C   UNL     1      54.769   0.356  16.825  0.00  0.00    +0.000 A 
ATOM     16  O   UNL     1      53.415   0.378  16.973  0.00  0.00    +0.000 OA
ENDBRANCH   9  12
ENDBRANCH   7  10
ENDBRANCH   1   7
BRANCH   4  17
ATOM     17  C   UNL     1      48.306   7.244  14.432  0.00  0.00    +0.000 C 
BRANCH  17  18
ATOM     18  N   UNL     1      47.066   6.744  13.891  0.00  0.00    +0.000 N 
ATOM     19  C   UNL     1      46.826   6.747  12.541  0.00  0.00    +0.000 C 
ATOM     20  O   UNL     1      47.672   7.120  11.732  0.00  0.00    +0.000 OA
ATOM     21  H   UNL     1      46.288   6.654  14.536  0.00  0.00    +0.000 HD
BRANCH  19  22
ATOM     22  C   UNL     1      45.525   6.225  12.102  0.00  0.00    +0.000 A 
ATOM     23  C   UNL     1      44.580   7.091  11.568  0.00  0.00    +0.000 A 
ATOM     24  S   UNL     1      43.148   6.316  11.062  0.00  0.00    +0.000 S 
ATOM     25  C   UNL     1      43.717   4.802  11.589  0.00  0.00    +0.000 A 
ATOM     26  N   UNL     1      42.947   3.686  11.469  0.00  0.00    +0.000 NA
ATOM     27  C   UNL     1      43.489   2.612  11.939  0.00  0.00    +0.000 A 
ATOM     28  N   UNL     1      44.733   2.552  12.511  0.00  0.00    +0.000 N 
ATOM     29  C   UNL     1      45.556   3.646  12.628  0.00  0.00    +0.000 A 
ATOM     30  O   UNL     1      46.679   3.548  13.112  0.00  0.00    +0.000 OA
ATOM     31  C   UNL     1      44.990   4.882  12.126  0.00  0.00    +0.000 A 
ATOM     32  H   UNL     1      45.103   1.678  12.855  0.00  0.00    +0.000 HD
ENDBRANCH  19  22
ENDBRANCH  17  18
ENDBRANCH   4  17
TORSDOF 6
ENDMDL
MODEL 9
REMARK VINA RESULT:    -6.783      3.485      4.675
REMARK INTER + INTRA:          -9.928
REMARK INTER:                  -9.024
REMARK INTRA:                  -0.904
REMARK UNBOUND:                -0.766
REMARK  Name = 
REMARK  6 active torsions:
REMARK  status: ('A' for Active; 'I' for Inactive)
REMARK    1  A    between atoms: C_2  and  C_25
REMARK    2  A    between atoms: N_3  and  C_4
REMARK    3  A    between atoms: C_4  and  C_5
REMARK    4  A    between atoms: C_8  and  C_9
REMARK    5  A    between atoms: C_9  and  N_10
REMARK    6  A    between atoms: C_11  and  C_13
REMARK                            x       y       z     vdW  Elec       q    Type
REMARK                         _______ _______ _______ _____ _____    ______ ____
ROOT
ATOM      1  C   UNL     1      47.177   6.140  13.769  0.00  0.00    +0.000 A 
ATOM      2  C   UNL     1      48.169   6.765  14.537  0.00  0.00    +0.000 A 
ATOM      3  C   UNL     1      48.618   6.187  15.730  0.00  0.00    +0.000 A 
ATOM      4  C   UNL     1      48.100   4.962  16.169  0.00  0.00    +0.000 A 
ATOM      5  C   UNL     1      47.105   4.340  15.404  0.00  0.00    +0.000 A 
ATOM      6  C   UNL     1      46.656   4.916  14.211  0.00  0.00    +0.000 A 
ENDROOT
BRANCH   1   7
ATOM      7  C   UNL     1      46.656   6.783  12.511  0.00  0.00    +0.000 C 
BRANCH   7  10
ATOM      8  O   UNL     1      44.195   6.152  11.449  0.00  0.00    +0.000 OA
ATOM      9  C   UNL     1      45.178   5.601  10.953  0.00  0.00    +0.000 C 
ATOM     10  N   UNL     1      46.456   5.847  11.436  0.00  0.00    +0.000 N 
ATOM     11  H   UNL     1      47.239   5.385  10.986  0.00  0.00    +0.000 HD
BRANCH   9  12
ATOM     12  C   UNL     1      45.114   4.665   9.838  0.00  0.00    +0.000 A 
ATOM     13  N   UNL     1      45.683   4.815   8.651  0.00  0.00    +0.000 NA
ATOM     14  C   UNL     1      45.317   3.676   7.972  0.00  0.00    +0.000 A 
ATOM     15  C   UNL     1      44.534   2.881   8.770  0.00  0.00    +0.000 A 
ATOM     16  O   UNL     1      44.396   3.501   9.974  0.00  0.00    +0.000 OA
ENDBRANCH   9  12
ENDBRANCH   7  10
ENDBRANCH   1   7
BRANCH   4  17
ATOM     17  C   UNL     1      48.568   4.337  17.459  0.00  0.00    +0.000 C 
BRANCH  17  18
ATOM     18  N   UNL     1      49.950   3.933  17.378  0.00  0.00    +0.000 N 
ATOM     19  C   UNL     1      50.825   4.179  18.404  0.00  0.00    +0.000 C 
ATOM     20  O   UNL     1      50.462   4.700  19.456  0.00  0.00    +0.000 OA
ATOM     21  H   UNL     1      50.312   3.720  16.454  0.00  0.00    +0.000 HD
BRANCH  19  22
ATOM     22  C   UNL     1      52.212   3.734  18.210  0.00  0.00    +0.000 A 
ATOM     23  C   UNL     1      53.255   4.634  18.387  0.00  0.00    +0.000 A 
ATOM     24  S   UNL     1      54.799   3.944  18.173  0.00  0.00    +0.000 S 
ATOM     25  C   UNL     1      54.128   2.430  17.782  0.00  0.00    +0.000 A 
ATOM     26  N   UNL     1      54.924   1.375  17.461  0.00  0.00    +0.000 NA
ATOM     27  C   UNL     1      54.283   0.296  17.154  0.00  0.00    +0.000 A 
ATOM     28  N   UNL     1      52.918   0.177  17.147  0.00  0.00    +0.000 N 
ATOM     29  C   UNL     1      52.075   1.206  17.491  0.00  0.00    +0.000 A 
ATOM     30  O   UNL     1      50.858   1.052  17.509  0.00  0.00    +0.000 OA
ATOM     31  C   UNL     1      52.745   2.445  17.833  0.00  0.00    +0.000 A 
ATOM     32  H   UNL     1      52.476  -0.697  16.903  0.00  0.00    +0.000 HD
ENDBRANCH  19  22
ENDBRANCH  17  18
ENDBRANCH   4  17
TORSDOF 6
ENDMDL
