MODEL 1
REMARK VINA RESULT:    -8.879      0.000      0.000
REMARK INTER + INTRA:         -12.181
REMARK INTER:                 -11.994
REMARK INTRA:                  -0.188
REMARK UNBOUND:                -0.188
REMARK  Name = 
REMARK  7 active torsions:
REMARK  status: ('A' for Active; 'I' for Inactive)
REMARK    1  A    between atoms: C_1  and  C_2
REMARK    2  A    between atoms: C_2  and  N_3
REMARK    3  A    between atoms: C_2  and  C_16
REMARK    4  A    between atoms: C_4  and  C_6
REMARK    5  A    between atoms: C_19  and  O_20
REMARK    6  A    between atoms: O_20  and  C_21
REMARK    7  A    between atoms: C_21  and  C_22
REMARK                            x       y       z     vdW  Elec       q    Type
REMARK                         _______ _______ _______ _____ _____    ______ ____
ROOT
ATOM      1  C   UNL     1      47.601   8.732  12.146  0.00  0.00    +0.000 C 
ATOM      2  C   UNL     1      46.539   7.918  12.891  0.00  0.00    +0.000 C 
ENDROOT
BRANCH   2   3
ATOM      3  C   UNL     1      45.904   6.812  12.066  0.00  0.00    +0.000 A 
ATOM      4  C   UNL     1      44.878   6.039  12.638  0.00  0.00    +0.000 A 
ATOM      5  C   UNL     1      44.237   5.029  11.911  0.00  0.00    +0.000 A 
ATOM      6  C   UNL     1      44.614   4.767  10.595  0.00  0.00    +0.000 A 
ATOM      7  C   UNL     1      45.667   5.491  10.036  0.00  0.00    +0.000 A 
ATOM      8  C   UNL     1      46.307   6.503  10.760  0.00  0.00    +0.000 A 
BRANCH   6   9
ATOM      9  O   UNL     1      44.066   3.808   9.788  0.00  0.00    +0.000 OA
BRANCH   9  10
ATOM     10  C   UNL     1      44.721   2.534   9.804  0.00  0.00    +0.000 C 
BRANCH  10  11
ATOM     11  C   UNL     1      45.570   2.376   8.559  0.00  0.00    +0.000 A 
ATOM     12  C   UNL     1      45.604   3.376   7.589  0.00  0.00    +0.000 A 
ATOM     13  C   UNL     1      46.381   3.185   6.448  0.00  0.00    +0.000 A 
ATOM     14  C   UNL     1      47.099   2.003   6.305  0.00  0.00    +0.000 A 
ATOM     15  C   UNL     1      47.010   1.058   7.310  0.00  0.00    +0.000 A 
ATOM     16  N   UNL     1      46.259   1.212   8.422  0.00  0.00    +0.000 NA
ENDBRANCH  10  11
ENDBRANCH   9  10
ENDBRANCH   6   9
ENDBRANCH   2   3
BRANCH   2  17
ATOM     17  N   UNL     1      47.081   7.378  14.123  0.00  0.00    +0.000 N 
ATOM     18  C   UNL     1      48.282   6.712  14.145  0.00  0.00    +0.000 C 
ATOM     19  O   UNL     1      48.983   6.602  13.142  0.00  0.00    +0.000 OA
ATOM     20  H   UNL     1      46.451   7.303  14.917  0.00  0.00    +0.000 HD
BRANCH  18  21
ATOM     21  C   UNL     1      48.730   6.181  15.437  0.00  0.00    +0.000 A 
ATOM     22  C   UNL     1      49.814   6.769  16.075  0.00  0.00    +0.000 A 
ATOM     23  S   UNL     1      50.215   6.039  17.560  0.00  0.00    +0.000 S 
ATOM     24  C   UNL     1      48.982   4.880  17.384  0.00  0.00    +0.000 A 
ATOM     25  N   UNL     1      48.806   3.903  18.312  0.00  0.00    +0.000 NA
ATOM     26  C   UNL     1      47.862   3.068  18.034  0.00  0.00    +0.000 A 
ATOM     27  N   UNL     1      47.069   3.128  16.917  0.00  0.00    +0.000 N 
ATOM     28  C   UNL     1      47.178   4.127  15.975  0.00  0.00    +0.000 A 
ATOM     29  O   UNL     1      46.405   4.200  15.027  0.00  0.00    +0.000 OA
ATOM     30  C   UNL     1      48.251   5.070  16.222  0.00  0.00    +0.000 A 
ATOM     31  H   UNL     1      46.332   2.455  16.771  0.00  0.00    +0.000 HD
ENDBRANCH  18  21
ENDBRANCH   2  17
TORSDOF 6
ENDMDL
MODEL 2
REMARK VINA RESULT:    -8.283      2.775      3.776
REMARK INTER + INTRA:         -11.376
REMARK INTER:                 -10.416
REMARK INTRA:                  -0.960
REMARK UNBOUND:                -0.188
REMARK  Name = 
REMARK  7 active torsions:
REMARK  status: ('A' for Active; 'I' for Inactive)
REMARK    1  A    between atoms: C_1  and  C_2
REMARK    2  A    between atoms: C_2  and  N_3
REMARK    3  A    between atoms: C_2  and  C_16
REMARK    4  A    between atoms: C_4  and  C_6
REMARK    5  A    between atoms: C_19  and  O_20
REMARK    6  A    between atoms: O_20  and  C_21
REMARK    7  A    between atoms: C_21  and  C_22
REMARK                            x       y       z     vdW  Elec       q    Type
REMARK                         _______ _______ _______ _____ _____    ______ ____
ROOT
ATOM      1  C   UNL     1      47.129   4.243  15.845  0.00  0.00    +0.000 C 
ATOM      2  C   UNL     1      47.545   4.982  14.570  0.00  0.00    +0.000 C 
ENDROOT
BRANCH   2   3
ATOM      3  C   UNL     1      46.646   4.723  13.373  0.00  0.00    +0.000 A 
ATOM      4  C   UNL     1      46.457   5.747  12.429  0.00  0.00    +0.000 A 
ATOM      5  C   UNL     1      45.666   5.550  11.290  0.00  0.00    +0.000 A 
ATOM      6  C   UNL     1      45.040   4.323  11.077  0.00  0.00    +0.000 A 
ATOM      7  C   UNL     1      45.177   3.318  12.035  0.00  0.00    +0.000 A 
ATOM      8  C   UNL     1      45.970   3.512  13.172  0.00  0.00    +0.000 A 
BRANCH   6   9
ATOM      9  O   UNL     1      44.243   4.012  10.009  0.00  0.00    +0.000 OA
BRANCH   9  10
ATOM     10  C   UNL     1      44.318   2.657   9.552  0.00  0.00    +0.000 C 
BRANCH  10  11
ATOM     11  C   UNL     1      45.404   2.526   8.503  0.00  0.00    +0.000 A 
ATOM     12  C   UNL     1      45.711   3.593   7.660  0.00  0.00    +0.000 A 
ATOM     13  C   UNL     1      46.701   3.427   6.694  0.00  0.00    +0.000 A 
ATOM     14  C   UNL     1      47.355   2.204   6.594  0.00  0.00    +0.000 A 
ATOM     15  C   UNL     1      46.990   1.194   7.465  0.00  0.00    +0.000 A 
ATOM     16  N   UNL     1      46.029   1.323   8.405  0.00  0.00    +0.000 NA
ENDBRANCH  10  11
ENDBRANCH   9  10
ENDBRANCH   6   9
ENDBRANCH   2   3
BRANCH   2  17
ATOM     17  N   UNL     1      47.652   6.408  14.818  0.00  0.00    +0.000 N 
ATOM     18  C   UNL     1      48.809   6.965  15.305  0.00  0.00    +0.000 C 
ATOM     19  O   UNL     1      49.825   6.298  15.488  0.00  0.00    +0.000 OA
ATOM     20  H   UNL     1      46.789   6.943  14.841  0.00  0.00    +0.000 HD
BRANCH  18  21
ATOM     21  C   UNL     1      48.806   8.411  15.546  0.00  0.00    +0.000 A 
ATOM     22  C   UNL     1      49.174   9.272  14.521  0.00  0.00    +0.000 A 
ATOM     23  S   UNL     1      49.125  10.918  14.956  0.00  0.00    +0.000 S 
ATOM     24  C   UNL     1      48.653  10.538  16.546  0.00  0.00    +0.000 A 
ATOM     25  N   UNL     1      48.478  11.516  17.473  0.00  0.00    +0.000 NA
ATOM     26  C   UNL     1      48.160  11.086  18.647  0.00  0.00    +0.000 A 
ATOM     27  N   UNL     1      47.989   9.765  18.976  0.00  0.00    +0.000 N 
ATOM     28  C   UNL     1      48.107   8.745  18.060  0.00  0.00    +0.000 A 
ATOM     29  O   UNL     1      47.872   7.581  18.364  0.00  0.00    +0.000 OA
ATOM     30  C   UNL     1      48.501   9.174  16.733  0.00  0.00    +0.000 A 
ATOM     31  H   UNL     1      47.717   9.499  19.911  0.00  0.00    +0.000 HD
ENDBRANCH  18  21
ENDBRANCH   2  17
TORSDOF 6
ENDMDL
MODEL 3
REMARK VINA RESULT:    -8.281      2.060      2.398
REMARK INTER + INTRA:         -11.373
REMARK INTER:                 -10.941
REMARK INTRA:                  -0.432
REMARK UNBOUND:                -0.188
REMARK  Name = 
REMARK  7 active torsions:
REMARK  status: ('A' for Active; 'I' for Inactive)
REMARK    1  A    between atoms: C_1  and  C_2
REMARK    2  A    between atoms: C_2  and  N_3
REMARK    3  A    between atoms: C_2  and  C_16
REMARK    4  A    between atoms: C_4  and  C_6
REMARK    5  A    between atoms: C_19  and  O_20
REMARK    6  A    between atoms: O_20  and  C_21
REMARK    7  A    between atoms: C_21  and  C_22
REMARK                            x       y       z     vdW  Elec       q    Type
REMARK                         _______ _______ _______ _____ _____    ______ ____
ROOT
ATOM      1  C   UNL     1      49.176   7.054  12.929  0.00  0.00    +0.000 C 
ATOM      2  C   UNL     1      47.790   6.810  13.535  0.00  0.00    +0.000 C 
ENDROOT
BRANCH   2   3
ATOM      3  C   UNL     1      46.822   6.087  12.614  0.00  0.00    +0.000 A 
ATOM      4  C   UNL     1      46.325   4.830  13.000  0.00  0.00    +0.000 A 
ATOM      5  C   UNL     1      45.405   4.136  12.205  0.00  0.00    +0.000 A 
ATOM      6  C   UNL     1      44.967   4.685  11.002  0.00  0.00    +0.000 A 
ATOM      7  C   UNL     1      45.494   5.907  10.583  0.00  0.00    +0.000 A 
ATOM      8  C   UNL     1      46.412   6.603  11.378  0.00  0.00    +0.000 A 
BRANCH   6   9
ATOM      9  O   UNL     1      44.077   4.103  10.141  0.00  0.00    +0.000 OA
BRANCH   9  10
ATOM     10  C   UNL     1      44.292   2.713   9.870  0.00  0.00    +0.000 C 
BRANCH  10  11
ATOM     11  C   UNL     1      45.273   2.558   8.725  0.00  0.00    +0.000 A 
ATOM     12  C   UNL     1      45.456   3.585   7.800  0.00  0.00    +0.000 A 
ATOM     13  C   UNL     1      46.351   3.396   6.749  0.00  0.00    +0.000 A 
ATOM     14  C   UNL     1      47.037   2.191   6.648  0.00  0.00    +0.000 A 
ATOM     15  C   UNL     1      46.796   1.220   7.603  0.00  0.00    +0.000 A 
ATOM     16  N   UNL     1      45.928   1.371   8.627  0.00  0.00    +0.000 NA
ENDBRANCH  10  11
ENDBRANCH   9  10
ENDBRANCH   6   9
ENDBRANCH   2   3
BRANCH   2  17
ATOM     17  N   UNL     1      47.903   6.106  14.799  0.00  0.00    +0.000 N 
ATOM     18  C   UNL     1      48.605   6.636  15.853  0.00  0.00    +0.000 C 
ATOM     19  O   UNL     1      49.111   7.754  15.801  0.00  0.00    +0.000 OA
ATOM     20  H   UNL     1      47.647   5.123  14.808  0.00  0.00    +0.000 HD
BRANCH  18  21
ATOM     21  C   UNL     1      48.680   5.833  17.078  0.00  0.00    +0.000 A 
ATOM     22  C   UNL     1      49.110   4.515  17.003  0.00  0.00    +0.000 A 
ATOM     23  S   UNL     1      49.137   3.715  18.506  0.00  0.00    +0.000 S 
ATOM     24  C   UNL     1      48.531   5.087  19.307  0.00  0.00    +0.000 A 
ATOM     25  N   UNL     1      48.274   5.058  20.641  0.00  0.00    +0.000 NA
ATOM     26  C   UNL     1      47.780   6.153  21.113  0.00  0.00    +0.000 A 
ATOM     27  N   UNL     1      47.532   7.281  20.372  0.00  0.00    +0.000 N 
ATOM     28  C   UNL     1      47.821   7.373  19.029  0.00  0.00    +0.000 A 
ATOM     29  O   UNL     1      47.661   8.419  18.411  0.00  0.00    +0.000 OA
ATOM     30  C   UNL     1      48.344   6.155  18.444  0.00  0.00    +0.000 A 
ATOM     31  H   UNL     1      47.165   8.113  20.809  0.00  0.00    +0.000 HD
ENDBRANCH  18  21
ENDBRANCH   2  17
TORSDOF 6
ENDMDL
MODEL 4
REMARK VINA RESULT:    -8.136      1.452      1.713
REMARK INTER + INTRA:         -11.177
REMARK INTER:                 -10.161
REMARK INTRA:                  -1.016
REMARK UNBOUND:                -0.188
REMARK  Name = 
REMARK  7 active torsions:
REMARK  status: ('A' for Active; 'I' for Inactive)
REMARK    1  A    between atoms: C_1  and  C_2
REMARK    2  A    between atoms: C_2  and  N_3
REMARK    3  A    between atoms: C_2  and  C_16
REMARK    4  A    between atoms: C_4  and  C_6
REMARK    5  A    between atoms: C_19  and  O_20
REMARK    6  A    between atoms: O_20  and  C_21
REMARK    7  A    between atoms: C_21  and  C_22
REMARK                            x       y       z     vdW  Elec       q    Type
REMARK                         _______ _______ _______ _____ _____    ______ ____
ROOT
ATOM      1  C   UNL     1      49.336   7.587  12.369  0.00  0.00    +0.000 C 
ATOM      2  C   UNL     1      48.138   7.251  13.261  0.00  0.00    +0.000 C 
ENDROOT
BRANCH   2   3
ATOM      3  C   UNL     1      47.140   6.292  12.636  0.00  0.00    +0.000 A 
ATOM      4  C   UNL     1      46.542   6.635  11.410  0.00  0.00    +0.000 A 
ATOM      5  C   UNL     1      45.640   5.772  10.774  0.00  0.00    +0.000 A 
ATOM      6  C   UNL     1      45.313   4.549  11.356  0.00  0.00    +0.000 A 
ATOM      7  C   UNL     1      45.859   4.223  12.598  0.00  0.00    +0.000 A 
ATOM      8  C   UNL     1      46.763   5.082  13.234  0.00  0.00    +0.000 A 
BRANCH   6   9
ATOM      9  O   UNL     1      44.447   3.628  10.835  0.00  0.00    +0.000 OA
BRANCH   9  10
ATOM     10  C   UNL     1      44.149   3.774   9.442  0.00  0.00    +0.000 C 
BRANCH  10  11
ATOM     11  C   UNL     1      45.214   3.087   8.611  0.00  0.00    +0.000 A 
ATOM     12  C   UNL     1      45.948   3.800   7.665  0.00  0.00    +0.000 A 
ATOM     13  C   UNL     1      46.904   3.128   6.906  0.00  0.00    +0.000 A 
ATOM     14  C   UNL     1      47.100   1.767   7.109  0.00  0.00    +0.000 A 
ATOM     15  C   UNL     1      46.328   1.131   8.064  0.00  0.00    +0.000 A 
ATOM     16  N   UNL     1      45.389   1.754   8.808  0.00  0.00    +0.000 NA
ENDBRANCH  10  11
ENDBRANCH   9  10
ENDBRANCH   6   9
ENDBRANCH   2   3
BRANCH   2  17
ATOM     17  N   UNL     1      48.584   6.744  14.545  0.00  0.00    +0.000 N 
ATOM     18  C   UNL     1      48.656   7.557  15.650  0.00  0.00    +0.000 C 
ATOM     19  O   UNL     1      48.284   8.728  15.621  0.00  0.00    +0.000 OA
ATOM     20  H   UNL     1      49.055   5.844  14.553  0.00  0.00    +0.000 HD
BRANCH  18  21
ATOM     21  C   UNL     1      49.145   6.954  16.894  0.00  0.00    +0.000 A 
ATOM     22  C   UNL     1      50.158   7.584  17.604  0.00  0.00    +0.000 A 
ATOM     23  S   UNL     1      50.618   6.760  19.021  0.00  0.00    +0.000 S 
ATOM     24  C   UNL     1      49.511   5.505  18.714  0.00  0.00    +0.000 A 
ATOM     25  N   UNL     1      49.427   4.432  19.544  0.00  0.00    +0.000 NA
ATOM     26  C   UNL     1      48.575   3.537  19.172  0.00  0.00    +0.000 A 
ATOM     27  N   UNL     1      47.789   3.623  18.051  0.00  0.00    +0.000 N 
ATOM     28  C   UNL     1      47.805   4.713  17.209  0.00  0.00    +0.000 A 
ATOM     29  O   UNL     1      47.036   4.797  16.258  0.00  0.00    +0.000 OA
ATOM     30  C   UNL     1      48.774   5.730  17.563  0.00  0.00    +0.000 A 
ATOM     31  H   UNL     1      47.126   2.896  17.830  0.00  0.00    +0.000 HD
ENDBRANCH  18  21
ENDBRANCH   2  17
TORSDOF 6
ENDMDL
MODEL 5
REMARK VINA RESULT:    -7.936      2.260      2.739
REMARK INTER + INTRA:         -10.907
REMARK INTER:                  -9.832
REMARK INTRA:                  -1.075
REMARK UNBOUND:                -0.188
REMARK  Name = 
REMARK  7 active torsions:
REMARK  status: ('A' for Active; 'I' for Inactive)
REMARK    1  A    between atoms: C_1  and  C_2
REMARK    2  A    between atoms: C_2  and  N_3
REMARK    3  A    between atoms: C_2  and  C_16
REMARK    4  A    between atoms: C_4  and  C_6
REMARK    5  A    between atoms: C_19  and  O_20
REMARK    6  A    between atoms: O_20  and  C_21
REMARK    7  A    between atoms: C_21  and  C_22
REMARK                            x       y       z     vdW  Elec       q    Type
REMARK                         _______ _______ _______ _____ _____    ______ ____
ROOT
ATOM      1  C   UNL     1      49.285   7.953  13.033  0.00  0.00    +0.000 C 
ATOM      2  C   UNL     1      47.945   7.737  13.741  0.00  0.00    +0.000 C 
ENDROOT
BRANCH   2   3
ATOM      3  C   UNL     1      47.029   6.736  13.057  0.00  0.00    +0.000 A 
ATOM      4  C   UNL     1      46.864   5.463  13.629  0.00  0.00    +0.000 A 
ATOM      5  C   UNL     1      46.006   4.514  13.058  0.00  0.00    +0.000 A 
ATOM      6  C   UNL     1      45.299   4.820  11.897  0.00  0.00    +0.000 A 
ATOM      7  C   UNL     1      45.496   6.062  11.292  0.00  0.00    +0.000 A 
ATOM      8  C   UNL     1      46.350   7.012  11.862  0.00  0.00    +0.000 A 
BRANCH   6   9
ATOM      9  O   UNL     1      44.437   3.979  11.247  0.00  0.00    +0.000 OA
BRANCH   9  10
ATOM     10  C   UNL     1      44.146   4.319   9.887  0.00  0.00    +0.000 C 
BRANCH  10  11
ATOM     11  C   UNL     1      45.076   3.568   8.957  0.00  0.00    +0.000 A 
ATOM     12  C   UNL     1      45.255   2.192   9.088  0.00  0.00    +0.000 A 
ATOM     13  C   UNL     1      46.135   1.539   8.227  0.00  0.00    +0.000 A 
ATOM     14  C   UNL     1      46.813   2.275   7.262  0.00  0.00    +0.000 A 
ATOM     15  C   UNL     1      46.584   3.638   7.199  0.00  0.00    +0.000 A 
ATOM     16  N   UNL     1      45.744   4.298   8.025  0.00  0.00    +0.000 NA
ENDBRANCH  10  11
ENDBRANCH   9  10
ENDBRANCH   6   9
ENDBRANCH   2   3
BRANCH   2  17
ATOM     17  N   UNL     1      48.153   7.362  15.127  0.00  0.00    +0.000 N 
ATOM     18  C   UNL     1      48.374   8.307  16.099  0.00  0.00    +0.000 C 
ATOM     19  O   UNL     1      48.337   9.510  15.856  0.00  0.00    +0.000 OA
ATOM     20  H   UNL     1      48.359   6.386  15.319  0.00  0.00    +0.000 HD
BRANCH  18  21
ATOM     21  C   UNL     1      48.599   7.822  17.464  0.00  0.00    +0.000 A 
ATOM     22  C   UNL     1      47.891   8.391  18.514  0.00  0.00    +0.000 A 
ATOM     23  S   UNL     1      48.267   7.726  20.036  0.00  0.00    +0.000 S 
ATOM     24  C   UNL     1      49.424   6.682  19.353  0.00  0.00    +0.000 A 
ATOM     25  N   UNL     1      50.161   5.852  20.137  0.00  0.00    +0.000 NA
ATOM     26  C   UNL     1      51.029   5.145  19.495  0.00  0.00    +0.000 A 
ATOM     27  N   UNL     1      51.218   5.184  18.137  0.00  0.00    +0.000 N 
ATOM     28  C   UNL     1      50.463   5.973  17.299  0.00  0.00    +0.000 A 
ATOM     29  O   UNL     1      50.601   5.929  16.082  0.00  0.00    +0.000 OA
ATOM     30  C   UNL     1      49.498   6.815  17.977  0.00  0.00    +0.000 A 
ATOM     31  H   UNL     1      51.900   4.586  17.695  0.00  0.00    +0.000 HD
ENDBRANCH  18  21
ENDBRANCH   2  17
TORSDOF 6
ENDMDL
MODEL 6
REMARK VINA RESULT:    -7.799      2.838      3.543
REMARK INTER + INTRA:         -10.722
REMARK INTER:                  -9.456
REMARK INTRA:                  -1.266
REMARK UNBOUND:                -0.188
REMARK  Name = 
REMARK  7 active torsions:
REMARK  status: ('A' for Active; 'I' for Inactive)
REMARK    1  A    between atoms: C_1  and  C_2
REMARK    2  A    between atoms: C_2  and  N_3
REMARK    3  A    between atoms: C_2  and  C_16
REMARK    4  A    between atoms: C_4  and  C_6
REMARK    5  A    between atoms: C_19  and  O_20
REMARK    6  A    between atoms: O_20  and  C_21
REMARK    7  A    between atoms: C_21  and  C_22
REMARK                            x       y       z     vdW  Elec       q    Type
REMARK                         _______ _______ _______ _____ _____    ______ ____
ROOT
ATOM      1  C   UNL     1      47.565   3.763  16.033  0.00  0.00    +0.000 C 
ATOM      2  C   UNL     1      47.909   4.959  15.140  0.00  0.00    +0.000 C 
ENDROOT
BRANCH   2   3
ATOM      3  C   UNL     1      47.004   5.120  13.931  0.00  0.00    +0.000 A 
ATOM      4  C   UNL     1      45.824   4.359  13.858  0.00  0.00    +0.000 A 
ATOM      5  C   UNL     1      44.937   4.494  12.782  0.00  0.00    +0.000 A 
ATOM      6  C   UNL     1      45.218   5.389  11.752  0.00  0.00    +0.000 A 
ATOM      7  C   UNL     1      46.413   6.109  11.787  0.00  0.00    +0.000 A 
ATOM      8  C   UNL     1      47.298   5.979  12.863  0.00  0.00    +0.000 A 
BRANCH   6   9
ATOM      9  O   UNL     1      44.435   5.605  10.651  0.00  0.00    +0.000 OA
BRANCH   9  10
ATOM     10  C   UNL     1      43.803   4.443  10.101  0.00  0.00    +0.000 C 
BRANCH  10  11
ATOM     11  C   UNL     1      44.784   3.689   9.227  0.00  0.00    +0.000 A 
ATOM     12  C   UNL     1      45.586   4.366   8.309  0.00  0.00    +0.000 A 
ATOM     13  C   UNL     1      46.462   3.635   7.508  0.00  0.00    +0.000 A 
ATOM     14  C   UNL     1      46.512   2.252   7.642  0.00  0.00    +0.000 A 
ATOM     15  C   UNL     1      45.681   1.655   8.572  0.00  0.00    +0.000 A 
ATOM     16  N   UNL     1      44.817   2.336   9.356  0.00  0.00    +0.000 NA
ENDBRANCH  10  11
ENDBRANCH   9  10
ENDBRANCH   6   9
ENDBRANCH   2   3
BRANCH   2  17
ATOM     17  N   UNL     1      47.935   6.185  15.915  0.00  0.00    +0.000 N 
ATOM     18  C   UNL     1      49.119   6.763  16.302  0.00  0.00    +0.000 C 
ATOM     19  O   UNL     1      50.207   6.311  15.954  0.00  0.00    +0.000 OA
ATOM     20  H   UNL     1      47.067   6.476  16.356  0.00  0.00    +0.000 HD
BRANCH  18  21
ATOM     21  C   UNL     1      49.035   7.987  17.105  0.00  0.00    +0.000 A 
ATOM     22  C   UNL     1      49.603   9.158  16.621  0.00  0.00    +0.000 A 
ATOM     23  S   UNL     1      49.428  10.489  17.669  0.00  0.00    +0.000 S 
ATOM     24  C   UNL     1      48.626   9.538  18.829  0.00  0.00    +0.000 A 
ATOM     25  N   UNL     1      48.233  10.071  20.016  0.00  0.00    +0.000 NA
ATOM     26  C   UNL     1      47.673   9.230  20.818  0.00  0.00    +0.000 A 
ATOM     27  N   UNL     1      47.458   7.905  20.536  0.00  0.00    +0.000 N 
ATOM     28  C   UNL     1      47.795   7.333  19.330  0.00  0.00    +0.000 A 
ATOM     29  O   UNL     1      47.521   6.166  19.077  0.00  0.00    +0.000 OA
ATOM     30  C   UNL     1      48.463   8.229  18.407  0.00  0.00    +0.000 A 
ATOM     31  H   UNL     1      46.993   7.306  21.202  0.00  0.00    +0.000 HD
ENDBRANCH  18  21
ENDBRANCH   2  17
TORSDOF 6
ENDMDL
MODEL 7
REMARK VINA RESULT:    -7.570      3.990      8.259
REMARK INTER + INTRA:         -10.413
REMARK INTER:                  -9.332
REMARK INTRA:                  -1.081
REMARK UNBOUND:                -0.188
REMARK  Name = 
REMARK  7 active torsions:
REMARK  status: ('A' for Active; 'I' for Inactive)
REMARK    1  A    between atoms: C_1  and  C_2
REMARK    2  A    between atoms: C_2  and  N_3
REMARK    3  A    between atoms: C_2  and  C_16
REMARK    4  A    between atoms: C_4  and  C_6
REMARK    5  A    between atoms: C_19  and  O_20
REMARK    6  A    between atoms: O_20  and  C_21
REMARK    7  A    between atoms: C_21  and  C_22
REMARK                            x       y       z     vdW  Elec       q    Type
REMARK                         _______ _______ _______ _____ _____    ______ ____
ROOT
ATOM      1  C   UNL     1      48.708   8.726  16.611  0.00  0.00    +0.000 C 
ATOM      2  C   UNL     1      49.038   7.549  15.689  0.00  0.00    +0.000 C 
ENDROOT
BRANCH   2   3
ATOM      3  C   UNL     1      49.613   6.336  16.401  0.00  0.00    +0.000 A 
ATOM      4  C   UNL     1      48.745   5.305  16.799  0.00  0.00    +0.000 A 
ATOM      5  C   UNL     1      49.227   4.150  17.429  0.00  0.00    +0.000 A 
ATOM      6  C   UNL     1      50.590   4.008  17.680  0.00  0.00    +0.000 A 
ATOM      7  C   UNL     1      51.454   5.048  17.337  0.00  0.00    +0.000 A 
ATOM      8  C   UNL     1      50.975   6.201  16.705  0.00  0.00    +0.000 A 
BRANCH   6   9
ATOM      9  O   UNL     1      51.178   2.933  18.288  0.00  0.00    +0.000 OA
BRANCH   9  10
ATOM     10  C   UNL     1      51.436   1.805  17.443  0.00  0.00    +0.000 C 
BRANCH  10  11
ATOM     11  C   UNL     1      52.821   1.257  17.724  0.00  0.00    +0.000 A 
ATOM     12  C   UNL     1      53.957   2.009  17.429  0.00  0.00    +0.000 A 
ATOM     13  C   UNL     1      55.213   1.463  17.682  0.00  0.00    +0.000 A 
ATOM     14  C   UNL     1      55.303   0.184  18.219  0.00  0.00    +0.000 A 
ATOM     15  C   UNL     1      54.129  -0.499  18.480  0.00  0.00    +0.000 A 
ATOM     16  N   UNL     1      52.898   0.001  18.237  0.00  0.00    +0.000 NA
ENDBRANCH  10  11
ENDBRANCH   9  10
ENDBRANCH   6   9
ENDBRANCH   2   3
BRANCH   2  17
ATOM     17  N   UNL     1      47.875   7.168  14.910  0.00  0.00    +0.000 N 
ATOM     18  C   UNL     1      47.995   6.726  13.615  0.00  0.00    +0.000 C 
ATOM     19  O   UNL     1      49.089   6.566  13.081  0.00  0.00    +0.000 OA
ATOM     20  H   UNL     1      46.966   7.452  15.261  0.00  0.00    +0.000 HD
BRANCH  18  21
ATOM     21  C   UNL     1      46.756   6.391  12.906  0.00  0.00    +0.000 A 
ATOM     22  C   UNL     1      46.017   7.404  12.310  0.00  0.00    +0.000 A 
ATOM     23  S   UNL     1      44.605   6.858  11.531  0.00  0.00    +0.000 S 
ATOM     24  C   UNL     1      44.904   5.251  12.000  0.00  0.00    +0.000 A 
ATOM     25  N   UNL     1      44.031   4.259  11.685  0.00  0.00    +0.000 NA
ATOM     26  C   UNL     1      44.360   3.096  12.136  0.00  0.00    +0.000 A 
ATOM     27  N   UNL     1      45.492   2.831  12.864  0.00  0.00    +0.000 N 
ATOM     28  C   UNL     1      46.429   3.794  13.165  0.00  0.00    +0.000 A 
ATOM     29  O   UNL     1      47.469   3.513  13.750  0.00  0.00    +0.000 OA
ATOM     30  C   UNL     1      46.086   5.127  12.712  0.00  0.00    +0.000 A 
ATOM     31  H   UNL     1      45.701   1.892  13.168  0.00  0.00    +0.000 HD
ENDBRANCH  18  21
ENDBRANCH   2  17
TORSDOF 6
ENDMDL
MODEL 8
REMARK VINA RESULT:    -7.424      4.611      8.678
REMARK INTER + INTRA:         -10.215
REMARK INTER:                  -9.181
REMARK INTRA:                  -1.034
REMARK UNBOUND:                -0.188
REMARK  Name = 
REMARK  7 active torsions:
REMARK  status: ('A' for Active; 'I' for Inactive)
REMARK    1  A    between atoms: C_1  and  C_2
REMARK    2  A    between atoms: C_2  and  N_3
REMARK    3  A    between atoms: C_2  and  C_16
REMARK    4  A    between atoms: C_4  and  C_6
REMARK    5  A    between atoms: C_19  and  O_20
REMARK    6  A    between atoms: O_20  and  C_21
REMARK    7  A    between atoms: C_21  and  C_22
REMARK                            x       y       z     vdW  Elec       q    Type
REMARK                         _______ _______ _______ _____ _____    ______ ____
ROOT
ATOM      1  C   UNL     1      47.744   5.964  18.634  0.00  0.00    +0.000 C 
ATOM      2  C   UNL     1      48.646   5.989  17.396  0.00  0.00    +0.000 C 
ENDROOT
BRANCH   2   3
ATOM      3  C   UNL     1      49.755   4.952  17.407  0.00  0.00    +0.000 A 
ATOM      4  C   UNL     1      51.092   5.385  17.461  0.00  0.00    +0.000 A 
ATOM      5  C   UNL     1      52.151   4.470  17.507  0.00  0.00    +0.000 A 
ATOM      6  C   UNL     1      51.894   3.101  17.493  0.00  0.00    +0.000 A 
ATOM      7  C   UNL     1      50.574   2.660  17.385  0.00  0.00    +0.000 A 
ATOM      8  C   UNL     1      49.514   3.573  17.343  0.00  0.00    +0.000 A 
BRANCH   6   9
ATOM      9  O   UNL     1      52.841   2.114  17.531  0.00  0.00    +0.000 OA
BRANCH   9  10
ATOM     10  C   UNL     1      52.372   0.817  17.915  0.00  0.00    +0.000 C 
BRANCH  10  11
ATOM     11  C   UNL     1      53.509  -0.182  17.855  0.00  0.00    +0.000 A 
ATOM     12  C   UNL     1      54.399  -0.183  16.781  0.00  0.00    +0.000 A 
ATOM     13  C   UNL     1      55.420  -1.131  16.750  0.00  0.00    +0.000 A 
ATOM     14  C   UNL     1      55.525  -2.051  17.787  0.00  0.00    +0.000 A 
ATOM     15  C   UNL     1      54.601  -1.987  18.814  0.00  0.00    +0.000 A 
ATOM     16  N   UNL     1      53.596  -1.086  18.866  0.00  0.00    +0.000 NA
ENDBRANCH  10  11
ENDBRANCH   9  10
ENDBRANCH   6   9
ENDBRANCH   2   3
BRANCH   2  17
ATOM     17  N   UNL     1      47.855   5.866  16.186  0.00  0.00    +0.000 N 
ATOM     18  C   UNL     1      48.304   6.357  14.984  0.00  0.00    +0.000 C 
ATOM     19  O   UNL     1      49.419   6.859  14.863  0.00  0.00    +0.000 OA
ATOM     20  H   UNL     1      46.876   5.617  16.292  0.00  0.00    +0.000 HD
BRANCH  18  21
ATOM     21  C   UNL     1      47.418   6.204  13.826  0.00  0.00    +0.000 A 
ATOM     22  C   UNL     1      47.083   7.322  13.073  0.00  0.00    +0.000 A 
ATOM     23  S   UNL     1      46.044   6.984  11.767  0.00  0.00    +0.000 S 
ATOM     24  C   UNL     1      45.966   5.337  12.186  0.00  0.00    +0.000 A 
ATOM     25  N   UNL     1      45.190   4.474  11.479  0.00  0.00    +0.000 NA
ATOM     26  C   UNL     1      45.192   3.265  11.929  0.00  0.00    +0.000 A 
ATOM     27  N   UNL     1      45.912   2.836  13.016  0.00  0.00    +0.000 N 
ATOM     28  C   UNL     1      46.748   3.662  13.732  0.00  0.00    +0.000 A 
ATOM     29  O   UNL     1      47.438   3.234  14.649  0.00  0.00    +0.000 OA
ATOM     30  C   UNL     1      46.752   5.042  13.289  0.00  0.00    +0.000 A 
ATOM     31  H   UNL     1      45.886   1.869  13.301  0.00  0.00    +0.000 HD
ENDBRANCH  18  21
ENDBRANCH   2  17
TORSDOF 6
ENDMDL
MODEL 9
REMARK VINA RESULT:    -7.136      3.772      6.264
REMARK INTER + INTRA:          -9.826
REMARK INTER:                  -8.611
REMARK INTRA:                  -1.215
REMARK UNBOUND:                -0.188
REMARK  Name = 
REMARK  7 active torsions:
REMARK  status: ('A' for Active; 'I' for Inactive)
REMARK    1  A    between atoms: C_1  and  C_2
REMARK    2  A    between atoms: C_2  and  N_3
REMARK    3  A    between atoms: C_2  and  C_16
REMARK    4  A    between atoms: C_4  and  C_6
REMARK    5  A    between atoms: C_19  and  O_20
REMARK    6  A    between atoms: O_20  and  C_21
REMARK    7  A    between atoms: C_21  and  C_22
REMARK                            x       y       z     vdW  Elec       q    Type
REMARK                         _______ _______ _______ _____ _____    ______ ____
ROOT
ATOM      1  C   UNL     1      44.156   3.952  13.030  0.00  0.00    +0.000 C 
ATOM      2  C   UNL     1      45.348   4.902  12.883  0.00  0.00    +0.000 C 
ENDROOT
BRANCH   2   3
ATOM      3  C   UNL     1      45.000   6.258  12.293  0.00  0.00    +0.000 A 
ATOM      4  C   UNL     1      45.816   7.362  12.595  0.00  0.00    +0.000 A 
ATOM      5  C   UNL     1      45.560   8.627  12.051  0.00  0.00    +0.000 A 
ATOM      6  C   UNL     1      44.476   8.813  11.196  0.00  0.00    +0.000 A 
ATOM      7  C   UNL     1      43.628   7.737  10.932  0.00  0.00    +0.000 A 
ATOM      8  C   UNL     1      43.884   6.472  11.472  0.00  0.00    +0.000 A 
BRANCH   6   9
ATOM      9  O   UNL     1      44.123   9.997  10.607  0.00  0.00    +0.000 OA
BRANCH   9  10
ATOM     10  C   UNL     1      43.642  11.013  11.495  0.00  0.00    +0.000 C 
BRANCH  10  11
ATOM     11  C   UNL     1      42.129  11.066  11.447  0.00  0.00    +0.000 A 
ATOM     12  C   UNL     1      41.443  10.760  10.272  0.00  0.00    +0.000 A 
ATOM     13  C   UNL     1      40.052  10.840  10.260  0.00  0.00    +0.000 A 
ATOM     14  C   UNL     1      39.384  11.224  11.417  0.00  0.00    +0.000 A 
ATOM     15  C   UNL     1      40.136  11.515  12.541  0.00  0.00    +0.000 A 
ATOM     16  N   UNL     1      41.485  11.454  12.579  0.00  0.00    +0.000 NA
ENDBRANCH  10  11
ENDBRANCH   9  10
ENDBRANCH   6   9
ENDBRANCH   2   3
BRANCH   2  17
ATOM     17  N   UNL     1      46.029   5.067  14.153  0.00  0.00    +0.000 N 
ATOM     18  C   UNL     1      46.973   4.166  14.582  0.00  0.00    +0.000 C 
ATOM     19  O   UNL     1      47.333   3.221  13.885  0.00  0.00    +0.000 OA
ATOM     20  H   UNL     1      45.631   5.729  14.813  0.00  0.00    +0.000 HD
BRANCH  18  21
ATOM     21  C   UNL     1      47.584   4.410  15.893  0.00  0.00    +0.000 A 
ATOM     22  C   UNL     1      47.378   3.499  16.920  0.00  0.00    +0.000 A 
ATOM     23  S   UNL     1      48.147   3.923  18.379  0.00  0.00    +0.000 S 
ATOM     24  C   UNL     1      48.747   5.365  17.704  0.00  0.00    +0.000 A 
ATOM     25  N   UNL     1      49.471   6.237  18.455  0.00  0.00    +0.000 NA
ATOM     26  C   UNL     1      49.829   7.307  17.830  0.00  0.00    +0.000 A 
ATOM     27  N   UNL     1      49.540   7.581  16.517  0.00  0.00    +0.000 N 
ATOM     28  C   UNL     1      48.852   6.706  15.706  0.00  0.00    +0.000 A 
ATOM     29  O   UNL     1      48.676   6.942  14.516  0.00  0.00    +0.000 OA
ATOM     30  C   UNL     1      48.394   5.504  16.372  0.00  0.00    +0.000 A 
ATOM     31  H   UNL     1      49.871   8.429  16.083  0.00  0.00    +0.000 HD
ENDBRANCH  18  21
ENDBRANCH   2  17
TORSDOF 6
ENDMDL
