MODEL 1
REMARK VINA RESULT:    -8.275      0.000      0.000
REMARK INTER + INTRA:         -13.731
REMARK INTER:                 -12.387
REMARK INTRA:                  -1.344
REMARK UNBOUND:                -1.344
REMARK  Name = 
REMARK  9 active torsions:
REMARK  status: ('A' for Active; 'I' for Inactive)
REMARK    1  A    between atoms: N_1  and  C_2
REMARK    2  A    between atoms: C_2  and  C_3
REMARK    3  A    between atoms: C_3  and  N_4
REMARK    4  A    between atoms: C_3  and  C_26
REMARK    5  A    between atoms: N_4  and  C_5
REMARK    6  A    between atoms: C_5  and  C_6
REMARK    7  A    between atoms: C_9  and  C_10
REMARK    8  A    between atoms: C_10  and  N_11
REMARK    9  A    between atoms: C_12  and  C_14
REMARK                            x       y       z     vdW  Elec       q    Type
REMARK                         _______ _______ _______ _____ _____    ______ ____
ROOT
ATOM      1  C   UNL     1      44.735   6.253  11.323  0.00  0.00    +0.000 A 
ATOM      2  C   UNL     1      46.084   5.980  11.104  0.00  0.00    +0.000 A 
ATOM      3  C   UNL     1      47.039   6.689  11.821  0.00  0.00    +0.000 A 
ATOM      4  C   UNL     1      46.630   7.672  12.724  0.00  0.00    +0.000 A 
ATOM      5  C   UNL     1      45.262   7.873  12.881  0.00  0.00    +0.000 A 
ATOM      6  N   UNL     1      44.309   7.191  12.208  0.00  0.00    +0.000 NA
ENDROOT
BRANCH   1   7
ATOM      7  C   UNL     1      43.681   5.481  10.553  0.00  0.00    +0.000 C 
BRANCH   7   8
ATOM      8  N   UNL     1      44.257   4.833   9.378  0.00  0.00    +0.000 NA
ATOM      9  H   UNL     1      43.688   5.129   8.580  0.00  0.00    +0.000 HD
BRANCH   8  10
ATOM     10  C   UNL     1      44.241   3.354   9.435  0.00  0.00    +0.000 C 
BRANCH  10  11
ATOM     11  C   UNL     1      45.342   2.775   8.530  0.00  0.00    +0.000 A 
ATOM     12  C   UNL     1      45.989   3.583   7.589  0.00  0.00    +0.000 A 
ATOM     13  C   UNL     1      46.964   3.028   6.766  0.00  0.00    +0.000 A 
ATOM     14  C   UNL     1      47.285   1.686   6.908  0.00  0.00    +0.000 A 
ATOM     15  C   UNL     1      46.614   0.954   7.873  0.00  0.00    +0.000 A 
ATOM     16  N   UNL     1      45.658   1.463   8.686  0.00  0.00    +0.000 NA
ENDBRANCH  10  11
BRANCH  10  17
ATOM     17  C   UNL     1      44.424   2.737  10.863  0.00  0.00    +0.000 C 
BRANCH  17  18
ATOM     18  N   UNL     1      43.245   2.065  11.440  0.00  0.00    +0.000 NA
ATOM     19  H   UNL     1      43.545   1.232  11.943  0.00  0.00    +0.000 HD
ATOM     20  H   UNL     1      42.627   1.757  10.692  0.00  0.00    +0.000 HD
ENDBRANCH  17  18
ENDBRANCH  10  17
ENDBRANCH   8  10
ENDBRANCH   7   8
ENDBRANCH   1   7
BRANCH   4  21
ATOM     21  C   UNL     1      47.621   8.407  13.574  0.00  0.00    +0.000 C 
BRANCH  21  22
ATOM     22  N   UNL     1      47.937   7.617  14.734  0.00  0.00    +0.000 N 
ATOM     23  C   UNL     1      49.185   7.109  14.963  0.00  0.00    +0.000 C 
ATOM     24  O   UNL     1      50.131   7.324  14.212  0.00  0.00    +0.000 OA
ATOM     25  H   UNL     1      47.148   7.223  15.236  0.00  0.00    +0.000 HD
BRANCH  23  26
ATOM     26  C   UNL     1      49.339   6.348  16.214  0.00  0.00    +0.000 A 
ATOM     27  C   UNL     1      50.229   6.785  17.183  0.00  0.00    +0.000 A 
ATOM     28  S   UNL     1      50.201   5.842  18.605  0.00  0.00    +0.000 S 
ATOM     29  C   UNL     1      49.038   4.786  17.951  0.00  0.00    +0.000 A 
ATOM     30  N   UNL     1      48.567   3.727  18.666  0.00  0.00    +0.000 NA
ATOM     31  C   UNL     1      47.702   3.002  18.037  0.00  0.00    +0.000 A 
ATOM     32  N   UNL     1      47.272   3.233  16.756  0.00  0.00    +0.000 N 
ATOM     33  C   UNL     1      47.711   4.289  16.003  0.00  0.00    +0.000 A 
ATOM     34  O   UNL     1      47.290   4.479  14.864  0.00  0.00    +0.000 OA
ATOM     35  C   UNL     1      48.676   5.150  16.666  0.00  0.00    +0.000 A 
ATOM     36  H   UNL     1      46.592   2.626  16.320  0.00  0.00    +0.000 HD
ENDBRANCH  23  26
ENDBRANCH  21  22
ENDBRANCH   4  21
TORSDOF 9
ENDMDL
MODEL 2
REMARK VINA RESULT:    -7.738      1.477      1.905
REMARK INTER + INTRA:         -12.927
REMARK INTER:                 -12.132
REMARK INTRA:                  -0.795
REMARK UNBOUND:                -1.344
REMARK  Name = 
REMARK  9 active torsions:
REMARK  status: ('A' for Active; 'I' for Inactive)
REMARK    1  A    between atoms: N_1  and  C_2
REMARK    2  A    between atoms: C_2  and  C_3
REMARK    3  A    between atoms: C_3  and  N_4
REMARK    4  A    between atoms: C_3  and  C_26
REMARK    5  A    between atoms: N_4  and  C_5
REMARK    6  A    between atoms: C_5  and  C_6
REMARK    7  A    between atoms: C_9  and  C_10
REMARK    8  A    between atoms: C_10  and  N_11
REMARK    9  A    between atoms: C_12  and  C_14
REMARK                            x       y       z     vdW  Elec       q    Type
REMARK                         _______ _______ _______ _____ _____    ______ ____
ROOT
ATOM      1  C   UNL     1      44.995   6.213  11.890  0.00  0.00    +0.000 A 
ATOM      2  C   UNL     1      45.005   7.606  11.956  0.00  0.00    +0.000 A 
ATOM      3  C   UNL     1      46.052   8.241  12.610  0.00  0.00    +0.000 A 
ATOM      4  C   UNL     1      47.056   7.475  13.206  0.00  0.00    +0.000 A 
ATOM      5  C   UNL     1      46.967   6.091  13.085  0.00  0.00    +0.000 A 
ATOM      6  N   UNL     1      45.968   5.445  12.445  0.00  0.00    +0.000 NA
ENDROOT
BRANCH   1   7
ATOM      7  C   UNL     1      43.862   5.506  11.173  0.00  0.00    +0.000 C 
BRANCH   7   8
ATOM      8  N   UNL     1      44.275   5.068   9.842  0.00  0.00    +0.000 NA
ATOM      9  H   UNL     1      43.654   5.540   9.179  0.00  0.00    +0.000 HD
BRANCH   8  10
ATOM     10  C   UNL     1      44.160   3.608   9.625  0.00  0.00    +0.000 C 
BRANCH  10  11
ATOM     11  C   UNL     1      45.238   3.131   8.637  0.00  0.00    +0.000 A 
ATOM     12  C   UNL     1      45.693   1.808   8.663  0.00  0.00    +0.000 A 
ATOM     13  C   UNL     1      46.687   1.409   7.774  0.00  0.00    +0.000 A 
ATOM     14  C   UNL     1      47.194   2.330   6.870  0.00  0.00    +0.000 A 
ATOM     15  C   UNL     1      46.683   3.616   6.892  0.00  0.00    +0.000 A 
ATOM     16  N   UNL     1      45.719   4.036   7.747  0.00  0.00    +0.000 NA
ENDBRANCH  10  11
BRANCH  10  17
ATOM     17  C   UNL     1      44.275   2.728  10.916  0.00  0.00    +0.000 C 
BRANCH  17  18
ATOM     18  N   UNL     1      43.005   2.251  11.496  0.00  0.00    +0.000 NA
ATOM     19  H   UNL     1      42.281   2.269  10.780  0.00  0.00    +0.000 HD
ATOM     20  H   UNL     1      42.710   2.882  12.238  0.00  0.00    +0.000 HD
ENDBRANCH  17  18
ENDBRANCH  10  17
ENDBRANCH   8  10
ENDBRANCH   7   8
ENDBRANCH   1   7
BRANCH   4  21
ATOM     21  C   UNL     1      48.244   8.118  13.854  0.00  0.00    +0.000 C 
BRANCH  21  22
ATOM     22  N   UNL     1      48.185   7.910  15.276  0.00  0.00    +0.000 N 
ATOM     23  C   UNL     1      49.110   7.163  15.951  0.00  0.00    +0.000 C 
ATOM     24  O   UNL     1      50.074   6.650  15.394  0.00  0.00    +0.000 OA
ATOM     25  H   UNL     1      47.295   8.106  15.721  0.00  0.00    +0.000 HD
BRANCH  23  26
ATOM     26  C   UNL     1      48.914   7.079  17.408  0.00  0.00    +0.000 A 
ATOM     27  C   UNL     1      48.707   8.235  18.145  0.00  0.00    +0.000 A 
ATOM     28  S   UNL     1      48.397   7.939  19.797  0.00  0.00    +0.000 S 
ATOM     29  C   UNL     1      48.584   6.261  19.592  0.00  0.00    +0.000 A 
ATOM     30  N   UNL     1      48.449   5.403  20.642  0.00  0.00    +0.000 NA
ATOM     31  C   UNL     1      48.635   4.160  20.342  0.00  0.00    +0.000 A 
ATOM     32  N   UNL     1      48.953   3.697  19.092  0.00  0.00    +0.000 N 
ATOM     33  C   UNL     1      49.092   4.521  18.006  0.00  0.00    +0.000 A 
ATOM     34  O   UNL     1      49.358   4.070  16.894  0.00  0.00    +0.000 OA
ATOM     35  C   UNL     1      48.877   5.931  18.280  0.00  0.00    +0.000 A 
ATOM     36  H   UNL     1      49.088   2.710  18.923  0.00  0.00    +0.000 HD
ENDBRANCH  23  26
ENDBRANCH  21  22
ENDBRANCH   4  21
TORSDOF 9
ENDMDL
MODEL 3
REMARK VINA RESULT:    -7.520      1.880      2.389
REMARK INTER + INTRA:         -12.600
REMARK INTER:                 -11.689
REMARK INTRA:                  -0.911
REMARK UNBOUND:                -1.344
REMARK  Name = 
REMARK  9 active torsions:
REMARK  status: ('A' for Active; 'I' for Inactive)
REMARK    1  A    between atoms: N_1  and  C_2
REMARK    2  A    between atoms: C_2  and  C_3
REMARK    3  A    between atoms: C_3  and  N_4
REMARK    4  A    between atoms: C_3  and  C_26
REMARK    5  A    between atoms: N_4  and  C_5
REMARK    6  A    between atoms: C_5  and  C_6
REMARK    7  A    between atoms: C_9  and  C_10
REMARK    8  A    between atoms: C_10  and  N_11
REMARK    9  A    between atoms: C_12  and  C_14
REMARK                            x       y       z     vdW  Elec       q    Type
REMARK                         _______ _______ _______ _____ _____    ______ ____
ROOT
ATOM      1  C   UNL     1      44.629   6.298  11.684  0.00  0.00    +0.000 A 
ATOM      2  C   UNL     1      44.824   7.654  11.431  0.00  0.00    +0.000 A 
ATOM      3  C   UNL     1      45.818   8.333  12.123  0.00  0.00    +0.000 A 
ATOM      4  C   UNL     1      46.584   7.650  13.071  0.00  0.00    +0.000 A 
ATOM      5  C   UNL     1      46.322   6.296  13.254  0.00  0.00    +0.000 A 
ATOM      6  N   UNL     1      45.371   5.606  12.588  0.00  0.00    +0.000 NA
ENDROOT
BRANCH   1   7
ATOM      7  C   UNL     1      43.552   5.543  10.930  0.00  0.00    +0.000 C 
BRANCH   7   8
ATOM      8  N   UNL     1      44.085   4.948   9.707  0.00  0.00    +0.000 NA
ATOM      9  H   UNL     1      43.496   5.290   8.943  0.00  0.00    +0.000 HD
BRANCH   8  10
ATOM     10  C   UNL     1      44.051   3.468   9.691  0.00  0.00    +0.000 C 
BRANCH  10  11
ATOM     11  C   UNL     1      45.152   2.921   8.766  0.00  0.00    +0.000 A 
ATOM     12  C   UNL     1      45.826   3.771   7.881  0.00  0.00    +0.000 A 
ATOM     13  C   UNL     1      46.800   3.245   7.038  0.00  0.00    +0.000 A 
ATOM     14  C   UNL     1      47.093   1.891   7.105  0.00  0.00    +0.000 A 
ATOM     15  C   UNL     1      46.397   1.117   8.017  0.00  0.00    +0.000 A 
ATOM     16  N   UNL     1      45.440   1.597   8.848  0.00  0.00    +0.000 NA
ENDBRANCH  10  11
BRANCH  10  17
ATOM     17  C   UNL     1      44.218   2.779  11.088  0.00  0.00    +0.000 C 
BRANCH  17  18
ATOM     18  N   UNL     1      43.023   2.107  11.631  0.00  0.00    +0.000 NA
ATOM     19  H   UNL     1      43.288   1.195  11.998  0.00  0.00    +0.000 HD
ATOM     20  H   UNL     1      42.352   1.946  10.883  0.00  0.00    +0.000 HD
ENDBRANCH  17  18
ENDBRANCH  10  17
ENDBRANCH   8  10
ENDBRANCH   7   8
ENDBRANCH   1   7
BRANCH   4  21
ATOM     21  C   UNL     1      47.717   8.322  13.784  0.00  0.00    +0.000 C 
BRANCH  21  22
ATOM     22  N   UNL     1      47.855   7.758  15.101  0.00  0.00    +0.000 N 
ATOM     23  C   UNL     1      48.964   7.059  15.491  0.00  0.00    +0.000 C 
ATOM     24  O   UNL     1      49.932   6.897  14.756  0.00  0.00    +0.000 OA
ATOM     25  H   UNL     1      47.001   7.662  15.639  0.00  0.00    +0.000 HD
BRANCH  23  26
ATOM     26  C   UNL     1      48.951   6.579  16.883  0.00  0.00    +0.000 A 
ATOM     27  C   UNL     1      49.357   5.285  17.171  0.00  0.00    +0.000 A 
ATOM     28  S   UNL     1      49.375   4.935  18.841  0.00  0.00    +0.000 S 
ATOM     29  C   UNL     1      48.789   6.484  19.231  0.00  0.00    +0.000 A 
ATOM     30  N   UNL     1      48.568   6.849  20.525  0.00  0.00    +0.000 NA
ATOM     31  C   UNL     1      48.107   8.047  20.669  0.00  0.00    +0.000 A 
ATOM     32  N   UNL     1      47.836   8.909  19.639  0.00  0.00    +0.000 N 
ATOM     33  C   UNL     1      48.048   8.589  18.324  0.00  0.00    +0.000 A 
ATOM     34  O   UNL     1      47.813   9.394  17.426  0.00  0.00    +0.000 OA
ATOM     35  C   UNL     1      48.584   7.257  18.101  0.00  0.00    +0.000 A 
ATOM     36  H   UNL     1      47.473   9.835  19.819  0.00  0.00    +0.000 HD
ENDBRANCH  23  26
ENDBRANCH  21  22
ENDBRANCH   4  21
TORSDOF 9
ENDMDL
MODEL 4
REMARK VINA RESULT:    -7.352      1.835      2.462
REMARK INTER + INTRA:         -12.348
REMARK INTER:                 -11.699
REMARK INTRA:                  -0.649
REMARK UNBOUND:                -1.344
REMARK  Name = 
REMARK  9 active torsions:
REMARK  status: ('A' for Active; 'I' for Inactive)
REMARK    1  A    between atoms: N_1  and  C_2
REMARK    2  A    between atoms: C_2  and  C_3
REMARK    3  A    between atoms: C_3  and  N_4
REMARK    4  A    between atoms: C_3  and  C_26
REMARK    5  A    between atoms: N_4  and  C_5
REMARK    6  A    between atoms: C_5  and  C_6
REMARK    7  A    between atoms: C_9  and  C_10
REMARK    8  A    between atoms: C_10  and  N_11
REMARK    9  A    between atoms: C_12  and  C_14
REMARK                            x       y       z     vdW  Elec       q    Type
REMARK                         _______ _______ _______ _____ _____    ______ ____
ROOT
ATOM      1  C   UNL     1      44.598   6.112  11.798  0.00  0.00    +0.000 A 
ATOM      2  C   UNL     1      45.035   7.397  11.478  0.00  0.00    +0.000 A 
ATOM      3  C   UNL     1      46.124   7.926  12.158  0.00  0.00    +0.000 A 
ATOM      4  C   UNL     1      46.742   7.173  13.158  0.00  0.00    +0.000 A 
ATOM      5  C   UNL     1      46.241   5.899  13.407  0.00  0.00    +0.000 A 
ATOM      6  N   UNL     1      45.192   5.352  12.755  0.00  0.00    +0.000 NA
ENDROOT
BRANCH   1   7
ATOM      7  C   UNL     1      43.415   5.519  11.059  0.00  0.00    +0.000 C 
BRANCH   7   8
ATOM      8  N   UNL     1      43.820   4.984   9.762  0.00  0.00    +0.000 NA
ATOM      9  H   UNL     1      43.091   5.260   9.099  0.00  0.00    +0.000 HD
BRANCH   8  10
ATOM     10  C   UNL     1      43.942   3.509   9.728  0.00  0.00    +0.000 C 
BRANCH  10  11
ATOM     11  C   UNL     1      45.098   3.093   8.803  0.00  0.00    +0.000 A 
ATOM     12  C   UNL     1      45.739   4.038   7.994  0.00  0.00    +0.000 A 
ATOM     13  C   UNL     1      46.765   3.630   7.147  0.00  0.00    +0.000 A 
ATOM     14  C   UNL     1      47.141   2.294   7.136  0.00  0.00    +0.000 A 
ATOM     15  C   UNL     1      46.473   1.421   7.976  0.00  0.00    +0.000 A 
ATOM     16  N   UNL     1      45.467   1.786   8.808  0.00  0.00    +0.000 NA
ENDBRANCH  10  11
BRANCH  10  17
ATOM     17  C   UNL     1      44.175   2.825  11.118  0.00  0.00    +0.000 C 
BRANCH  17  18
ATOM     18  N   UNL     1      43.032   2.083  11.681  0.00  0.00    +0.000 NA
ATOM     19  H   UNL     1      42.300   2.741  11.943  0.00  0.00    +0.000 HD
ATOM     20  H   UNL     1      43.321   1.602  12.530  0.00  0.00    +0.000 HD
ENDBRANCH  17  18
ENDBRANCH  10  17
ENDBRANCH   8  10
ENDBRANCH   7   8
ENDBRANCH   1   7
BRANCH   4  21
ATOM     21  C   UNL     1      47.967   7.673  13.862  0.00  0.00    +0.000 C 
BRANCH  21  22
ATOM     22  N   UNL     1      48.503   6.626  14.692  0.00  0.00    +0.000 N 
ATOM     23  C   UNL     1      48.888   6.836  15.987  0.00  0.00    +0.000 C 
ATOM     24  O   UNL     1      48.768   7.923  16.541  0.00  0.00    +0.000 OA
ATOM     25  H   UNL     1      48.837   5.799  14.209  0.00  0.00    +0.000 HD
BRANCH  23  26
ATOM     26  C   UNL     1      49.385   5.647  16.698  0.00  0.00    +0.000 A 
ATOM     27  C   UNL     1      48.496   4.668  17.115  0.00  0.00    +0.000 A 
ATOM     28  S   UNL     1      49.259   3.319  17.830  0.00  0.00    +0.000 S 
ATOM     29  C   UNL     1      50.798   4.022  17.655  0.00  0.00    +0.000 A 
ATOM     30  N   UNL     1      51.920   3.376  18.078  0.00  0.00    +0.000 NA
ATOM     31  C   UNL     1      53.015   4.037  17.897  0.00  0.00    +0.000 A 
ATOM     32  N   UNL     1      53.091   5.288  17.341  0.00  0.00    +0.000 N 
ATOM     33  C   UNL     1      51.991   5.972  16.895  0.00  0.00    +0.000 A 
ATOM     34  O   UNL     1      52.097   7.084  16.383  0.00  0.00    +0.000 OA
ATOM     35  C   UNL     1      50.730   5.269  17.058  0.00  0.00    +0.000 A 
ATOM     36  H   UNL     1      53.981   5.753  17.229  0.00  0.00    +0.000 HD
ENDBRANCH  23  26
ENDBRANCH  21  22
ENDBRANCH   4  21
TORSDOF 9
ENDMDL
MODEL 5
REMARK VINA RESULT:    -7.163      3.000      4.125
REMARK INTER + INTRA:         -12.067
REMARK INTER:                 -10.989
REMARK INTRA:                  -1.078
REMARK UNBOUND:                -1.344
REMARK  Name = 
REMARK  9 active torsions:
REMARK  status: ('A' for Active; 'I' for Inactive)
REMARK    1  A    between atoms: N_1  and  C_2
REMARK    2  A    between atoms: C_2  and  C_3
REMARK    3  A    between atoms: C_3  and  N_4
REMARK    4  A    between atoms: C_3  and  C_26
REMARK    5  A    between atoms: N_4  and  C_5
REMARK    6  A    between atoms: C_5  and  C_6
REMARK    7  A    between atoms: C_9  and  C_10
REMARK    8  A    between atoms: C_10  and  N_11
REMARK    9  A    between atoms: C_12  and  C_14
REMARK                            x       y       z     vdW  Elec       q    Type
REMARK                         _______ _______ _______ _____ _____    ______ ____
ROOT
ATOM      1  C   UNL     1      47.271   5.354  14.038  0.00  0.00    +0.000 A 
ATOM      2  C   UNL     1      46.904   4.417  15.002  0.00  0.00    +0.000 A 
ATOM      3  C   UNL     1      47.424   4.533  16.285  0.00  0.00    +0.000 A 
ATOM      4  C   UNL     1      48.316   5.567  16.574  0.00  0.00    +0.000 A 
ATOM      5  C   UNL     1      48.621   6.459  15.550  0.00  0.00    +0.000 A 
ATOM      6  N   UNL     1      48.122   6.380  14.297  0.00  0.00    +0.000 NA
ENDROOT
BRANCH   1   7
ATOM      7  C   UNL     1      46.705   5.245  12.635  0.00  0.00    +0.000 C 
BRANCH   7   8
ATOM      8  N   UNL     1      45.388   4.612  12.647  0.00  0.00    +0.000 NA
ATOM      9  H   UNL     1      45.555   3.604  12.591  0.00  0.00    +0.000 HD
BRANCH   8  10
ATOM     10  C   UNL     1      44.521   5.003  11.511  0.00  0.00    +0.000 C 
BRANCH  10  11
ATOM     11  C   UNL     1      44.888   4.189  10.259  0.00  0.00    +0.000 A 
ATOM     12  C   UNL     1      45.501   4.806   9.163  0.00  0.00    +0.000 A 
ATOM     13  C   UNL     1      45.800   4.051   8.032  0.00  0.00    +0.000 A 
ATOM     14  C   UNL     1      45.496   2.698   8.023  0.00  0.00    +0.000 A 
ATOM     15  C   UNL     1      44.905   2.154   9.151  0.00  0.00    +0.000 A 
ATOM     16  N   UNL     1      44.598   2.863  10.264  0.00  0.00    +0.000 NA
ENDBRANCH  10  11
BRANCH  10  17
ATOM     17  C   UNL     1      42.983   4.835  11.755  0.00  0.00    +0.000 C 
BRANCH  17  18
ATOM     18  N   UNL     1      42.181   6.073  11.738  0.00  0.00    +0.000 NA
ATOM     19  H   UNL     1      41.782   6.202  10.811  0.00  0.00    +0.000 HD
ATOM     20  H   UNL     1      42.784   6.873  11.920  0.00  0.00    +0.000 HD
ENDBRANCH  17  18
ENDBRANCH  10  17
ENDBRANCH   8  10
ENDBRANCH   7   8
ENDBRANCH   1   7
BRANCH   4  21
ATOM     21  C   UNL     1      48.840   5.775  17.962  0.00  0.00    +0.000 C 
BRANCH  21  22
ATOM     22  N   UNL     1      49.965   4.907  18.185  0.00  0.00    +0.000 N 
ATOM     23  C   UNL     1      51.254   5.290  17.935  0.00  0.00    +0.000 C 
ATOM     24  O   UNL     1      51.540   6.414  17.539  0.00  0.00    +0.000 OA
ATOM     25  H   UNL     1      49.757   3.918  18.274  0.00  0.00    +0.000 HD
BRANCH  23  26
ATOM     26  C   UNL     1      52.284   4.286  18.248  0.00  0.00    +0.000 A 
ATOM     27  C   UNL     1      53.451   4.671  18.890  0.00  0.00    +0.000 A 
ATOM     28  S   UNL     1      54.482   3.363  19.264  0.00  0.00    +0.000 S 
ATOM     29  C   UNL     1      53.428   2.247  18.532  0.00  0.00    +0.000 A 
ATOM     30  N   UNL     1      53.723   0.917  18.497  0.00  0.00    +0.000 NA
ATOM     31  C   UNL     1      52.841   0.191  17.894  0.00  0.00    +0.000 A 
ATOM     32  N   UNL     1      51.697   0.673  17.313  0.00  0.00    +0.000 N 
ATOM     33  C   UNL     1      51.356   2.000  17.330  0.00  0.00    +0.000 A 
ATOM     34  O   UNL     1      50.311   2.395  16.816  0.00  0.00    +0.000 OA
ATOM     35  C   UNL     1      52.304   2.864  18.010  0.00  0.00    +0.000 A 
ATOM     36  H   UNL     1      51.046   0.051  16.854  0.00  0.00    +0.000 HD
ENDBRANCH  23  26
ENDBRANCH  21  22
ENDBRANCH   4  21
TORSDOF 9
ENDMDL
MODEL 6
REMARK VINA RESULT:    -7.097      1.561      1.933
REMARK INTER + INTRA:         -11.967
REMARK INTER:                 -10.505
REMARK INTRA:                  -1.462
REMARK UNBOUND:                -1.344
REMARK  Name = 
REMARK  9 active torsions:
REMARK  status: ('A' for Active; 'I' for Inactive)
REMARK    1  A    between atoms: N_1  and  C_2
REMARK    2  A    between atoms: C_2  and  C_3
REMARK    3  A    between atoms: C_3  and  N_4
REMARK    4  A    between atoms: C_3  and  C_26
REMARK    5  A    between atoms: N_4  and  C_5
REMARK    6  A    between atoms: C_5  and  C_6
REMARK    7  A    between atoms: C_9  and  C_10
REMARK    8  A    between atoms: C_10  and  N_11
REMARK    9  A    between atoms: C_12  and  C_14
REMARK                            x       y       z     vdW  Elec       q    Type
REMARK                         _______ _______ _______ _____ _____    ______ ____
ROOT
ATOM      1  C   UNL     1      45.463   6.913  11.893  0.00  0.00    +0.000 A 
ATOM      2  C   UNL     1      46.760   6.432  11.724  0.00  0.00    +0.000 A 
ATOM      3  C   UNL     1      47.830   7.244  12.076  0.00  0.00    +0.000 A 
ATOM      4  C   UNL     1      47.586   8.528  12.569  0.00  0.00    +0.000 A 
ATOM      5  C   UNL     1      46.258   8.922  12.709  0.00  0.00    +0.000 A 
ATOM      6  N   UNL     1      45.197   8.150  12.386  0.00  0.00    +0.000 NA
ENDROOT
BRANCH   1   7
ATOM      7  C   UNL     1      44.285   6.035  11.519  0.00  0.00    +0.000 C 
BRANCH   7   8
ATOM      8  N   UNL     1      44.439   5.494  10.171  0.00  0.00    +0.000 NA
ATOM      9  H   UNL     1      43.795   6.022   9.576  0.00  0.00    +0.000 HD
BRANCH   8  10
ATOM     10  C   UNL     1      44.103   4.056  10.056  0.00  0.00    +0.000 C 
BRANCH  10  11
ATOM     11  C   UNL     1      45.068   3.362   9.080  0.00  0.00    +0.000 A 
ATOM     12  C   UNL     1      45.721   4.094   8.082  0.00  0.00    +0.000 A 
ATOM     13  C   UNL     1      46.570   3.436   7.196  0.00  0.00    +0.000 A 
ATOM     14  C   UNL     1      46.763   2.070   7.334  0.00  0.00    +0.000 A 
ATOM     15  C   UNL     1      46.096   1.416   8.356  0.00  0.00    +0.000 A 
ATOM     16  N   UNL     1      45.260   2.026   9.230  0.00  0.00    +0.000 NA
ENDBRANCH  10  11
BRANCH  10  17
ATOM     17  C   UNL     1      44.126   3.254  11.400  0.00  0.00    +0.000 C 
BRANCH  17  18
ATOM     18  N   UNL     1      43.096   2.210  11.555  0.00  0.00    +0.000 NA
ATOM     19  H   UNL     1      42.193   2.582  11.266  0.00  0.00    +0.000 HD
ATOM     20  H   UNL     1      43.014   1.954  12.537  0.00  0.00    +0.000 HD
ENDBRANCH  17  18
ENDBRANCH  10  17
ENDBRANCH   8  10
ENDBRANCH   7   8
ENDBRANCH   1   7
BRANCH   4  21
ATOM     21  C   UNL     1      48.706   9.408  13.034  0.00  0.00    +0.000 C 
BRANCH  21  22
ATOM     22  N   UNL     1      49.117   9.004  14.352  0.00  0.00    +0.000 N 
ATOM     23  C   UNL     1      50.431   8.920  14.722  0.00  0.00    +0.000 C 
ATOM     24  O   UNL     1      51.347   9.220  13.964  0.00  0.00    +0.000 OA
ATOM     25  H   UNL     1      48.419   8.525  14.912  0.00  0.00    +0.000 HD
BRANCH  23  26
ATOM     26  C   UNL     1      50.671   8.520  16.118  0.00  0.00    +0.000 A 
ATOM     27  C   UNL     1      51.421   9.335  16.952  0.00  0.00    +0.000 A 
ATOM     28  S   UNL     1      51.509   8.764  18.558  0.00  0.00    +0.000 S 
ATOM     29  C   UNL     1      50.594   7.382  18.179  0.00  0.00    +0.000 A 
ATOM     30  N   UNL     1      50.299   6.450  19.128  0.00  0.00    +0.000 NA
ATOM     31  C   UNL     1      49.613   5.445  18.693  0.00  0.00    +0.000 A 
ATOM     32  N   UNL     1      49.203   5.282  17.395  0.00  0.00    +0.000 N 
ATOM     33  C   UNL     1      49.468   6.195  16.410  0.00  0.00    +0.000 A 
ATOM     34  O   UNL     1      49.068   6.027  15.261  0.00  0.00    +0.000 OA
ATOM     35  C   UNL     1      50.225   7.357  16.845  0.00  0.00    +0.000 A 
ATOM     36  H   UNL     1      48.668   4.470  17.119  0.00  0.00    +0.000 HD
ENDBRANCH  23  26
ENDBRANCH  21  22
ENDBRANCH   4  21
TORSDOF 9
ENDMDL
MODEL 7
REMARK VINA RESULT:    -7.014      2.870      8.296
REMARK INTER + INTRA:         -11.843
REMARK INTER:                 -10.285
REMARK INTRA:                  -1.558
REMARK UNBOUND:                -1.344
REMARK  Name = 
REMARK  9 active torsions:
REMARK  status: ('A' for Active; 'I' for Inactive)
REMARK    1  A    between atoms: N_1  and  C_2
REMARK    2  A    between atoms: C_2  and  C_3
REMARK    3  A    between atoms: C_3  and  N_4
REMARK    4  A    between atoms: C_3  and  C_26
REMARK    5  A    between atoms: N_4  and  C_5
REMARK    6  A    between atoms: C_5  and  C_6
REMARK    7  A    between atoms: C_9  and  C_10
REMARK    8  A    between atoms: C_10  and  N_11
REMARK    9  A    between atoms: C_12  and  C_14
REMARK                            x       y       z     vdW  Elec       q    Type
REMARK                         _______ _______ _______ _____ _____    ______ ____
ROOT
ATOM      1  C   UNL     1      49.797   7.758  14.954  0.00  0.00    +0.000 A 
ATOM      2  C   UNL     1      49.216   9.010  14.757  0.00  0.00    +0.000 A 
ATOM      3  C   UNL     1      48.173   9.133  13.849  0.00  0.00    +0.000 A 
ATOM      4  C   UNL     1      47.745   8.010  13.138  0.00  0.00    +0.000 A 
ATOM      5  C   UNL     1      48.379   6.800  13.403  0.00  0.00    +0.000 A 
ATOM      6  N   UNL     1      49.388   6.646  14.289  0.00  0.00    +0.000 NA
ENDROOT
BRANCH   1   7
ATOM      7  C   UNL     1      50.932   7.607  15.948  0.00  0.00    +0.000 C 
BRANCH   7   8
ATOM      8  N   UNL     1      51.214   6.198  16.214  0.00  0.00    +0.000 NA
ATOM      9  H   UNL     1      50.711   5.666  15.500  0.00  0.00    +0.000 HD
BRANCH   8  10
ATOM     10  C   UNL     1      50.761   5.733  17.545  0.00  0.00    +0.000 C 
BRANCH  10  11
ATOM     11  C   UNL     1      49.539   4.810  17.397  0.00  0.00    +0.000 A 
ATOM     12  C   UNL     1      48.248   5.294  17.633  0.00  0.00    +0.000 A 
ATOM     13  C   UNL     1      47.162   4.431  17.518  0.00  0.00    +0.000 A 
ATOM     14  C   UNL     1      47.384   3.111  17.154  0.00  0.00    +0.000 A 
ATOM     15  C   UNL     1      48.688   2.709  16.920  0.00  0.00    +0.000 A 
ATOM     16  N   UNL     1      49.765   3.523  17.029  0.00  0.00    +0.000 NA
ENDBRANCH  10  11
BRANCH  10  17
ATOM     17  C   UNL     1      51.836   4.969  18.389  0.00  0.00    +0.000 C 
BRANCH  17  18
ATOM     18  N   UNL     1      51.357   4.320  19.623  0.00  0.00    +0.000 NA
ATOM     19  H   UNL     1      50.500   4.775  19.931  0.00  0.00    +0.000 HD
ATOM     20  H   UNL     1      52.045   4.444  20.364  0.00  0.00    +0.000 HD
ENDBRANCH  17  18
ENDBRANCH  10  17
ENDBRANCH   8  10
ENDBRANCH   7   8
ENDBRANCH   1   7
BRANCH   4  21
ATOM     21  C   UNL     1      46.573   8.080  12.207  0.00  0.00    +0.000 C 
BRANCH  21  22
ATOM     22  N   UNL     1      46.092   6.751  11.942  0.00  0.00    +0.000 N 
ATOM     23  C   UNL     1      44.807   6.497  11.547  0.00  0.00    +0.000 C 
ATOM     24  O   UNL     1      43.989   7.390  11.357  0.00  0.00    +0.000 OA
ATOM     25  H   UNL     1      46.649   5.990  12.314  0.00  0.00    +0.000 HD
BRANCH  23  26
ATOM     26  C   UNL     1      44.493   5.082  11.290  0.00  0.00    +0.000 A 
ATOM     27  C   UNL     1      43.743   4.363  12.209  0.00  0.00    +0.000 A 
ATOM     28  S   UNL     1      43.390   2.772  11.699  0.00  0.00    +0.000 S 
ATOM     29  C   UNL     1      44.273   2.975  10.260  0.00  0.00    +0.000 A 
ATOM     30  N   UNL     1      44.380   1.965   9.351  0.00  0.00    +0.000 NA
ATOM     31  C   UNL     1      45.095   2.256   8.315  0.00  0.00    +0.000 A 
ATOM     32  N   UNL     1      45.721   3.457   8.109  0.00  0.00    +0.000 N 
ATOM     33  C   UNL     1      45.636   4.502   8.990  0.00  0.00    +0.000 A 
ATOM     34  O   UNL     1      46.194   5.574   8.764  0.00  0.00    +0.000 OA
ATOM     35  C   UNL     1      44.829   4.239  10.169  0.00  0.00    +0.000 A 
ATOM     36  H   UNL     1      46.269   3.620   7.275  0.00  0.00    +0.000 HD
ENDBRANCH  23  26
ENDBRANCH  21  22
ENDBRANCH   4  21
TORSDOF 9
ENDMDL
MODEL 8
REMARK VINA RESULT:    -6.712      2.154      2.709
REMARK INTER + INTRA:         -11.391
REMARK INTER:                 -10.356
REMARK INTRA:                  -1.035
REMARK UNBOUND:                -1.344
REMARK  Name = 
REMARK  9 active torsions:
REMARK  status: ('A' for Active; 'I' for Inactive)
REMARK    1  A    between atoms: N_1  and  C_2
REMARK    2  A    between atoms: C_2  and  C_3
REMARK    3  A    between atoms: C_3  and  N_4
REMARK    4  A    between atoms: C_3  and  C_26
REMARK    5  A    between atoms: N_4  and  C_5
REMARK    6  A    between atoms: C_5  and  C_6
REMARK    7  A    between atoms: C_9  and  C_10
REMARK    8  A    between atoms: C_10  and  N_11
REMARK    9  A    between atoms: C_12  and  C_14
REMARK                            x       y       z     vdW  Elec       q    Type
REMARK                         _______ _______ _______ _____ _____    ______ ____
ROOT
ATOM      1  C   UNL     1      45.603   4.348  12.755  0.00  0.00    +0.000 A 
ATOM      2  C   UNL     1      46.668   3.997  13.582  0.00  0.00    +0.000 A 
ATOM      3  C   UNL     1      47.522   4.992  14.039  0.00  0.00    +0.000 A 
ATOM      4  C   UNL     1      47.311   6.315  13.643  0.00  0.00    +0.000 A 
ATOM      5  C   UNL     1      46.219   6.573  12.819  0.00  0.00    +0.000 A 
ATOM      6  N   UNL     1      45.364   5.629  12.369  0.00  0.00    +0.000 NA
ENDROOT
BRANCH   1   7
ATOM      7  C   UNL     1      44.658   3.273  12.254  0.00  0.00    +0.000 C 
BRANCH   7   8
ATOM      8  N   UNL     1      45.096   2.746  10.964  0.00  0.00    +0.000 NA
ATOM      9  H   UNL     1      46.044   2.388  11.109  0.00  0.00    +0.000 HD
BRANCH   8  10
ATOM     10  C   UNL     1      45.142   3.757   9.884  0.00  0.00    +0.000 C 
BRANCH  10  11
ATOM     11  C   UNL     1      45.804   3.164   8.628  0.00  0.00    +0.000 A 
ATOM     12  C   UNL     1      46.032   1.787   8.527  0.00  0.00    +0.000 A 
ATOM     13  C   UNL     1      46.656   1.279   7.391  0.00  0.00    +0.000 A 
ATOM     14  C   UNL     1      47.023   2.150   6.375  0.00  0.00    +0.000 A 
ATOM     15  C   UNL     1      46.749   3.497   6.539  0.00  0.00    +0.000 A 
ATOM     16  N   UNL     1      46.149   4.022   7.635  0.00  0.00    +0.000 NA
ENDBRANCH  10  11
BRANCH  10  17
ATOM     17  C   UNL     1      43.754   4.345   9.457  0.00  0.00    +0.000 C 
BRANCH  17  18
ATOM     18  N   UNL     1      43.264   5.495  10.240  0.00  0.00    +0.000 NA
ATOM     19  H   UNL     1      43.092   6.279   9.614  0.00  0.00    +0.000 HD
ATOM     20  H   UNL     1      43.981   5.790  10.900  0.00  0.00    +0.000 HD
ENDBRANCH  17  18
ENDBRANCH  10  17
ENDBRANCH   8  10
ENDBRANCH   7   8
ENDBRANCH   1   7
BRANCH   4  21
ATOM     21  C   UNL     1      48.159   7.430  14.173  0.00  0.00    +0.000 C 
BRANCH  21  22
ATOM     22  N   UNL     1      49.366   6.887  14.738  0.00  0.00    +0.000 N 
ATOM     23  C   UNL     1      49.998   7.454  15.810  0.00  0.00    +0.000 C 
ATOM     24  O   UNL     1      49.559   8.444  16.384  0.00  0.00    +0.000 OA
ATOM     25  H   UNL     1      49.878   6.233  14.157  0.00  0.00    +0.000 HD
BRANCH  23  26
ATOM     26  C   UNL     1      51.204   6.750  16.277  0.00  0.00    +0.000 A 
ATOM     27  C   UNL     1      52.456   7.303  16.058  0.00  0.00    +0.000 A 
ATOM     28  S   UNL     1      53.727   6.403  16.757  0.00  0.00    +0.000 S 
ATOM     29  C   UNL     1      52.651   5.217  17.328  0.00  0.00    +0.000 A 
ATOM     30  N   UNL     1      53.099   4.136  18.026  0.00  0.00    +0.000 NA
ATOM     31  C   UNL     1      52.172   3.309  18.381  0.00  0.00    +0.000 A 
ATOM     32  N   UNL     1      50.840   3.457  18.094  0.00  0.00    +0.000 N 
ATOM     33  C   UNL     1      50.343   4.530  17.403  0.00  0.00    +0.000 A 
ATOM     34  O   UNL     1      49.139   4.642  17.181  0.00  0.00    +0.000 OA
ATOM     35  C   UNL     1      51.339   5.504  16.991  0.00  0.00    +0.000 A 
ATOM     36  H   UNL     1      50.164   2.771  18.400  0.00  0.00    +0.000 HD
ENDBRANCH  23  26
ENDBRANCH  21  22
ENDBRANCH   4  21
TORSDOF 9
ENDMDL
MODEL 9
REMARK VINA RESULT:    -6.689      4.909      9.155
REMARK INTER + INTRA:         -11.356
REMARK INTER:                  -9.952
REMARK INTRA:                  -1.404
REMARK UNBOUND:                -1.344
REMARK  Name = 
REMARK  9 active torsions:
REMARK  status: ('A' for Active; 'I' for Inactive)
REMARK    1  A    between atoms: N_1  and  C_2
REMARK    2  A    between atoms: C_2  and  C_3
REMARK    3  A    between atoms: C_3  and  N_4
REMARK    4  A    between atoms: C_3  and  C_26
REMARK    5  A    between atoms: N_4  and  C_5
REMARK    6  A    between atoms: C_5  and  C_6
REMARK    7  A    between atoms: C_9  and  C_10
REMARK    8  A    between atoms: C_10  and  N_11
REMARK    9  A    between atoms: C_12  and  C_14
REMARK                            x       y       z     vdW  Elec       q    Type
REMARK                         _______ _______ _______ _____ _____    ______ ____
ROOT
ATOM      1  C   UNL     1      51.029   2.452  17.393  0.00  0.00    +0.000 A 
ATOM      2  C   UNL     1      49.639   2.364  17.373  0.00  0.00    +0.000 A 
ATOM      3  C   UNL     1      48.890   3.533  17.366  0.00  0.00    +0.000 A 
ATOM      4  C   UNL     1      49.543   4.767  17.403  0.00  0.00    +0.000 A 
ATOM      5  C   UNL     1      50.935   4.759  17.416  0.00  0.00    +0.000 A 
ATOM      6  N   UNL     1      51.690   3.638  17.411  0.00  0.00    +0.000 NA
ENDROOT
BRANCH   1   7
ATOM      7  C   UNL     1      51.859   1.183  17.392  0.00  0.00    +0.000 C 
BRANCH   7   8
ATOM      8  N   UNL     1      52.750   1.137  18.549  0.00  0.00    +0.000 NA
ATOM      9  H   UNL     1      52.631   2.027  19.038  0.00  0.00    +0.000 HD
BRANCH   8  10
ATOM     10  C   UNL     1      54.182   0.986  18.203  0.00  0.00    +0.000 C 
BRANCH  10  11
ATOM     11  C   UNL     1      54.470  -0.454  17.748  0.00  0.00    +0.000 A 
ATOM     12  C   UNL     1      54.888  -0.718  16.439  0.00  0.00    +0.000 A 
ATOM     13  C   UNL     1      55.118  -2.034  16.046  0.00  0.00    +0.000 A 
ATOM     14  C   UNL     1      54.943  -3.054  16.969  0.00  0.00    +0.000 A 
ATOM     15  C   UNL     1      54.545  -2.715  18.251  0.00  0.00    +0.000 A 
ATOM     16  N   UNL     1      54.309  -1.446  18.662  0.00  0.00    +0.000 NA
ENDBRANCH  10  11
BRANCH  10  17
ATOM     17  C   UNL     1      54.705   1.952  17.086  0.00  0.00    +0.000 C 
BRANCH  17  18
ATOM     18  N   UNL     1      54.799   3.379  17.447  0.00  0.00    +0.000 NA
ATOM     19  H   UNL     1      55.587   3.515  18.078  0.00  0.00    +0.000 HD
ATOM     20  H   UNL     1      53.960   3.659  17.951  0.00  0.00    +0.000 HD
ENDBRANCH  17  18
ENDBRANCH  10  17
ENDBRANCH   8  10
ENDBRANCH   7   8
ENDBRANCH   1   7
BRANCH   4  21
ATOM     21  C   UNL     1      48.780   6.053  17.319  0.00  0.00    +0.000 C 
BRANCH  21  22
ATOM     22  N   UNL     1      47.933   6.033  16.156  0.00  0.00    +0.000 N 
ATOM     23  C   UNL     1      48.389   6.346  14.905  0.00  0.00    +0.000 C 
ATOM     24  O   UNL     1      49.562   6.631  14.686  0.00  0.00    +0.000 OA
ATOM     25  H   UNL     1      46.934   6.042  16.329  0.00  0.00    +0.000 HD
BRANCH  23  26
ATOM     26  C   UNL     1      47.395   6.244  13.825  0.00  0.00    +0.000 A 
ATOM     27  C   UNL     1      46.999   7.383  13.140  0.00  0.00    +0.000 A 
ATOM     28  S   UNL     1      45.920   7.062  11.857  0.00  0.00    +0.000 S 
ATOM     29  C   UNL     1      45.906   5.398  12.208  0.00  0.00    +0.000 A 
ATOM     30  N   UNL     1      45.159   4.528  11.470  0.00  0.00    +0.000 NA
ATOM     31  C   UNL     1      45.231   3.299  11.862  0.00  0.00    +0.000 A 
ATOM     32  N   UNL     1      45.972   2.861  12.929  0.00  0.00    +0.000 N 
ATOM     33  C   UNL     1      46.742   3.696  13.694  0.00  0.00    +0.000 A 
ATOM     34  O   UNL     1      47.410   3.266  14.632  0.00  0.00    +0.000 OA
ATOM     35  C   UNL     1      46.714   5.091  13.290  0.00  0.00    +0.000 A 
ATOM     36  H   UNL     1      45.984   1.883  13.186  0.00  0.00    +0.000 HD
ENDBRANCH  23  26
ENDBRANCH  21  22
ENDBRANCH   4  21
TORSDOF 9
ENDMDL
