MODEL 1
REMARK VINA RESULT:    -8.980      0.000      0.000
REMARK INTER + INTRA:         -13.007
REMARK INTER:                 -12.129
REMARK INTRA:                  -0.877
REMARK UNBOUND:                -0.877
REMARK  Name = 
REMARK  6 active torsions:
REMARK  status: ('A' for Active; 'I' for Inactive)
REMARK    1  A    between atoms: C_2  and  C_4
REMARK    2  A    between atoms: N_8  and  C_9
REMARK    3  A    between atoms: C_9  and  C_10
REMARK    4  A    between atoms: C_10  and  C_11
REMARK    5  A    between atoms: C_15  and  O_16
REMARK    6  A    between atoms: O_16  and  C_17
REMARK                            x       y       z     vdW  Elec       q    Type
REMARK                         _______ _______ _______ _____ _____    ______ ____
ROOT
ATOM      1  C   UNL     1      46.510   2.543   7.700  0.00  0.00    +0.000 A 
ATOM      2  C   UNL     1      45.641   1.883   8.560  0.00  0.00    +0.000 A 
ATOM      3  C   UNL     1      44.721   2.629   9.295  0.00  0.00    +0.000 A 
ATOM      4  C   UNL     1      44.697   4.017   9.180  0.00  0.00    +0.000 A 
ATOM      5  N   UNL     1      43.751   4.806   9.821  0.00  0.00    +0.000 N 
ATOM      6  N   UNL     1      45.558   4.669   8.375  0.00  0.00    +0.000 NA
ATOM      7  C   UNL     1      46.449   3.927   7.658  0.00  0.00    +0.000 A 
ATOM      8  H   UNL     1      44.045   5.774   9.715  0.00  0.00    +0.000 HD
ENDROOT
BRANCH   1  10
ATOM      9  N   UNL     1      48.592   2.516   6.455  0.00  0.00    +0.000 N 
ATOM     10  C   UNL     1      47.476   1.824   6.844  0.00  0.00    +0.000 C 
ATOM     11  O   UNL     1      47.309   0.655   6.532  0.00  0.00    +0.000 OA
ATOM     12  H   UNL     1      49.299   1.988   5.959  0.00  0.00    +0.000 HD
ATOM     13  H   UNL     1      48.880   3.375   6.898  0.00  0.00    +0.000 HD
ENDBRANCH   1  10
BRANCH   5  14
ATOM     14  C   UNL     1      43.290   4.404  11.146  0.00  0.00    +0.000 C 
BRANCH  14  15
ATOM     15  C   UNL     1      43.463   5.536  12.163  0.00  0.00    +0.000 C 
BRANCH  15  16
ATOM     16  C   UNL     1      44.892   5.604  12.660  0.00  0.00    +0.000 A 
ATOM     17  C   UNL     1      45.684   6.731  12.407  0.00  0.00    +0.000 A 
ATOM     18  C   UNL     1      46.983   6.808  12.911  0.00  0.00    +0.000 A 
ATOM     19  C   UNL     1      47.510   5.762  13.675  0.00  0.00    +0.000 A 
ATOM     20  C   UNL     1      46.733   4.636  13.930  0.00  0.00    +0.000 A 
ATOM     21  C   UNL     1      45.427   4.564  13.432  0.00  0.00    +0.000 A 
BRANCH  20  22
ATOM     22  O   UNL     1      47.130   3.567  14.694  0.00  0.00    +0.000 OA
BRANCH  22  23
ATOM     23  C   UNL     1      47.926   3.801  15.878  0.00  0.00    +0.000 C 
ATOM     24  C   UNL     1      48.460   2.556  16.622  0.00  0.00    +0.000 C 
ATOM     25  C   UNL     1      47.917   3.123  17.939  0.00  0.00    +0.000 C 
ATOM     26  C   UNL     1      47.094   4.137  17.138  0.00  0.00    +0.000 C 
ENDBRANCH  22  23
ENDBRANCH  20  22
ENDBRANCH  15  16
ENDBRANCH  14  15
ENDBRANCH   5  14
TORSDOF 6
ENDMDL
MODEL 2
REMARK VINA RESULT:    -8.414      1.831      3.481
REMARK INTER + INTRA:         -12.242
REMARK INTER:                 -11.343
REMARK INTRA:                  -0.899
REMARK UNBOUND:                -0.877
REMARK  Name = 
REMARK  6 active torsions:
REMARK  status: ('A' for Active; 'I' for Inactive)
REMARK    1  A    between atoms: C_2  and  C_4
REMARK    2  A    between atoms: N_8  and  C_9
REMARK    3  A    between atoms: C_9  and  C_10
REMARK    4  A    between atoms: C_10  and  C_11
REMARK    5  A    between atoms: C_15  and  O_16
REMARK    6  A    between atoms: O_16  and  C_17
REMARK                            x       y       z     vdW  Elec       q    Type
REMARK                         _______ _______ _______ _____ _____    ______ ____
ROOT
ATOM      1  C   UNL     1      46.468   2.513   7.716  0.00  0.00    +0.000 A 
ATOM      2  C   UNL     1      45.624   1.855   8.603  0.00  0.00    +0.000 A 
ATOM      3  C   UNL     1      44.696   2.598   9.330  0.00  0.00    +0.000 A 
ATOM      4  C   UNL     1      44.639   3.982   9.181  0.00  0.00    +0.000 A 
ATOM      5  N   UNL     1      43.683   4.766   9.813  0.00  0.00    +0.000 N 
ATOM      6  N   UNL     1      45.477   4.633   8.350  0.00  0.00    +0.000 NA
ATOM      7  C   UNL     1      46.376   3.893   7.641  0.00  0.00    +0.000 A 
ATOM      8  H   UNL     1      43.953   5.737   9.680  0.00  0.00    +0.000 HD
ENDROOT
BRANCH   1  10
ATOM      9  N   UNL     1      48.509   2.515   6.404  0.00  0.00    +0.000 N 
ATOM     10  C   UNL     1      47.441   1.794   6.868  0.00  0.00    +0.000 C 
ATOM     11  O   UNL     1      47.322   0.604   6.623  0.00  0.00    +0.000 OA
ATOM     12  H   UNL     1      49.225   1.995   5.913  0.00  0.00    +0.000 HD
ATOM     13  H   UNL     1      48.768   3.411   6.791  0.00  0.00    +0.000 HD
ENDBRANCH   1  10
BRANCH   5  14
ATOM     14  C   UNL     1      43.245   4.387  11.153  0.00  0.00    +0.000 C 
BRANCH  14  15
ATOM     15  C   UNL     1      43.389   5.552  12.136  0.00  0.00    +0.000 C 
BRANCH  15  16
ATOM     16  C   UNL     1      44.784   5.600  12.720  0.00  0.00    +0.000 A 
ATOM     17  C   UNL     1      45.362   4.456  13.285  0.00  0.00    +0.000 A 
ATOM     18  C   UNL     1      46.669   4.494  13.776  0.00  0.00    +0.000 A 
ATOM     19  C   UNL     1      47.416   5.674  13.711  0.00  0.00    +0.000 A 
ATOM     20  C   UNL     1      46.849   6.818  13.155  0.00  0.00    +0.000 A 
ATOM     21  C   UNL     1      45.544   6.777  12.653  0.00  0.00    +0.000 A 
BRANCH  20  22
ATOM     22  O   UNL     1      47.498   8.019  13.005  0.00  0.00    +0.000 OA
BRANCH  22  23
ATOM     23  C   UNL     1      48.312   8.242  11.832  0.00  0.00    +0.000 C 
ATOM     24  C   UNL     1      49.745   7.665  11.852  0.00  0.00    +0.000 C 
ATOM     25  C   UNL     1      50.291   9.030  11.416  0.00  0.00    +0.000 C 
ATOM     26  C   UNL     1      48.936   9.656  11.760  0.00  0.00    +0.000 C 
ENDBRANCH  22  23
ENDBRANCH  20  22
ENDBRANCH  15  16
ENDBRANCH  14  15
ENDBRANCH   5  14
TORSDOF 6
ENDMDL
MODEL 3
REMARK VINA RESULT:    -7.841      2.436      4.491
REMARK INTER + INTRA:         -11.468
REMARK INTER:                 -10.902
REMARK INTRA:                  -0.566
REMARK UNBOUND:                -0.877
REMARK  Name = 
REMARK  6 active torsions:
REMARK  status: ('A' for Active; 'I' for Inactive)
REMARK    1  A    between atoms: C_2  and  C_4
REMARK    2  A    between atoms: N_8  and  C_9
REMARK    3  A    between atoms: C_9  and  C_10
REMARK    4  A    between atoms: C_10  and  C_11
REMARK    5  A    between atoms: C_15  and  O_16
REMARK    6  A    between atoms: O_16  and  C_17
REMARK                            x       y       z     vdW  Elec       q    Type
REMARK                         _______ _______ _______ _____ _____    ______ ____
ROOT
ATOM      1  C   UNL     1      46.493   2.545   7.748  0.00  0.00    +0.000 A 
ATOM      2  C   UNL     1      45.694   1.828   8.630  0.00  0.00    +0.000 A 
ATOM      3  C   UNL     1      44.747   2.511   9.391  0.00  0.00    +0.000 A 
ATOM      4  C   UNL     1      44.626   3.894   9.280  0.00  0.00    +0.000 A 
ATOM      5  N   UNL     1      43.648   4.618   9.948  0.00  0.00    +0.000 N 
ATOM      6  N   UNL     1      45.421   4.602   8.454  0.00  0.00    +0.000 NA
ATOM      7  C   UNL     1      46.340   3.922   7.711  0.00  0.00    +0.000 A 
ATOM      8  H   UNL     1      43.873   5.603   9.837  0.00  0.00    +0.000 HD
ENDROOT
BRANCH   1  10
ATOM      9  N   UNL     1      48.552   2.649   6.469  0.00  0.00    +0.000 N 
ATOM     10  C   UNL     1      47.482   1.892   6.865  0.00  0.00    +0.000 C 
ATOM     11  O   UNL     1      47.373   0.722   6.536  0.00  0.00    +0.000 OA
ATOM     12  H   UNL     1      49.278   2.168   5.953  0.00  0.00    +0.000 HD
ATOM     13  H   UNL     1      48.801   3.517   6.921  0.00  0.00    +0.000 HD
ENDBRANCH   1  10
BRANCH   5  14
ATOM     14  C   UNL     1      43.250   4.185  11.284  0.00  0.00    +0.000 C 
BRANCH  14  15
ATOM     15  C   UNL     1      43.211   5.363  12.262  0.00  0.00    +0.000 C 
BRANCH  15  16
ATOM     16  C   UNL     1      44.592   5.952  12.456  0.00  0.00    +0.000 A 
ATOM     17  C   UNL     1      45.676   5.135  12.801  0.00  0.00    +0.000 A 
ATOM     18  C   UNL     1      46.956   5.677  12.929  0.00  0.00    +0.000 A 
ATOM     19  C   UNL     1      47.172   7.042  12.716  0.00  0.00    +0.000 A 
ATOM     20  C   UNL     1      46.101   7.864  12.377  0.00  0.00    +0.000 A 
ATOM     21  C   UNL     1      44.820   7.318  12.238  0.00  0.00    +0.000 A 
BRANCH  20  22
ATOM     22  O   UNL     1      46.199   9.207  12.109  0.00  0.00    +0.000 OA
BRANCH  22  23
ATOM     23  C   UNL     1      44.993   9.991  11.972  0.00  0.00    +0.000 C 
ATOM     24  C   UNL     1      44.273   9.939  10.605  0.00  0.00    +0.000 C 
ATOM     25  C   UNL     1      44.227  11.471  10.582  0.00  0.00    +0.000 C 
ATOM     26  C   UNL     1      45.247  11.497  11.725  0.00  0.00    +0.000 C 
ENDBRANCH  22  23
ENDBRANCH  20  22
ENDBRANCH  15  16
ENDBRANCH  14  15
ENDBRANCH   5  14
TORSDOF 6
ENDMDL
MODEL 4
REMARK VINA RESULT:    -7.220      3.216      7.911
REMARK INTER + INTRA:         -10.629
REMARK INTER:                  -9.763
REMARK INTRA:                  -0.867
REMARK UNBOUND:                -0.877
REMARK  Name = 
REMARK  6 active torsions:
REMARK  status: ('A' for Active; 'I' for Inactive)
REMARK    1  A    between atoms: C_2  and  C_4
REMARK    2  A    between atoms: N_8  and  C_9
REMARK    3  A    between atoms: C_9  and  C_10
REMARK    4  A    between atoms: C_10  and  C_11
REMARK    5  A    between atoms: C_15  and  O_16
REMARK    6  A    between atoms: O_16  and  C_17
REMARK                            x       y       z     vdW  Elec       q    Type
REMARK                         _______ _______ _______ _____ _____    ______ ____
ROOT
ATOM      1  C   UNL     1      48.239   4.292  16.610  0.00  0.00    +0.000 A 
ATOM      2  C   UNL     1      47.181   3.878  15.810  0.00  0.00    +0.000 A 
ATOM      3  C   UNL     1      46.836   4.644  14.698  0.00  0.00    +0.000 A 
ATOM      4  C   UNL     1      47.530   5.818  14.415  0.00  0.00    +0.000 A 
ATOM      5  N   UNL     1      47.289   6.578  13.278  0.00  0.00    +0.000 N 
ATOM      6  N   UNL     1      48.535   6.246  15.205  0.00  0.00    +0.000 NA
ATOM      7  C   UNL     1      48.866   5.485  16.286  0.00  0.00    +0.000 A 
ATOM      8  H   UNL     1      47.796   7.453  13.387  0.00  0.00    +0.000 HD
ENDROOT
BRANCH   1  10
ATOM      9  N   UNL     1      48.039   3.701  18.955  0.00  0.00    +0.000 N 
ATOM     10  C   UNL     1      48.705   3.509  17.774  0.00  0.00    +0.000 C 
ATOM     11  O   UNL     1      49.614   2.700  17.679  0.00  0.00    +0.000 OA
ATOM     12  H   UNL     1      48.292   3.087  19.719  0.00  0.00    +0.000 HD
ATOM     13  H   UNL     1      47.140   4.157  19.004  0.00  0.00    +0.000 HD
ENDBRANCH   1  10
BRANCH   5  14
ATOM     14  C   UNL     1      45.920   6.673  12.782  0.00  0.00    +0.000 C 
BRANCH  14  15
ATOM     15  C   UNL     1      45.874   6.582  11.253  0.00  0.00    +0.000 C 
BRANCH  15  16
ATOM     16  C   UNL     1      45.344   5.237  10.805  0.00  0.00    +0.000 A 
ATOM     17  C   UNL     1      44.607   4.431  11.682  0.00  0.00    +0.000 A 
ATOM     18  C   UNL     1      44.078   3.214  11.246  0.00  0.00    +0.000 A 
ATOM     19  C   UNL     1      44.278   2.786   9.931  0.00  0.00    +0.000 A 
ATOM     20  C   UNL     1      45.013   3.577   9.052  0.00  0.00    +0.000 A 
ATOM     21  C   UNL     1      45.534   4.801   9.486  0.00  0.00    +0.000 A 
BRANCH  20  22
ATOM     22  O   UNL     1      45.242   3.277   7.732  0.00  0.00    +0.000 OA
BRANCH  22  23
ATOM     23  C   UNL     1      46.597   3.289   7.229  0.00  0.00    +0.000 C 
ATOM     24  C   UNL     1      46.776   3.252   5.694  0.00  0.00    +0.000 C 
ATOM     25  C   UNL     1      47.774   2.098   5.848  0.00  0.00    +0.000 C 
ATOM     26  C   UNL     1      47.304   1.915   7.295  0.00  0.00    +0.000 C 
ENDBRANCH  22  23
ENDBRANCH  20  22
ENDBRANCH  15  16
ENDBRANCH  14  15
ENDBRANCH   5  14
TORSDOF 6
ENDMDL
MODEL 5
REMARK VINA RESULT:    -7.106      2.355      2.904
REMARK INTER + INTRA:         -10.476
REMARK INTER:                  -9.725
REMARK INTRA:                  -0.751
REMARK UNBOUND:                -0.877
REMARK  Name = 
REMARK  6 active torsions:
REMARK  status: ('A' for Active; 'I' for Inactive)
REMARK    1  A    between atoms: C_2  and  C_4
REMARK    2  A    between atoms: N_8  and  C_9
REMARK    3  A    between atoms: C_9  and  C_10
REMARK    4  A    between atoms: C_10  and  C_11
REMARK    5  A    between atoms: C_15  and  O_16
REMARK    6  A    between atoms: O_16  and  C_17
REMARK                            x       y       z     vdW  Elec       q    Type
REMARK                         _______ _______ _______ _____ _____    ______ ____
ROOT
ATOM      1  C   UNL     1      46.505   2.639   7.434  0.00  0.00    +0.000 A 
ATOM      2  C   UNL     1      46.141   3.866   7.974  0.00  0.00    +0.000 A 
ATOM      3  C   UNL     1      45.368   3.891   9.134  0.00  0.00    +0.000 A 
ATOM      4  C   UNL     1      44.952   2.700   9.722  0.00  0.00    +0.000 A 
ATOM      5  N   UNL     1      44.253   2.658  10.922  0.00  0.00    +0.000 N 
ATOM      6  N   UNL     1      45.270   1.505   9.186  0.00  0.00    +0.000 NA
ATOM      7  C   UNL     1      46.030   1.494   8.054  0.00  0.00    +0.000 A 
ATOM      8  H   UNL     1      43.927   1.704  11.047  0.00  0.00    +0.000 HD
ENDROOT
BRANCH   1  10
ATOM      9  N   UNL     1      47.063   3.331   5.177  0.00  0.00    +0.000 N 
ATOM     10  C   UNL     1      47.367   2.523   6.240  0.00  0.00    +0.000 C 
ATOM     11  O   UNL     1      48.330   1.773   6.216  0.00  0.00    +0.000 OA
ATOM     12  H   UNL     1      47.718   3.325   4.405  0.00  0.00    +0.000 HD
ATOM     13  H   UNL     1      46.449   4.127   5.258  0.00  0.00    +0.000 HD
ENDBRANCH   1  10
BRANCH   5  14
ATOM     14  C   UNL     1      43.294   3.721  11.206  0.00  0.00    +0.000 C 
BRANCH  14  15
ATOM     15  C   UNL     1      43.640   4.450  12.507  0.00  0.00    +0.000 C 
BRANCH  15  16
ATOM     16  C   UNL     1      44.724   5.482  12.278  0.00  0.00    +0.000 A 
ATOM     17  C   UNL     1      44.430   6.700  11.653  0.00  0.00    +0.000 A 
ATOM     18  C   UNL     1      45.423   7.668  11.491  0.00  0.00    +0.000 A 
ATOM     19  C   UNL     1      46.723   7.433  11.950  0.00  0.00    +0.000 A 
ATOM     20  C   UNL     1      47.027   6.224  12.570  0.00  0.00    +0.000 A 
ATOM     21  C   UNL     1      46.028   5.259  12.741  0.00  0.00    +0.000 A 
BRANCH  20  22
ATOM     22  O   UNL     1      48.254   5.898  13.091  0.00  0.00    +0.000 OA
BRANCH  22  23
ATOM     23  C   UNL     1      48.816   6.714  14.143  0.00  0.00    +0.000 C 
ATOM     24  C   UNL     1      47.945   7.878  14.669  0.00  0.00    +0.000 C 
ATOM     25  C   UNL     1      49.132   8.833  14.492  0.00  0.00    +0.000 C 
ATOM     26  C   UNL     1      49.834   7.767  13.645  0.00  0.00    +0.000 C 
ENDBRANCH  22  23
ENDBRANCH  20  22
ENDBRANCH  15  16
ENDBRANCH  14  15
ENDBRANCH   5  14
TORSDOF 6
ENDMDL
MODEL 6
REMARK VINA RESULT:    -7.045      3.142      7.236
REMARK INTER + INTRA:         -10.393
REMARK INTER:                  -9.644
REMARK INTRA:                  -0.749
REMARK UNBOUND:                -0.877
REMARK  Name = 
REMARK  6 active torsions:
REMARK  status: ('A' for Active; 'I' for Inactive)
REMARK    1  A    between atoms: C_2  and  C_4
REMARK    2  A    between atoms: N_8  and  C_9
REMARK    3  A    between atoms: C_9  and  C_10
REMARK    4  A    between atoms: C_10  and  C_11
REMARK    5  A    between atoms: C_15  and  O_16
REMARK    6  A    between atoms: O_16  and  C_17
REMARK                            x       y       z     vdW  Elec       q    Type
REMARK                         _______ _______ _______ _____ _____    ______ ____
ROOT
ATOM      1  C   UNL     1      47.620   4.195  15.980  0.00  0.00    +0.000 A 
ATOM      2  C   UNL     1      47.147   3.839  14.722  0.00  0.00    +0.000 A 
ATOM      3  C   UNL     1      47.321   4.724  13.660  0.00  0.00    +0.000 A 
ATOM      4  C   UNL     1      47.940   5.954  13.869  0.00  0.00    +0.000 A 
ATOM      5  N   UNL     1      48.217   6.841  12.837  0.00  0.00    +0.000 N 
ATOM      6  N   UNL     1      48.370   6.323  15.092  0.00  0.00    +0.000 NA
ATOM      7  C   UNL     1      48.199   5.446  16.121  0.00  0.00    +0.000 A 
ATOM      8  H   UNL     1      48.510   7.716  13.262  0.00  0.00    +0.000 HD
ENDROOT
BRANCH   1  10
ATOM      9  N   UNL     1      48.697   2.984  17.785  0.00  0.00    +0.000 N 
ATOM     10  C   UNL     1      47.526   3.292  17.146  0.00  0.00    +0.000 C 
ATOM     11  O   UNL     1      46.451   2.874  17.547  0.00  0.00    +0.000 OA
ATOM     12  H   UNL     1      48.615   2.453  18.643  0.00  0.00    +0.000 HD
ATOM     13  H   UNL     1      49.548   3.506  17.641  0.00  0.00    +0.000 HD
ENDBRANCH   1  10
BRANCH   5  14
ATOM     14  C   UNL     1      47.272   6.936  11.728  0.00  0.00    +0.000 C 
BRANCH  14  15
ATOM     15  C   UNL     1      45.863   7.271  12.226  0.00  0.00    +0.000 C 
BRANCH  15  16
ATOM     16  C   UNL     1      44.906   6.130  11.955  0.00  0.00    +0.000 A 
ATOM     17  C   UNL     1      43.878   5.829  12.857  0.00  0.00    +0.000 A 
ATOM     18  C   UNL     1      42.969   4.807  12.576  0.00  0.00    +0.000 A 
ATOM     19  C   UNL     1      43.073   4.072  11.392  0.00  0.00    +0.000 A 
ATOM     20  C   UNL     1      44.094   4.361  10.489  0.00  0.00    +0.000 A 
ATOM     21  C   UNL     1      44.998   5.391  10.767  0.00  0.00    +0.000 A 
BRANCH  20  22
ATOM     22  O   UNL     1      44.272   3.732   9.282  0.00  0.00    +0.000 OA
BRANCH  22  23
ATOM     23  C   UNL     1      45.599   3.311   8.893  0.00  0.00    +0.000 C 
ATOM     24  C   UNL     1      46.024   3.592   7.434  0.00  0.00    +0.000 C 
ATOM     25  C   UNL     1      46.470   2.131   7.293  0.00  0.00    +0.000 C 
ATOM     26  C   UNL     1      45.713   1.800   8.584  0.00  0.00    +0.000 C 
ENDBRANCH  22  23
ENDBRANCH  20  22
ENDBRANCH  15  16
ENDBRANCH  14  15
ENDBRANCH   5  14
TORSDOF 6
ENDMDL
MODEL 7
REMARK VINA RESULT:    -6.865      3.831      8.536
REMARK INTER + INTRA:         -10.150
REMARK INTER:                  -9.512
REMARK INTRA:                  -0.638
REMARK UNBOUND:                -0.877
REMARK  Name = 
REMARK  6 active torsions:
REMARK  status: ('A' for Active; 'I' for Inactive)
REMARK    1  A    between atoms: C_2  and  C_4
REMARK    2  A    between atoms: N_8  and  C_9
REMARK    3  A    between atoms: C_9  and  C_10
REMARK    4  A    between atoms: C_10  and  C_11
REMARK    5  A    between atoms: C_15  and  O_16
REMARK    6  A    between atoms: O_16  and  C_17
REMARK                            x       y       z     vdW  Elec       q    Type
REMARK                         _______ _______ _______ _____ _____    ______ ____
ROOT
ATOM      1  C   UNL     1      48.620   4.579  18.468  0.00  0.00    +0.000 A 
ATOM      2  C   UNL     1      48.765   5.673  17.624  0.00  0.00    +0.000 A 
ATOM      3  C   UNL     1      48.154   5.645  16.372  0.00  0.00    +0.000 A 
ATOM      4  C   UNL     1      47.431   4.524  15.971  0.00  0.00    +0.000 A 
ATOM      5  N   UNL     1      46.731   4.470  14.773  0.00  0.00    +0.000 N 
ATOM      6  N   UNL     1      47.315   3.444  16.769  0.00  0.00    +0.000 NA
ATOM      7  C   UNL     1      47.913   3.486  17.993  0.00  0.00    +0.000 A 
ATOM      8  H   UNL     1      46.435   3.507  14.640  0.00  0.00    +0.000 HD
ENDROOT
BRANCH   1  10
ATOM      9  N   UNL     1      48.317   4.305  20.860  0.00  0.00    +0.000 N 
ATOM     10  C   UNL     1      49.188   4.550  19.832  0.00  0.00    +0.000 C 
ATOM     11  O   UNL     1      50.383   4.698  20.031  0.00  0.00    +0.000 OA
ATOM     12  H   UNL     1      48.726   4.181  21.777  0.00  0.00    +0.000 HD
ATOM     13  H   UNL     1      47.392   3.930  20.709  0.00  0.00    +0.000 HD
ENDBRANCH   1  10
BRANCH   5  14
ATOM     14  C   UNL     1      47.291   5.148  13.608  0.00  0.00    +0.000 C 
BRANCH  14  15
ATOM     15  C   UNL     1      46.339   6.226  13.081  0.00  0.00    +0.000 C 
BRANCH  15  16
ATOM     16  C   UNL     1      45.337   5.637  12.112  0.00  0.00    +0.000 A 
ATOM     17  C   UNL     1      44.023   5.369  12.516  0.00  0.00    +0.000 A 
ATOM     18  C   UNL     1      43.091   4.873  11.603  0.00  0.00    +0.000 A 
ATOM     19  C   UNL     1      43.457   4.637  10.274  0.00  0.00    +0.000 A 
ATOM     20  C   UNL     1      44.761   4.897   9.862  0.00  0.00    +0.000 A 
ATOM     21  C   UNL     1      45.692   5.403  10.775  0.00  0.00    +0.000 A 
BRANCH  20  22
ATOM     22  O   UNL     1      45.223   4.739   8.579  0.00  0.00    +0.000 OA
BRANCH  22  23
ATOM     23  C   UNL     1      45.154   3.436   7.958  0.00  0.00    +0.000 C 
ATOM     24  C   UNL     1      45.389   2.210   8.870  0.00  0.00    +0.000 C 
ATOM     25  C   UNL     1      46.412   1.669   7.863  0.00  0.00    +0.000 C 
ATOM     26  C   UNL     1      46.434   3.042   7.182  0.00  0.00    +0.000 C 
ENDBRANCH  22  23
ENDBRANCH  20  22
ENDBRANCH  15  16
ENDBRANCH  14  15
ENDBRANCH   5  14
TORSDOF 6
ENDMDL
MODEL 8
REMARK VINA RESULT:    -6.492      4.281      8.436
REMARK INTER + INTRA:          -9.646
REMARK INTER:                  -8.998
REMARK INTRA:                  -0.649
REMARK UNBOUND:                -0.877
REMARK  Name = 
REMARK  6 active torsions:
REMARK  status: ('A' for Active; 'I' for Inactive)
REMARK    1  A    between atoms: C_2  and  C_4
REMARK    2  A    between atoms: N_8  and  C_9
REMARK    3  A    between atoms: C_9  and  C_10
REMARK    4  A    between atoms: C_10  and  C_11
REMARK    5  A    between atoms: C_15  and  O_16
REMARK    6  A    between atoms: O_16  and  C_17
REMARK                            x       y       z     vdW  Elec       q    Type
REMARK                         _______ _______ _______ _____ _____    ______ ____
ROOT
ATOM      1  C   UNL     1      50.885   3.160  17.729  0.00  0.00    +0.000 A 
ATOM      2  C   UNL     1      50.144   4.335  17.738  0.00  0.00    +0.000 A 
ATOM      3  C   UNL     1      48.936   4.378  17.044  0.00  0.00    +0.000 A 
ATOM      4  C   UNL     1      48.498   3.262  16.335  0.00  0.00    +0.000 A 
ATOM      5  N   UNL     1      47.266   3.215  15.695  0.00  0.00    +0.000 N 
ATOM      6  N   UNL     1      49.226   2.129  16.291  0.00  0.00    +0.000 NA
ATOM      7  C   UNL     1      50.403   2.099  16.979  0.00  0.00    +0.000 A 
ATOM      8  H   UNL     1      47.256   2.375  15.122  0.00  0.00    +0.000 HD
ENDROOT
BRANCH   1  10
ATOM      9  N   UNL     1      52.343   3.870  19.533  0.00  0.00    +0.000 N 
ATOM     10  C   UNL     1      52.147   3.013  18.483  0.00  0.00    +0.000 C 
ATOM     11  O   UNL     1      52.959   2.143  18.211  0.00  0.00    +0.000 OA
ATOM     12  H   UNL     1      53.157   3.697  20.110  0.00  0.00    +0.000 HD
ATOM     13  H   UNL     1      51.595   4.415  19.936  0.00  0.00    +0.000 HD
ENDBRANCH   1  10
BRANCH   5  14
ATOM     14  C   UNL     1      46.756   4.435  15.077  0.00  0.00    +0.000 C 
BRANCH  14  15
ATOM     15  C   UNL     1      46.940   4.407  13.557  0.00  0.00    +0.000 C 
BRANCH  15  16
ATOM     16  C   UNL     1      45.611   4.239  12.852  0.00  0.00    +0.000 A 
ATOM     17  C   UNL     1      44.436   4.760  13.408  0.00  0.00    +0.000 A 
ATOM     18  C   UNL     1      43.222   4.645  12.728  0.00  0.00    +0.000 A 
ATOM     19  C   UNL     1      43.164   4.009  11.485  0.00  0.00    +0.000 A 
ATOM     20  C   UNL     1      44.326   3.484  10.924  0.00  0.00    +0.000 A 
ATOM     21  C   UNL     1      45.544   3.608  11.602  0.00  0.00    +0.000 A 
BRANCH  20  22
ATOM     22  O   UNL     1      44.396   2.872   9.697  0.00  0.00    +0.000 OA
BRANCH  22  23
ATOM     23  C   UNL     1      45.641   2.900   8.964  0.00  0.00    +0.000 C 
ATOM     24  C   UNL     1      45.615   3.548   7.561  0.00  0.00    +0.000 C 
ATOM     25  C   UNL     1      46.316   2.311   6.986  0.00  0.00    +0.000 C 
ATOM     26  C   UNL     1      45.998   1.558   8.282  0.00  0.00    +0.000 C 
ENDBRANCH  22  23
ENDBRANCH  20  22
ENDBRANCH  15  16
ENDBRANCH  14  15
ENDBRANCH   5  14
TORSDOF 6
ENDMDL
MODEL 9
REMARK VINA RESULT:    -6.421      3.641      7.140
REMARK INTER + INTRA:          -9.550
REMARK INTER:                  -9.409
REMARK INTRA:                  -0.142
REMARK UNBOUND:                -0.877
REMARK  Name = 
REMARK  6 active torsions:
REMARK  status: ('A' for Active; 'I' for Inactive)
REMARK    1  A    between atoms: C_2  and  C_4
REMARK    2  A    between atoms: N_8  and  C_9
REMARK    3  A    between atoms: C_9  and  C_10
REMARK    4  A    between atoms: C_10  and  C_11
REMARK    5  A    between atoms: C_15  and  O_16
REMARK    6  A    between atoms: O_16  and  C_17
REMARK                            x       y       z     vdW  Elec       q    Type
REMARK                         _______ _______ _______ _____ _____    ______ ____
ROOT
ATOM      1  C   UNL     1      47.646   8.221  12.128  0.00  0.00    +0.000 A 
ATOM      2  C   UNL     1      46.333   8.654  12.266  0.00  0.00    +0.000 A 
ATOM      3  C   UNL     1      45.350   7.729  12.614  0.00  0.00    +0.000 A 
ATOM      4  C   UNL     1      45.684   6.389  12.797  0.00  0.00    +0.000 A 
ATOM      5  N   UNL     1      44.768   5.438  13.225  0.00  0.00    +0.000 N 
ATOM      6  N   UNL     1      46.949   5.954  12.631  0.00  0.00    +0.000 NA
ATOM      7  C   UNL     1      47.901   6.870  12.296  0.00  0.00    +0.000 A 
ATOM      8  H   UNL     1      45.207   4.527  13.119  0.00  0.00    +0.000 HD
ENDROOT
BRANCH   1  10
ATOM      9  N   UNL     1      49.995   8.588  11.642  0.00  0.00    +0.000 N 
ATOM     10  C   UNL     1      48.756   9.146  11.816  0.00  0.00    +0.000 C 
ATOM     11  O   UNL     1      48.572  10.345  11.680  0.00  0.00    +0.000 OA
ATOM     12  H   UNL     1      50.728   9.210  11.326  0.00  0.00    +0.000 HD
ATOM     13  H   UNL     1      50.129   7.599  11.495  0.00  0.00    +0.000 HD
ENDBRANCH   1  10
BRANCH   5  14
ATOM     14  C   UNL     1      43.383   5.554  12.777  0.00  0.00    +0.000 C 
BRANCH  14  15
ATOM     15  C   UNL     1      43.303   5.720  11.257  0.00  0.00    +0.000 C 
BRANCH  15  16
ATOM     16  C   UNL     1      43.772   4.467  10.549  0.00  0.00    +0.000 A 
ATOM     17  C   UNL     1      43.619   3.209  11.144  0.00  0.00    +0.000 A 
ATOM     18  C   UNL     1      44.008   2.054  10.464  0.00  0.00    +0.000 A 
ATOM     19  C   UNL     1      44.556   2.138   9.180  0.00  0.00    +0.000 A 
ATOM     20  C   UNL     1      44.717   3.385   8.581  0.00  0.00    +0.000 A 
ATOM     21  C   UNL     1      44.317   4.541   9.259  0.00  0.00    +0.000 A 
BRANCH  20  22
ATOM     22  O   UNL     1      45.209   3.587   7.315  0.00  0.00    +0.000 OA
BRANCH  22  23
ATOM     23  C   UNL     1      46.621   3.408   7.068  0.00  0.00    +0.000 C 
ATOM     24  C   UNL     1      47.057   3.202   5.599  0.00  0.00    +0.000 C 
ATOM     25  C   UNL     1      47.866   1.971   6.021  0.00  0.00    +0.000 C 
ATOM     26  C   UNL     1      47.136   1.980   7.368  0.00  0.00    +0.000 C 
ENDBRANCH  22  23
ENDBRANCH  20  22
ENDBRANCH  15  16
ENDBRANCH  14  15
ENDBRANCH   5  14
TORSDOF 6
ENDMDL
