MODEL 1
REMARK VINA RESULT:    -8.977      0.000      0.000
REMARK INTER + INTRA:         -12.049
REMARK INTER:                 -11.600
REMARK INTRA:                  -0.448
REMARK UNBOUND:                -0.448
REMARK  Name = 
REMARK  5 active torsions:
REMARK  status: ('A' for Active; 'I' for Inactive)
REMARK    1  A    between atoms: C_2  and  C_4
REMARK    2  A    between atoms: N_8  and  C_9
REMARK    3  A    between atoms: C_9  and  C_10
REMARK    4  A    between atoms: C_10  and  C_11
REMARK    5  A    between atoms: C_15  and  C_16
REMARK                            x       y       z     vdW  Elec       q    Type
REMARK                         _______ _______ _______ _____ _____    ______ ____
ROOT
ATOM      1  C   UNL     1      43.081   4.574  10.994  0.00  0.00    +0.000 C 
ENDROOT
BRANCH   1   6
ATOM      2  C   UNL     1      46.428   2.504   7.749  0.00  0.00    +0.000 A 
ATOM      3  C   UNL     1      45.650   1.935   8.752  0.00  0.00    +0.000 A 
ATOM      4  C   UNL     1      44.828   2.761   9.514  0.00  0.00    +0.000 A 
ATOM      5  C   UNL     1      44.795   4.134   9.268  0.00  0.00    +0.000 A 
ATOM      6  N   UNL     1      44.002   5.002   9.970  0.00  0.00    +0.000 N 
ATOM      7  N   UNL     1      45.560   4.693   8.312  0.00  0.00    +0.000 NA
ATOM      8  C   UNL     1      46.364   3.877   7.582  0.00  0.00    +0.000 A 
ATOM      9  H   UNL     1      44.072   5.968   9.680  0.00  0.00    +0.000 HD
BRANCH   2  11
ATOM     10  N   UNL     1      48.399   2.348   6.344  0.00  0.00    +0.000 N 
ATOM     11  C   UNL     1      47.318   1.708   6.884  0.00  0.00    +0.000 C 
ATOM     12  O   UNL     1      47.122   0.514   6.686  0.00  0.00    +0.000 OA
ATOM     13  H   UNL     1      49.061   1.767   5.844  0.00  0.00    +0.000 HD
ATOM     14  H   UNL     1      48.731   3.239   6.686  0.00  0.00    +0.000 HD
ENDBRANCH   2  11
ENDBRANCH   1   6
BRANCH   1  15
ATOM     15  C   UNL     1      43.090   5.497  12.212  0.00  0.00    +0.000 C 
BRANCH  15  16
ATOM     16  C   UNL     1      44.495   5.514  12.764  0.00  0.00    +0.000 A 
ATOM     17  C   UNL     1      45.103   4.319  13.156  0.00  0.00    +0.000 A 
ATOM     18  C   UNL     1      46.457   4.298  13.456  0.00  0.00    +0.000 A 
ATOM     19  C   UNL     1      47.208   5.473  13.395  0.00  0.00    +0.000 A 
ATOM     20  C   UNL     1      46.613   6.706  13.088  0.00  0.00    +0.000 A 
ATOM     21  C   UNL     1      45.252   6.697  12.739  0.00  0.00    +0.000 A 
BRANCH  20  22
ATOM     22  C   UNL     1      47.383   8.027  13.068  0.00  0.00    +0.000 C 
ATOM     23  C   UNL     1      48.264   8.280  11.826  0.00  0.00    +0.000 C 
ATOM     24  C   UNL     1      49.534   7.423  11.829  0.00  0.00    +0.000 C 
ATOM     25  N   UNL     1      50.329   7.619  13.039  0.00  0.00    +0.000 NA
ATOM     26  C   UNL     1      49.543   7.358  14.247  0.00  0.00    +0.000 C 
ATOM     27  C   UNL     1      48.277   8.213  14.314  0.00  0.00    +0.000 C 
ATOM     28  H   UNL     1      50.673   8.578  13.063  0.00  0.00    +0.000 HD
ENDBRANCH  20  22
ENDBRANCH  15  16
ENDBRANCH   1  15
TORSDOF 5
ENDMDL
MODEL 2
REMARK VINA RESULT:    -8.372      1.506      2.202
REMARK INTER + INTRA:         -11.268
REMARK INTER:                 -10.443
REMARK INTRA:                  -0.825
REMARK UNBOUND:                -0.448
REMARK  Name = 
REMARK  5 active torsions:
REMARK  status: ('A' for Active; 'I' for Inactive)
REMARK    1  A    between atoms: C_2  and  C_4
REMARK    2  A    between atoms: N_8  and  C_9
REMARK    3  A    between atoms: C_9  and  C_10
REMARK    4  A    between atoms: C_10  and  C_11
REMARK    5  A    between atoms: C_15  and  C_16
REMARK                            x       y       z     vdW  Elec       q    Type
REMARK                         _______ _______ _______ _____ _____    ______ ____
ROOT
ATOM      1  C   UNL     1      43.498   3.419  11.327  0.00  0.00    +0.000 C 
ENDROOT
BRANCH   1   6
ATOM      2  C   UNL     1      46.528   2.699   7.288  0.00  0.00    +0.000 A 
ATOM      3  C   UNL     1      45.929   3.849   7.792  0.00  0.00    +0.000 A 
ATOM      4  C   UNL     1      45.115   3.744   8.917  0.00  0.00    +0.000 A 
ATOM      5  C   UNL     1      44.911   2.502   9.519  0.00  0.00    +0.000 A 
ATOM      6  N   UNL     1      44.135   2.327  10.633  0.00  0.00    +0.000 N 
ATOM      7  N   UNL     1      45.473   1.383   9.024  0.00  0.00    +0.000 NA
ATOM      8  C   UNL     1      46.258   1.498   7.921  0.00  0.00    +0.000 A 
ATOM      9  H   UNL     1      44.081   1.374  10.967  0.00  0.00    +0.000 HD
BRANCH   2  11
ATOM     10  N   UNL     1      48.740   2.451   6.322  0.00  0.00    +0.000 N 
ATOM     11  C   UNL     1      47.415   2.715   6.110  0.00  0.00    +0.000 C 
ATOM     12  O   UNL     1      46.980   2.918   4.982  0.00  0.00    +0.000 OA
ATOM     13  H   UNL     1      49.316   2.355   5.496  0.00  0.00    +0.000 HD
ATOM     14  H   UNL     1      49.081   2.031   7.176  0.00  0.00    +0.000 HD
ENDBRANCH   2  11
ENDBRANCH   1   6
BRANCH   1  15
ATOM     15  C   UNL     1      44.295   3.885  12.545  0.00  0.00    +0.000 C 
BRANCH  15  16
ATOM     16  C   UNL     1      44.770   5.291  12.272  0.00  0.00    +0.000 A 
ATOM     17  C   UNL     1      43.987   6.151  11.499  0.00  0.00    +0.000 A 
ATOM     18  C   UNL     1      44.307   7.500  11.426  0.00  0.00    +0.000 A 
ATOM     19  C   UNL     1      45.424   7.994  12.100  0.00  0.00    +0.000 A 
ATOM     20  C   UNL     1      46.281   7.144  12.817  0.00  0.00    +0.000 A 
ATOM     21  C   UNL     1      45.912   5.791  12.920  0.00  0.00    +0.000 A 
BRANCH  20  22
ATOM     22  C   UNL     1      47.548   7.630  13.521  0.00  0.00    +0.000 C 
ATOM     23  C   UNL     1      47.779   9.155  13.526  0.00  0.00    +0.000 C 
ATOM     24  C   UNL     1      48.216   9.682  12.155  0.00  0.00    +0.000 C 
ATOM     25  N   UNL     1      49.416   9.009  11.663  0.00  0.00    +0.000 NA
ATOM     26  C   UNL     1      49.234   7.557  11.610  0.00  0.00    +0.000 C 
ATOM     27  C   UNL     1      48.828   6.971  12.963  0.00  0.00    +0.000 C 
ATOM     28  H   UNL     1      50.199   9.227  12.278  0.00  0.00    +0.000 HD
ENDBRANCH  20  22
ENDBRANCH  15  16
ENDBRANCH   1  15
TORSDOF 5
ENDMDL
MODEL 3
REMARK VINA RESULT:    -7.157      2.319      3.242
REMARK INTER + INTRA:          -9.697
REMARK INTER:                  -9.077
REMARK INTRA:                  -0.620
REMARK UNBOUND:                -0.448
REMARK  Name = 
REMARK  5 active torsions:
REMARK  status: ('A' for Active; 'I' for Inactive)
REMARK    1  A    between atoms: C_2  and  C_4
REMARK    2  A    between atoms: N_8  and  C_9
REMARK    3  A    between atoms: C_9  and  C_10
REMARK    4  A    between atoms: C_10  and  C_11
REMARK    5  A    between atoms: C_15  and  C_16
REMARK                            x       y       z     vdW  Elec       q    Type
REMARK                         _______ _______ _______ _____ _____    ______ ____
ROOT
ATOM      1  C   UNL     1      43.869   5.286  11.381  0.00  0.00    +0.000 C 
ENDROOT
BRANCH   1   6
ATOM      2  C   UNL     1      46.413   2.883   7.670  0.00  0.00    +0.000 A 
ATOM      3  C   UNL     1      46.225   4.237   7.925  0.00  0.00    +0.000 A 
ATOM      4  C   UNL     1      45.448   4.614   9.018  0.00  0.00    +0.000 A 
ATOM      5  C   UNL     1      44.871   3.640   9.833  0.00  0.00    +0.000 A 
ATOM      6  N   UNL     1      44.106   3.937  10.930  0.00  0.00    +0.000 N 
ATOM      7  N   UNL     1      45.033   2.328   9.579  0.00  0.00    +0.000 NA
ATOM      8  C   UNL     1      45.786   1.975   8.506  0.00  0.00    +0.000 A 
ATOM      9  H   UNL     1      43.758   3.133  11.434  0.00  0.00    +0.000 HD
BRANCH   2  11
ATOM     10  N   UNL     1      47.175   3.100   5.377  0.00  0.00    +0.000 N 
ATOM     11  C   UNL     1      47.229   2.391   6.545  0.00  0.00    +0.000 C 
ATOM     12  O   UNL     1      47.956   1.410   6.660  0.00  0.00    +0.000 OA
ATOM     13  H   UNL     1      47.822   2.818   4.651  0.00  0.00    +0.000 HD
ATOM     14  H   UNL     1      46.802   4.038   5.326  0.00  0.00    +0.000 HD
ENDBRANCH   2  11
ENDBRANCH   1   6
BRANCH   1  15
ATOM     15  C   UNL     1      43.955   5.419  12.901  0.00  0.00    +0.000 C 
BRANCH  15  16
ATOM     16  C   UNL     1      45.409   5.589  13.266  0.00  0.00    +0.000 A 
ATOM     17  C   UNL     1      46.145   6.641  12.717  0.00  0.00    +0.000 A 
ATOM     18  C   UNL     1      47.409   6.932  13.210  0.00  0.00    +0.000 A 
ATOM     19  C   UNL     1      47.958   6.159  14.234  0.00  0.00    +0.000 A 
ATOM     20  C   UNL     1      47.283   5.043  14.751  0.00  0.00    +0.000 A 
ATOM     21  C   UNL     1      45.984   4.795  14.273  0.00  0.00    +0.000 A 
BRANCH  20  22
ATOM     22  C   UNL     1      47.871   4.132  15.829  0.00  0.00    +0.000 C 
ATOM     23  C   UNL     1      46.978   3.877  17.061  0.00  0.00    +0.000 C 
ATOM     24  C   UNL     1      46.902   5.094  17.988  0.00  0.00    +0.000 C 
ATOM     25  N   UNL     1      48.225   5.536  18.427  0.00  0.00    +0.000 NA
ATOM     26  C   UNL     1      49.100   5.823  17.288  0.00  0.00    +0.000 C 
ATOM     27  C   UNL     1      49.239   4.627  16.345  0.00  0.00    +0.000 C 
ATOM     28  H   UNL     1      48.648   4.809  19.001  0.00  0.00    +0.000 HD
ENDBRANCH  20  22
ENDBRANCH  15  16
ENDBRANCH   1  15
TORSDOF 5
ENDMDL
MODEL 4
REMARK VINA RESULT:    -6.919      3.910      7.344
REMARK INTER + INTRA:          -9.389
REMARK INTER:                  -8.232
REMARK INTRA:                  -1.157
REMARK UNBOUND:                -0.448
REMARK  Name = 
REMARK  5 active torsions:
REMARK  status: ('A' for Active; 'I' for Inactive)
REMARK    1  A    between atoms: C_2  and  C_4
REMARK    2  A    between atoms: N_8  and  C_9
REMARK    3  A    between atoms: C_9  and  C_10
REMARK    4  A    between atoms: C_10  and  C_11
REMARK    5  A    between atoms: C_15  and  C_16
REMARK                            x       y       z     vdW  Elec       q    Type
REMARK                         _______ _______ _______ _____ _____    ______ ____
ROOT
ATOM      1  C   UNL     1      49.156   7.619  12.805  0.00  0.00    +0.000 C 
ENDROOT
BRANCH   1   6
ATOM      2  C   UNL     1      47.874   4.584  16.699  0.00  0.00    +0.000 A 
ATOM      3  C   UNL     1      47.428   4.624  15.382  0.00  0.00    +0.000 A 
ATOM      4  C   UNL     1      47.944   5.595  14.528  0.00  0.00    +0.000 A 
ATOM      5  C   UNL     1      48.891   6.507  14.997  0.00  0.00    +0.000 A 
ATOM      6  N   UNL     1      49.450   7.479  14.210  0.00  0.00    +0.000 N 
ATOM      7  N   UNL     1      49.312   6.485  16.275  0.00  0.00    +0.000 NA
ATOM      8  C   UNL     1      48.793   5.538  17.100  0.00  0.00    +0.000 A 
ATOM      9  H   UNL     1      50.128   8.064  14.679  0.00  0.00    +0.000 HD
BRANCH   2  11
ATOM     10  N   UNL     1      48.085   3.474  18.846  0.00  0.00    +0.000 N 
ATOM     11  C   UNL     1      47.394   3.585  17.671  0.00  0.00    +0.000 C 
ATOM     12  O   UNL     1      46.395   2.907  17.456  0.00  0.00    +0.000 OA
ATOM     13  H   UNL     1      47.683   2.866  19.548  0.00  0.00    +0.000 HD
ATOM     14  H   UNL     1      48.737   4.179  19.162  0.00  0.00    +0.000 HD
ENDBRANCH   2  11
ENDBRANCH   1   6
BRANCH   1  15
ATOM     15  C   UNL     1      48.454   8.938  12.482  0.00  0.00    +0.000 C 
BRANCH  15  16
ATOM     16  C   UNL     1      47.003   8.630  12.206  0.00  0.00    +0.000 A 
ATOM     17  C   UNL     1      46.062   9.662  12.201  0.00  0.00    +0.000 A 
ATOM     18  C   UNL     1      44.776   9.423  11.737  0.00  0.00    +0.000 A 
ATOM     19  C   UNL     1      44.412   8.148  11.302  0.00  0.00    +0.000 A 
ATOM     20  C   UNL     1      45.305   7.069  11.372  0.00  0.00    +0.000 A 
ATOM     21  C   UNL     1      46.617   7.342  11.798  0.00  0.00    +0.000 A 
BRANCH  20  22
ATOM     22  C   UNL     1      44.932   5.643  10.964  0.00  0.00    +0.000 C 
ATOM     23  C   UNL     1      43.438   5.390  10.672  0.00  0.00    +0.000 C 
ATOM     24  C   UNL     1      42.594   5.354  11.950  0.00  0.00    +0.000 C 
ATOM     25  N   UNL     1      43.080   4.358  12.904  0.00  0.00    +0.000 NA
ATOM     26  C   UNL     1      44.489   4.578  13.238  0.00  0.00    +0.000 C 
ATOM     27  C   UNL     1      45.385   4.590  11.999  0.00  0.00    +0.000 C 
ATOM     28  H   UNL     1      42.970   3.428  12.503  0.00  0.00    +0.000 HD
ENDBRANCH  20  22
ENDBRANCH  15  16
ENDBRANCH   1  15
TORSDOF 5
ENDMDL
MODEL 5
REMARK VINA RESULT:    -6.834      3.197      5.428
REMARK INTER + INTRA:          -9.280
REMARK INTER:                  -8.169
REMARK INTRA:                  -1.111
REMARK UNBOUND:                -0.448
REMARK  Name = 
REMARK  5 active torsions:
REMARK  status: ('A' for Active; 'I' for Inactive)
REMARK    1  A    between atoms: C_2  and  C_4
REMARK    2  A    between atoms: N_8  and  C_9
REMARK    3  A    between atoms: C_9  and  C_10
REMARK    4  A    between atoms: C_10  and  C_11
REMARK    5  A    between atoms: C_15  and  C_16
REMARK                            x       y       z     vdW  Elec       q    Type
REMARK                         _______ _______ _______ _____ _____    ______ ____
ROOT
ATOM      1  C   UNL     1      47.364   7.948  13.560  0.00  0.00    +0.000 C 
ENDROOT
BRANCH   1   6
ATOM      2  C   UNL     1      44.764   4.093  11.462  0.00  0.00    +0.000 A 
ATOM      3  C   UNL     1      45.279   4.263  12.743  0.00  0.00    +0.000 A 
ATOM      4  C   UNL     1      45.982   5.429  13.035  0.00  0.00    +0.000 A 
ATOM      5  C   UNL     1      46.160   6.403  12.052  0.00  0.00    +0.000 A 
ATOM      6  N   UNL     1      46.828   7.577  12.273  0.00  0.00    +0.000 N 
ATOM      7  N   UNL     1      45.681   6.236  10.805  0.00  0.00    +0.000 NA
ATOM      8  C   UNL     1      45.005   5.089  10.531  0.00  0.00    +0.000 A 
ATOM      9  H   UNL     1      46.875   8.195  11.473  0.00  0.00    +0.000 HD
BRANCH   2  11
ATOM     10  N   UNL     1      44.450   2.198   9.980  0.00  0.00    +0.000 N 
ATOM     11  C   UNL     1      43.997   2.898  11.064  0.00  0.00    +0.000 C 
ATOM     12  O   UNL     1      43.017   2.524  11.699  0.00  0.00    +0.000 OA
ATOM     13  H   UNL     1      43.981   1.322   9.785  0.00  0.00    +0.000 HD
ATOM     14  H   UNL     1      45.378   2.322   9.602  0.00  0.00    +0.000 HD
ENDBRANCH   2  11
ENDBRANCH   1   6
BRANCH   1  15
ATOM     15  C   UNL     1      48.870   8.202  13.516  0.00  0.00    +0.000 C 
BRANCH  15  16
ATOM     16  C   UNL     1      49.503   7.401  14.627  0.00  0.00    +0.000 A 
ATOM     17  C   UNL     1      50.819   7.668  15.014  0.00  0.00    +0.000 A 
ATOM     18  C   UNL     1      51.330   7.093  16.168  0.00  0.00    +0.000 A 
ATOM     19  C   UNL     1      50.544   6.226  16.929  0.00  0.00    +0.000 A 
ATOM     20  C   UNL     1      49.248   5.869  16.525  0.00  0.00    +0.000 A 
ATOM     21  C   UNL     1      48.732   6.501  15.381  0.00  0.00    +0.000 A 
BRANCH  20  22
ATOM     22  C   UNL     1      48.373   4.878  17.293  0.00  0.00    +0.000 C 
ATOM     23  C   UNL     1      49.119   3.753  18.041  0.00  0.00    +0.000 C 
ATOM     24  C   UNL     1      49.668   2.686  17.088  0.00  0.00    +0.000 C 
ATOM     25  N   UNL     1      48.621   2.105  16.249  0.00  0.00    +0.000 NA
ATOM     26  C   UNL     1      47.905   3.134  15.493  0.00  0.00    +0.000 C 
ATOM     27  C   UNL     1      47.305   4.211  16.399  0.00  0.00    +0.000 C 
ATOM     28  H   UNL     1      47.961   1.600  16.839  0.00  0.00    +0.000 HD
ENDBRANCH  20  22
ENDBRANCH  15  16
ENDBRANCH   1  15
TORSDOF 5
ENDMDL
MODEL 6
REMARK VINA RESULT:    -6.750      4.634      8.152
REMARK INTER + INTRA:          -9.172
REMARK INTER:                  -9.321
REMARK INTRA:                   0.150
REMARK UNBOUND:                -0.448
REMARK  Name = 
REMARK  5 active torsions:
REMARK  status: ('A' for Active; 'I' for Inactive)
REMARK    1  A    between atoms: C_2  and  C_4
REMARK    2  A    between atoms: N_8  and  C_9
REMARK    3  A    between atoms: C_9  and  C_10
REMARK    4  A    between atoms: C_10  and  C_11
REMARK    5  A    between atoms: C_15  and  C_16
REMARK                            x       y       z     vdW  Elec       q    Type
REMARK                         _______ _______ _______ _____ _____    ______ ____
ROOT
ATOM      1  C   UNL     1      47.121   4.379  16.143  0.00  0.00    +0.000 C 
ENDROOT
BRANCH   1   6
ATOM      2  C   UNL     1      51.587   2.436  17.661  0.00  0.00    +0.000 A 
ATOM      3  C   UNL     1      50.402   1.819  17.274  0.00  0.00    +0.000 A 
ATOM      4  C   UNL     1      49.313   2.614  16.927  0.00  0.00    +0.000 A 
ATOM      5  C   UNL     1      49.420   4.005  16.973  0.00  0.00    +0.000 A 
ATOM      6  N   UNL     1      48.394   4.846  16.634  0.00  0.00    +0.000 N 
ATOM      7  N   UNL     1      50.557   4.607  17.366  0.00  0.00    +0.000 NA
ATOM      8  C   UNL     1      51.609   3.820  17.709  0.00  0.00    +0.000 A 
ATOM      9  H   UNL     1      48.613   5.831  16.706  0.00  0.00    +0.000 HD
BRANCH   2  11
ATOM     10  N   UNL     1      53.557   2.177  19.053  0.00  0.00    +0.000 N 
ATOM     11  C   UNL     1      52.795   1.677  18.033  0.00  0.00    +0.000 C 
ATOM     12  O   UNL     1      53.087   0.623  17.480  0.00  0.00    +0.000 OA
ATOM     13  H   UNL     1      54.319   1.593  19.371  0.00  0.00    +0.000 HD
ATOM     14  H   UNL     1      53.217   2.883  19.691  0.00  0.00    +0.000 HD
ENDBRANCH   2  11
ENDBRANCH   1   6
BRANCH   1  15
ATOM     15  C   UNL     1      47.226   3.743  14.757  0.00  0.00    +0.000 C 
BRANCH  15  16
ATOM     16  C   UNL     1      46.798   4.777  13.745  0.00  0.00    +0.000 A 
ATOM     17  C   UNL     1      47.591   5.906  13.526  0.00  0.00    +0.000 A 
ATOM     18  C   UNL     1      47.322   6.743  12.453  0.00  0.00    +0.000 A 
ATOM     19  C   UNL     1      46.243   6.477  11.609  0.00  0.00    +0.000 A 
ATOM     20  C   UNL     1      45.375   5.401  11.848  0.00  0.00    +0.000 A 
ATOM     21  C   UNL     1      45.694   4.537  12.909  0.00  0.00    +0.000 A 
BRANCH  20  22
ATOM     22  C   UNL     1      44.147   5.106  10.985  0.00  0.00    +0.000 C 
ATOM     23  C   UNL     1      43.025   4.290  11.660  0.00  0.00    +0.000 C 
ATOM     24  C   UNL     1      43.394   2.812  11.819  0.00  0.00    +0.000 C 
ATOM     25  N   UNL     1      43.748   2.192  10.543  0.00  0.00    +0.000 NA
ATOM     26  C   UNL     1      44.835   2.915   9.879  0.00  0.00    +0.000 C 
ATOM     27  C   UNL     1      44.506   4.393   9.664  0.00  0.00    +0.000 C 
ATOM     28  H   UNL     1      42.930   2.183   9.936  0.00  0.00    +0.000 HD
ENDBRANCH  20  22
ENDBRANCH  15  16
ENDBRANCH   1  15
TORSDOF 5
ENDMDL
MODEL 7
REMARK VINA RESULT:    -6.659      3.846      6.040
REMARK INTER + INTRA:          -9.053
REMARK INTER:                  -8.422
REMARK INTRA:                  -0.631
REMARK UNBOUND:                -0.448
REMARK  Name = 
REMARK  5 active torsions:
REMARK  status: ('A' for Active; 'I' for Inactive)
REMARK    1  A    between atoms: C_2  and  C_4
REMARK    2  A    between atoms: N_8  and  C_9
REMARK    3  A    between atoms: C_9  and  C_10
REMARK    4  A    between atoms: C_10  and  C_11
REMARK    5  A    between atoms: C_15  and  C_16
REMARK                            x       y       z     vdW  Elec       q    Type
REMARK                         _______ _______ _______ _____ _____    ______ ____
ROOT
ATOM      1  C   UNL     1      47.909   7.601  13.907  0.00  0.00    +0.000 C 
ENDROOT
BRANCH   1   6
ATOM      2  C   UNL     1      44.999   4.532  11.055  0.00  0.00    +0.000 A 
ATOM      3  C   UNL     1      45.618   5.742  10.762  0.00  0.00    +0.000 A 
ATOM      4  C   UNL     1      46.345   6.385  11.761  0.00  0.00    +0.000 A 
ATOM      5  C   UNL     1      46.441   5.815  13.031  0.00  0.00    +0.000 A 
ATOM      6  N   UNL     1      47.148   6.385  14.056  0.00  0.00    +0.000 N 
ATOM      7  N   UNL     1      45.828   4.655  13.327  0.00  0.00    +0.000 NA
ATOM      8  C   UNL     1      45.116   4.042  12.345  0.00  0.00    +0.000 A 
ATOM      9  H   UNL     1      47.139   5.860  14.920  0.00  0.00    +0.000 HD
BRANCH   2  11
ATOM     10  N   UNL     1      44.099   4.323   8.812  0.00  0.00    +0.000 N 
ATOM     11  C   UNL     1      44.221   3.774  10.059  0.00  0.00    +0.000 C 
ATOM     12  O   UNL     1      43.734   2.679  10.322  0.00  0.00    +0.000 OA
ATOM     13  H   UNL     1      43.658   3.744   8.109  0.00  0.00    +0.000 HD
ATOM     14  H   UNL     1      44.690   5.076   8.490  0.00  0.00    +0.000 HD
ENDBRANCH   2  11
ENDBRANCH   1   6
BRANCH   1  15
ATOM     15  C   UNL     1      49.398   7.398  14.182  0.00  0.00    +0.000 C 
BRANCH  15  16
ATOM     16  C   UNL     1      49.596   7.425  15.678  0.00  0.00    +0.000 A 
ATOM     17  C   UNL     1      49.184   8.538  16.414  0.00  0.00    +0.000 A 
ATOM     18  C   UNL     1      49.162   8.482  17.800  0.00  0.00    +0.000 A 
ATOM     19  C   UNL     1      49.578   7.326  18.462  0.00  0.00    +0.000 A 
ATOM     20  C   UNL     1      50.079   6.220  17.759  0.00  0.00    +0.000 A 
ATOM     21  C   UNL     1      50.046   6.279  16.354  0.00  0.00    +0.000 A 
BRANCH  20  22
ATOM     22  C   UNL     1      50.602   4.957  18.443  0.00  0.00    +0.000 C 
ATOM     23  C   UNL     1      50.212   3.618  17.784  0.00  0.00    +0.000 C 
ATOM     24  C   UNL     1      48.742   3.259  18.020  0.00  0.00    +0.000 C 
ATOM     25  N   UNL     1      48.405   3.219  19.443  0.00  0.00    +0.000 NA
ATOM     26  C   UNL     1      48.728   4.484  20.106  0.00  0.00    +0.000 C 
ATOM     27  C   UNL     1      50.196   4.875  19.931  0.00  0.00    +0.000 C 
ATOM     28  H   UNL     1      48.924   2.464  19.889  0.00  0.00    +0.000 HD
ENDBRANCH  20  22
ENDBRANCH  15  16
ENDBRANCH   1  15
TORSDOF 5
ENDMDL
MODEL 8
REMARK VINA RESULT:    -6.643      3.971      8.187
REMARK INTER + INTRA:          -9.033
REMARK INTER:                  -8.302
REMARK INTRA:                  -0.731
REMARK UNBOUND:                -0.448
REMARK  Name = 
REMARK  5 active torsions:
REMARK  status: ('A' for Active; 'I' for Inactive)
REMARK    1  A    between atoms: C_2  and  C_4
REMARK    2  A    between atoms: N_8  and  C_9
REMARK    3  A    between atoms: C_9  and  C_10
REMARK    4  A    between atoms: C_10  and  C_11
REMARK    5  A    between atoms: C_15  and  C_16
REMARK                            x       y       z     vdW  Elec       q    Type
REMARK                         _______ _______ _______ _____ _____    ______ ____
ROOT
ATOM      1  C   UNL     1      49.715   8.039  13.564  0.00  0.00    +0.000 C 
ENDROOT
BRANCH   1   6
ATOM      2  C   UNL     1      49.502   5.335  17.883  0.00  0.00    +0.000 A 
ATOM      3  C   UNL     1      48.504   5.954  17.139  0.00  0.00    +0.000 A 
ATOM      4  C   UNL     1      48.861   6.659  15.992  0.00  0.00    +0.000 A 
ATOM      5  C   UNL     1      50.200   6.737  15.608  0.00  0.00    +0.000 A 
ATOM      6  N   UNL     1      50.621   7.402  14.487  0.00  0.00    +0.000 N 
ATOM      7  N   UNL     1      51.173   6.156  16.335  0.00  0.00    +0.000 NA
ATOM      8  C   UNL     1      50.811   5.479  17.456  0.00  0.00    +0.000 A 
ATOM      9  H   UNL     1      51.619   7.371  14.326  0.00  0.00    +0.000 HD
BRANCH   2  11
ATOM     10  N   UNL     1      48.271   3.575  19.011  0.00  0.00    +0.000 N 
ATOM     11  C   UNL     1      49.219   4.556  19.103  0.00  0.00    +0.000 C 
ATOM     12  O   UNL     1      49.832   4.752  20.147  0.00  0.00    +0.000 OA
ATOM     13  H   UNL     1      48.164   2.977  19.821  0.00  0.00    +0.000 HD
ATOM     14  H   UNL     1      47.941   3.218  18.125  0.00  0.00    +0.000 HD
ENDBRANCH   2  11
ENDBRANCH   1   6
BRANCH   1  15
ATOM     15  C   UNL     1      49.158   7.067  12.525  0.00  0.00    +0.000 C 
BRANCH  15  16
ATOM     16  C   UNL     1      47.653   7.107  12.619  0.00  0.00    +0.000 A 
ATOM     17  C   UNL     1      46.964   8.268  12.262  0.00  0.00    +0.000 A 
ATOM     18  C   UNL     1      45.582   8.243  12.138  0.00  0.00    +0.000 A 
ATOM     19  C   UNL     1      44.876   7.068  12.397  0.00  0.00    +0.000 A 
ATOM     20  C   UNL     1      45.526   5.906  12.840  0.00  0.00    +0.000 A 
ATOM     21  C   UNL     1      46.930   5.938  12.911  0.00  0.00    +0.000 A 
BRANCH  20  22
ATOM     22  C   UNL     1      44.788   4.614  13.193  0.00  0.00    +0.000 C 
ATOM     23  C   UNL     1      45.283   3.335  12.486  0.00  0.00    +0.000 C 
ATOM     24  C   UNL     1      44.871   3.288  11.011  0.00  0.00    +0.000 C 
ATOM     25  N   UNL     1      43.424   3.411  10.839  0.00  0.00    +0.000 NA
ATOM     26  C   UNL     1      42.911   4.630  11.467  0.00  0.00    +0.000 C 
ATOM     27  C   UNL     1      43.266   4.714  12.952  0.00  0.00    +0.000 C 
ATOM     28  H   UNL     1      42.967   2.600  11.255  0.00  0.00    +0.000 HD
ENDBRANCH  20  22
ENDBRANCH  15  16
ENDBRANCH   1  15
TORSDOF 5
ENDMDL
MODEL 9
REMARK VINA RESULT:    -6.542      3.932      6.656
REMARK INTER + INTRA:          -8.903
REMARK INTER:                  -8.355
REMARK INTRA:                  -0.547
REMARK UNBOUND:                -0.448
REMARK  Name = 
REMARK  5 active torsions:
REMARK  status: ('A' for Active; 'I' for Inactive)
REMARK    1  A    between atoms: C_2  and  C_4
REMARK    2  A    between atoms: N_8  and  C_9
REMARK    3  A    between atoms: C_9  and  C_10
REMARK    4  A    between atoms: C_10  and  C_11
REMARK    5  A    between atoms: C_15  and  C_16
REMARK                            x       y       z     vdW  Elec       q    Type
REMARK                         _______ _______ _______ _____ _____    ______ ____
ROOT
ATOM      1  C   UNL     1      49.497   7.777  13.748  0.00  0.00    +0.000 C 
ENDROOT
BRANCH   1   6
ATOM      2  C   UNL     1      45.181   5.147  13.068  0.00  0.00    +0.000 A 
ATOM      3  C   UNL     1      46.466   4.731  13.398  0.00  0.00    +0.000 A 
ATOM      4  C   UNL     1      47.477   5.684  13.494  0.00  0.00    +0.000 A 
ATOM      5  C   UNL     1      47.192   7.030  13.260  0.00  0.00    +0.000 A 
ATOM      6  N   UNL     1      48.133   8.021  13.349  0.00  0.00    +0.000 N 
ATOM      7  N   UNL     1      45.955   7.436  12.921  0.00  0.00    +0.000 NA
ATOM      8  C   UNL     1      44.980   6.495  12.823  0.00  0.00    +0.000 A 
ATOM      9  H   UNL     1      47.786   8.952  13.161  0.00  0.00    +0.000 HD
BRANCH   2  11
ATOM     10  N   UNL     1      44.336   2.909  12.662  0.00  0.00    +0.000 N 
ATOM     11  C   UNL     1      44.045   4.212  12.956  0.00  0.00    +0.000 C 
ATOM     12  O   UNL     1      42.892   4.577  13.155  0.00  0.00    +0.000 OA
ATOM     13  H   UNL     1      43.562   2.258  12.696  0.00  0.00    +0.000 HD
ATOM     14  H   UNL     1      45.268   2.527  12.748  0.00  0.00    +0.000 HD
ENDBRANCH   2  11
ENDBRANCH   1   6
BRANCH   1  15
ATOM     15  C   UNL     1      49.764   8.179  15.199  0.00  0.00    +0.000 C 
BRANCH  15  16
ATOM     16  C   UNL     1      50.465   7.026  15.873  0.00  0.00    +0.000 A 
ATOM     17  C   UNL     1      51.861   7.000  15.933  0.00  0.00    +0.000 A 
ATOM     18  C   UNL     1      52.502   6.066  16.734  0.00  0.00    +0.000 A 
ATOM     19  C   UNL     1      51.757   5.132  17.457  0.00  0.00    +0.000 A 
ATOM     20  C   UNL     1      50.359   5.075  17.354  0.00  0.00    +0.000 A 
ATOM     21  C   UNL     1      49.727   6.061  16.578  0.00  0.00    +0.000 A 
BRANCH  20  22
ATOM     22  C   UNL     1      49.507   4.033  18.081  0.00  0.00    +0.000 C 
ATOM     23  C   UNL     1      48.369   3.395  17.257  0.00  0.00    +0.000 C 
ATOM     24  C   UNL     1      47.194   4.355  17.045  0.00  0.00    +0.000 C 
ATOM     25  N   UNL     1      46.659   4.859  18.308  0.00  0.00    +0.000 NA
ATOM     26  C   UNL     1      47.699   5.505  19.112  0.00  0.00    +0.000 C 
ATOM     27  C   UNL     1      48.884   4.578  19.384  0.00  0.00    +0.000 C 
ATOM     28  H   UNL     1      46.258   4.085  18.835  0.00  0.00    +0.000 HD
ENDBRANCH  20  22
ENDBRANCH  15  16
ENDBRANCH   1  15
TORSDOF 5
ENDMDL
