MODEL 1
REMARK VINA RESULT:    -8.618      0.000      0.000
REMARK INTER + INTRA:         -12.849
REMARK INTER:                 -11.893
REMARK INTRA:                  -0.956
REMARK UNBOUND:                -0.956
REMARK  Name = 
REMARK  7 active torsions:
REMARK  status: ('A' for Active; 'I' for Inactive)
REMARK    1  A    between atoms: N_1  and  C_2
REMARK    2  A    between atoms: C_2  and  C_3
REMARK    3  A    between atoms: C_3  and  N_4
REMARK    4  A    between atoms: C_3  and  C_17
REMARK    5  A    between atoms: C_5  and  C_7
REMARK    6  A    between atoms: C_20  and  C_21
REMARK    7  A    between atoms: C_21  and  N_22
REMARK                            x       y       z     vdW  Elec       q    Type
REMARK                         _______ _______ _______ _____ _____    ______ ____
ROOT
ATOM      1  C   UNL     1      47.601   6.709  13.465  0.00  0.00    +0.000 C 
ENDROOT
BRANCH   1   2
ATOM      2  C   UNL     1      46.626   5.889  12.613  0.00  0.00    +0.000 A 
ATOM      3  C   UNL     1      46.246   4.606  13.042  0.00  0.00    +0.000 A 
ATOM      4  C   UNL     1      45.435   3.790  12.247  0.00  0.00    +0.000 A 
ATOM      5  C   UNL     1      44.969   4.239  11.005  0.00  0.00    +0.000 A 
ATOM      6  C   UNL     1      45.305   5.534  10.591  0.00  0.00    +0.000 A 
ATOM      7  C   UNL     1      46.137   6.342  11.376  0.00  0.00    +0.000 A 
BRANCH   5   8
ATOM      8  C   UNL     1      44.150   3.326  10.115  0.00  0.00    +0.000 C 
BRANCH   8   9
ATOM      9  N   UNL     1      44.903   2.124   9.782  0.00  0.00    +0.000 N 
ATOM     10  C   UNL     1      45.605   2.229   8.567  0.00  0.00    +0.000 A 
ATOM     11  C   UNL     1      46.369   1.142   8.143  0.00  0.00    +0.000 A 
ATOM     12  C   UNL     1      47.082   1.223   6.947  0.00  0.00    +0.000 A 
ATOM     13  C   UNL     1      47.022   2.390   6.200  0.00  0.00    +0.000 A 
ATOM     14  C   UNL     1      46.256   3.429   6.692  0.00  0.00    +0.000 A 
ATOM     15  N   UNL     1      45.559   3.371   7.849  0.00  0.00    +0.000 NA
ATOM     16  H   UNL     1      44.308   1.302   9.753  0.00  0.00    +0.000 HD
ENDBRANCH   8   9
ENDBRANCH   5   8
ENDBRANCH   1   2
BRANCH   1  17
ATOM     17  N   UNL     1      47.624   6.199  14.833  0.00  0.00    +0.000 N 
ATOM     18  C   UNL     1      48.748   6.190  15.619  0.00  0.00    +0.000 C 
ATOM     19  O   UNL     1      49.802   6.720  15.287  0.00  0.00    +0.000 OA
ATOM     20  H   UNL     1      46.914   5.505  15.038  0.00  0.00    +0.000 HD
BRANCH  18  21
ATOM     21  C   UNL     1      48.608   5.542  16.930  0.00  0.00    +0.000 A 
ATOM     22  C   UNL     1      48.764   4.167  17.046  0.00  0.00    +0.000 A 
ATOM     23  S   UNL     1      48.565   3.591  18.639  0.00  0.00    +0.000 S 
ATOM     24  C   UNL     1      48.213   5.153  19.219  0.00  0.00    +0.000 A 
ATOM     25  N   UNL     1      47.895   5.365  20.523  0.00  0.00    +0.000 NA
ATOM     26  C   UNL     1      47.612   6.591  20.812  0.00  0.00    +0.000 A 
ATOM     27  N   UNL     1      47.640   7.633  19.922  0.00  0.00    +0.000 N 
ATOM     28  C   UNL     1      48.013   7.475  18.611  0.00  0.00    +0.000 A 
ATOM     29  O   UNL     1      48.130   8.439  17.862  0.00  0.00    +0.000 OA
ATOM     30  C   UNL     1      48.289   6.105  18.219  0.00  0.00    +0.000 A 
ATOM     31  H   UNL     1      47.441   8.578  20.219  0.00  0.00    +0.000 HD
ENDBRANCH  18  21
ENDBRANCH   1  17
BRANCH   1  32
ATOM     32  C   UNL     1      47.248   8.229  13.402  0.00  0.00    +0.000 C 
BRANCH  32  33
ATOM     33  N   UNL     1      47.228   8.923  14.699  0.00  0.00    +0.000 NA
ATOM     34  H   UNL     1      46.755   8.328  15.378  0.00  0.00    +0.000 HD
ATOM     35  H   UNL     1      46.654   9.764  14.620  0.00  0.00    +0.000 HD
ENDBRANCH  32  33
ENDBRANCH   1  32
TORSDOF 7
ENDMDL
MODEL 2
REMARK VINA RESULT:    -8.272      1.636      2.400
REMARK INTER + INTRA:         -12.371
REMARK INTER:                 -11.817
REMARK INTRA:                  -0.554
REMARK UNBOUND:                -0.956
REMARK  Name = 
REMARK  7 active torsions:
REMARK  status: ('A' for Active; 'I' for Inactive)
REMARK    1  A    between atoms: N_1  and  C_2
REMARK    2  A    between atoms: C_2  and  C_3
REMARK    3  A    between atoms: C_3  and  N_4
REMARK    4  A    between atoms: C_3  and  C_17
REMARK    5  A    between atoms: C_5  and  C_7
REMARK    6  A    between atoms: C_20  and  C_21
REMARK    7  A    between atoms: C_21  and  N_22
REMARK                            x       y       z     vdW  Elec       q    Type
REMARK                         _______ _______ _______ _____ _____    ______ ____
ROOT
ATOM      1  C   UNL     1      47.260   7.435  12.688  0.00  0.00    +0.000 C 
ENDROOT
BRANCH   1   2
ATOM      2  C   UNL     1      46.530   6.316  11.937  0.00  0.00    +0.000 A 
ATOM      3  C   UNL     1      46.412   6.386  10.539  0.00  0.00    +0.000 A 
ATOM      4  C   UNL     1      45.673   5.435   9.828  0.00  0.00    +0.000 A 
ATOM      5  C   UNL     1      45.039   4.379  10.495  0.00  0.00    +0.000 A 
ATOM      6  C   UNL     1      45.190   4.275  11.883  0.00  0.00    +0.000 A 
ATOM      7  C   UNL     1      45.911   5.241  12.598  0.00  0.00    +0.000 A 
BRANCH   5   8
ATOM      8  C   UNL     1      44.180   3.393   9.731  0.00  0.00    +0.000 C 
BRANCH   8   9
ATOM      9  N   UNL     1      44.904   2.149   9.503  0.00  0.00    +0.000 N 
ATOM     10  C   UNL     1      45.690   2.172   8.334  0.00  0.00    +0.000 A 
ATOM     11  C   UNL     1      46.436   1.040   8.012  0.00  0.00    +0.000 A 
ATOM     12  C   UNL     1      47.229   1.040   6.865  0.00  0.00    +0.000 A 
ATOM     13  C   UNL     1      47.265   2.172   6.065  0.00  0.00    +0.000 A 
ATOM     14  C   UNL     1      46.510   3.260   6.458  0.00  0.00    +0.000 A 
ATOM     15  N   UNL     1      45.736   3.281   7.566  0.00  0.00    +0.000 NA
ATOM     16  H   UNL     1      44.280   1.350   9.469  0.00  0.00    +0.000 HD
ENDBRANCH   8   9
ENDBRANCH   5   8
ENDBRANCH   1   2
BRANCH   1  17
ATOM     17  N   UNL     1      47.437   7.065  14.090  0.00  0.00    +0.000 N 
ATOM     18  C   UNL     1      48.660   6.807  14.656  0.00  0.00    +0.000 C 
ATOM     19  O   UNL     1      49.721   6.985  14.068  0.00  0.00    +0.000 OA
ATOM     20  H   UNL     1      46.631   6.622  14.516  0.00  0.00    +0.000 HD
BRANCH  18  21
ATOM     21  C   UNL     1      48.636   6.347  16.051  0.00  0.00    +0.000 A 
ATOM     22  C   UNL     1      49.105   7.173  17.064  0.00  0.00    +0.000 A 
ATOM     23  S   UNL     1      49.001   6.473  18.616  0.00  0.00    +0.000 S 
ATOM     24  C   UNL     1      48.373   5.023  17.981  0.00  0.00    +0.000 A 
ATOM     25  N   UNL     1      48.100   3.962  18.785  0.00  0.00    +0.000 NA
ATOM     26  C   UNL     1      47.668   2.917  18.163  0.00  0.00    +0.000 A 
ATOM     27  N   UNL     1      47.462   2.839  16.811  0.00  0.00    +0.000 N 
ATOM     28  C   UNL     1      47.667   3.903  15.969  0.00  0.00    +0.000 A 
ATOM     29  O   UNL     1      47.376   3.839  14.780  0.00  0.00    +0.000 OA
ATOM     30  C   UNL     1      48.206   5.088  16.610  0.00  0.00    +0.000 A 
ATOM     31  H   UNL     1      47.089   2.000  16.387  0.00  0.00    +0.000 HD
ENDBRANCH  18  21
ENDBRANCH   1  17
BRANCH   1  32
ATOM     32  C   UNL     1      46.511   8.795  12.521  0.00  0.00    +0.000 C 
BRANCH  32  33
ATOM     33  N   UNL     1      45.221   8.890  13.222  0.00  0.00    +0.000 NA
ATOM     34  H   UNL     1      45.234   9.720  13.813  0.00  0.00    +0.000 HD
ATOM     35  H   UNL     1      45.128   8.097  13.859  0.00  0.00    +0.000 HD
ENDBRANCH  32  33
ENDBRANCH   1  32
TORSDOF 7
ENDMDL
MODEL 3
REMARK VINA RESULT:    -7.833      2.677      4.197
REMARK INTER + INTRA:         -11.766
REMARK INTER:                 -10.577
REMARK INTRA:                  -1.188
REMARK UNBOUND:                -0.956
REMARK  Name = 
REMARK  7 active torsions:
REMARK  status: ('A' for Active; 'I' for Inactive)
REMARK    1  A    between atoms: N_1  and  C_2
REMARK    2  A    between atoms: C_2  and  C_3
REMARK    3  A    between atoms: C_3  and  N_4
REMARK    4  A    between atoms: C_3  and  C_17
REMARK    5  A    between atoms: C_5  and  C_7
REMARK    6  A    between atoms: C_20  and  C_21
REMARK    7  A    between atoms: C_21  and  N_22
REMARK                            x       y       z     vdW  Elec       q    Type
REMARK                         _______ _______ _______ _____ _____    ______ ____
ROOT
ATOM      1  C   UNL     1      46.842   5.091  14.572  0.00  0.00    +0.000 C 
ENDROOT
BRANCH   1   2
ATOM      2  C   UNL     1      46.056   4.874  13.273  0.00  0.00    +0.000 A 
ATOM      3  C   UNL     1      45.523   3.605  12.993  0.00  0.00    +0.000 A 
ATOM      4  C   UNL     1      44.882   3.344  11.778  0.00  0.00    +0.000 A 
ATOM      5  C   UNL     1      44.746   4.349  10.812  0.00  0.00    +0.000 A 
ATOM      6  C   UNL     1      45.233   5.629  11.102  0.00  0.00    +0.000 A 
ATOM      7  C   UNL     1      45.896   5.885  12.310  0.00  0.00    +0.000 A 
BRANCH   5   8
ATOM      8  C   UNL     1      44.116   4.043   9.468  0.00  0.00    +0.000 C 
BRANCH   8   9
ATOM      9  N   UNL     1      45.014   4.419   8.383  0.00  0.00    +0.000 N 
ATOM     10  C   UNL     1      45.805   3.348   7.924  0.00  0.00    +0.000 A 
ATOM     11  C   UNL     1      46.701   3.583   6.882  0.00  0.00    +0.000 A 
ATOM     12  C   UNL     1      47.490   2.538   6.402  0.00  0.00    +0.000 A 
ATOM     13  C   UNL     1      47.365   1.278   6.969  0.00  0.00    +0.000 A 
ATOM     14  C   UNL     1      46.445   1.121   7.987  0.00  0.00    +0.000 A 
ATOM     15  N   UNL     1      45.671   2.120   8.465  0.00  0.00    +0.000 NA
ATOM     16  H   UNL     1      45.618   5.191   8.644  0.00  0.00    +0.000 HD
ENDBRANCH   8   9
ENDBRANCH   5   8
ENDBRANCH   1   2
BRANCH   1  17
ATOM     17  N   UNL     1      47.901   6.073  14.358  0.00  0.00    +0.000 N 
ATOM     18  C   UNL     1      48.640   6.623  15.376  0.00  0.00    +0.000 C 
ATOM     19  O   UNL     1      48.560   6.247  16.539  0.00  0.00    +0.000 OA
ATOM     20  H   UNL     1      47.805   6.622  13.512  0.00  0.00    +0.000 HD
BRANCH  18  21
ATOM     21  C   UNL     1      49.589   7.672  14.983  0.00  0.00    +0.000 A 
ATOM     22  C   UNL     1      50.939   7.535  15.280  0.00  0.00    +0.000 A 
ATOM     23  S   UNL     1      51.890   8.848  14.751  0.00  0.00    +0.000 S 
ATOM     24  C   UNL     1      50.523   9.668  14.152  0.00  0.00    +0.000 A 
ATOM     25  N   UNL     1      50.630  10.905  13.598  0.00  0.00    +0.000 NA
ATOM     26  C   UNL     1      49.507  11.423  13.225  0.00  0.00    +0.000 A 
ATOM     27  N   UNL     1      48.287  10.809  13.333  0.00  0.00    +0.000 N 
ATOM     28  C   UNL     1      48.140   9.539  13.830  0.00  0.00    +0.000 A 
ATOM     29  O   UNL     1      47.052   8.974  13.820  0.00  0.00    +0.000 OA
ATOM     30  C   UNL     1      49.365   8.932  14.315  0.00  0.00    +0.000 A 
ATOM     31  H   UNL     1      47.447  11.255  12.990  0.00  0.00    +0.000 HD
ENDBRANCH  18  21
ENDBRANCH   1  17
BRANCH   1  32
ATOM     32  C   UNL     1      47.389   3.735  15.121  0.00  0.00    +0.000 C 
BRANCH  32  33
ATOM     33  N   UNL     1      47.075   3.458  16.532  0.00  0.00    +0.000 NA
ATOM     34  H   UNL     1      47.948   3.308  17.035  0.00  0.00    +0.000 HD
ATOM     35  H   UNL     1      46.564   2.576  16.594  0.00  0.00    +0.000 HD
ENDBRANCH  32  33
ENDBRANCH   1  32
TORSDOF 7
ENDMDL
MODEL 4
REMARK VINA RESULT:    -7.742      3.097      4.660
REMARK INTER + INTRA:         -11.640
REMARK INTER:                 -10.277
REMARK INTRA:                  -1.363
REMARK UNBOUND:                -0.956
REMARK  Name = 
REMARK  7 active torsions:
REMARK  status: ('A' for Active; 'I' for Inactive)
REMARK    1  A    between atoms: N_1  and  C_2
REMARK    2  A    between atoms: C_2  and  C_3
REMARK    3  A    between atoms: C_3  and  N_4
REMARK    4  A    between atoms: C_3  and  C_17
REMARK    5  A    between atoms: C_5  and  C_7
REMARK    6  A    between atoms: C_20  and  C_21
REMARK    7  A    between atoms: C_21  and  N_22
REMARK                            x       y       z     vdW  Elec       q    Type
REMARK                         _______ _______ _______ _____ _____    ______ ____
ROOT
ATOM      1  C   UNL     1      47.061   5.891  14.269  0.00  0.00    +0.000 C 
ENDROOT
BRANCH   1   2
ATOM      2  C   UNL     1      46.247   5.269  13.127  0.00  0.00    +0.000 A 
ATOM      3  C   UNL     1      45.828   3.932  13.227  0.00  0.00    +0.000 A 
ATOM      4  C   UNL     1      45.167   3.302  12.168  0.00  0.00    +0.000 A 
ATOM      5  C   UNL     1      44.895   3.995  10.982  0.00  0.00    +0.000 A 
ATOM      6  C   UNL     1      45.268   5.343  10.892  0.00  0.00    +0.000 A 
ATOM      7  C   UNL     1      45.951   5.967  11.943  0.00  0.00    +0.000 A 
BRANCH   5   8
ATOM      8  C   UNL     1      44.244   3.289   9.810  0.00  0.00    +0.000 C 
BRANCH   8   9
ATOM      9  N   UNL     1      44.965   2.067   9.482  0.00  0.00    +0.000 N 
ATOM     10  C   UNL     1      45.781   2.194   8.341  0.00  0.00    +0.000 A 
ATOM     11  C   UNL     1      46.528   1.091   7.931  0.00  0.00    +0.000 A 
ATOM     12  C   UNL     1      47.351   1.193   6.809  0.00  0.00    +0.000 A 
ATOM     13  C   UNL     1      47.415   2.397   6.124  0.00  0.00    +0.000 A 
ATOM     14  C   UNL     1      46.658   3.449   6.600  0.00  0.00    +0.000 A 
ATOM     15  N   UNL     1      45.856   3.371   7.685  0.00  0.00    +0.000 NA
ATOM     16  H   UNL     1      44.337   1.280   9.356  0.00  0.00    +0.000 HD
ENDBRANCH   8   9
ENDBRANCH   5   8
ENDBRANCH   1   2
BRANCH   1  17
ATOM     17  N   UNL     1      48.198   6.630  13.728  0.00  0.00    +0.000 N 
ATOM     18  C   UNL     1      48.237   7.999  13.640  0.00  0.00    +0.000 C 
ATOM     19  O   UNL     1      47.375   8.726  14.119  0.00  0.00    +0.000 OA
ATOM     20  H   UNL     1      48.767   6.111  13.070  0.00  0.00    +0.000 HD
BRANCH  18  21
ATOM     21  C   UNL     1      49.417   8.564  12.972  0.00  0.00    +0.000 A 
ATOM     22  C   UNL     1      49.269   9.301  11.804  0.00  0.00    +0.000 A 
ATOM     23  S   UNL     1      50.744   9.876  11.170  0.00  0.00    +0.000 S 
ATOM     24  C   UNL     1      51.635   9.117  12.406  0.00  0.00    +0.000 A 
ATOM     25  N   UNL     1      52.993   9.172  12.432  0.00  0.00    +0.000 NA
ATOM     26  C   UNL     1      53.537   8.517  13.402  0.00  0.00    +0.000 A 
ATOM     27  N   UNL     1      52.849   7.828  14.366  0.00  0.00    +0.000 N 
ATOM     28  C   UNL     1      51.478   7.794  14.413  0.00  0.00    +0.000 A 
ATOM     29  O   UNL     1      50.886   7.258  15.343  0.00  0.00    +0.000 OA
ATOM     30  C   UNL     1      50.816   8.470  13.313  0.00  0.00    +0.000 A 
ATOM     31  H   UNL     1      53.333   7.362  15.120  0.00  0.00    +0.000 HD
ENDBRANCH  18  21
ENDBRANCH   1  17
BRANCH   1  32
ATOM     32  C   UNL     1      47.494   4.799  15.298  0.00  0.00    +0.000 C 
BRANCH  32  33
ATOM     33  N   UNL     1      48.663   5.144  16.122  0.00  0.00    +0.000 NA
ATOM     34  H   UNL     1      48.892   6.125  15.966  0.00  0.00    +0.000 HD
ATOM     35  H   UNL     1      49.472   4.615  15.794  0.00  0.00    +0.000 HD
ENDBRANCH  32  33
ENDBRANCH   1  32
TORSDOF 7
ENDMDL
MODEL 5
REMARK VINA RESULT:    -7.434      1.677      2.121
REMARK INTER + INTRA:         -11.214
REMARK INTER:                 -10.548
REMARK INTRA:                  -0.666
REMARK UNBOUND:                -0.956
REMARK  Name = 
REMARK  7 active torsions:
REMARK  status: ('A' for Active; 'I' for Inactive)
REMARK    1  A    between atoms: N_1  and  C_2
REMARK    2  A    between atoms: C_2  and  C_3
REMARK    3  A    between atoms: C_3  and  N_4
REMARK    4  A    between atoms: C_3  and  C_17
REMARK    5  A    between atoms: C_5  and  C_7
REMARK    6  A    between atoms: C_20  and  C_21
REMARK    7  A    between atoms: C_21  and  N_22
REMARK                            x       y       z     vdW  Elec       q    Type
REMARK                         _______ _______ _______ _____ _____    ______ ____
ROOT
ATOM      1  C   UNL     1      48.505   6.792  13.738  0.00  0.00    +0.000 C 
ENDROOT
BRANCH   1   2
ATOM      2  C   UNL     1      47.255   6.238  13.044  0.00  0.00    +0.000 A 
ATOM      3  C   UNL     1      46.775   4.967  13.397  0.00  0.00    +0.000 A 
ATOM      4  C   UNL     1      45.696   4.389  12.721  0.00  0.00    +0.000 A 
ATOM      5  C   UNL     1      45.057   5.072  11.679  0.00  0.00    +0.000 A 
ATOM      6  C   UNL     1      45.500   6.360  11.350  0.00  0.00    +0.000 A 
ATOM      7  C   UNL     1      46.596   6.929  12.012  0.00  0.00    +0.000 A 
BRANCH   5   8
ATOM      8  C   UNL     1      43.936   4.414  10.901  0.00  0.00    +0.000 C 
BRANCH   8   9
ATOM      9  N   UNL     1      44.307   3.059  10.512  0.00  0.00    +0.000 N 
ATOM     10  C   UNL     1      45.068   3.012   9.328  0.00  0.00    +0.000 A 
ATOM     11  C   UNL     1      45.489   1.769   8.857  0.00  0.00    +0.000 A 
ATOM     12  C   UNL     1      46.252   1.695   7.692  0.00  0.00    +0.000 A 
ATOM     13  C   UNL     1      46.583   2.864   7.023  0.00  0.00    +0.000 A 
ATOM     14  C   UNL     1      46.142   4.058   7.559  0.00  0.00    +0.000 A 
ATOM     15  N   UNL     1      45.403   4.151   8.688  0.00  0.00    +0.000 NA
ATOM     16  H   UNL     1      43.494   2.461  10.409  0.00  0.00    +0.000 HD
ENDBRANCH   8   9
ENDBRANCH   5   8
ENDBRANCH   1   2
BRANCH   1  17
ATOM     17  N   UNL     1      48.232   7.019  15.154  0.00  0.00    +0.000 N 
ATOM     18  C   UNL     1      49.107   6.685  16.157  0.00  0.00    +0.000 C 
ATOM     19  O   UNL     1      50.244   6.280  15.945  0.00  0.00    +0.000 OA
ATOM     20  H   UNL     1      47.248   7.055  15.395  0.00  0.00    +0.000 HD
BRANCH  18  21
ATOM     21  C   UNL     1      48.620   6.891  17.527  0.00  0.00    +0.000 A 
ATOM     22  C   UNL     1      48.214   8.154  17.938  0.00  0.00    +0.000 A 
ATOM     23  S   UNL     1      47.682   8.204  19.558  0.00  0.00    +0.000 S 
ATOM     24  C   UNL     1      48.023   6.551  19.780  0.00  0.00    +0.000 A 
ATOM     25  N   UNL     1      47.837   5.948  20.984  0.00  0.00    +0.000 NA
ATOM     26  C   UNL     1      48.176   4.703  21.017  0.00  0.00    +0.000 A 
ATOM     27  N   UNL     1      48.664   3.995  19.950  0.00  0.00    +0.000 N 
ATOM     28  C   UNL     1      48.811   4.546  18.703  0.00  0.00    +0.000 A 
ATOM     29  O   UNL     1      49.151   3.864  17.741  0.00  0.00    +0.000 OA
ATOM     30  C   UNL     1      48.496   5.960  18.623  0.00  0.00    +0.000 A 
ATOM     31  H   UNL     1      48.880   3.011  20.032  0.00  0.00    +0.000 HD
ENDBRANCH  18  21
ENDBRANCH   1  17
BRANCH   1  32
ATOM     32  C   UNL     1      49.016   8.078  13.015  0.00  0.00    +0.000 C 
BRANCH  32  33
ATOM     33  N   UNL     1      49.919   7.841  11.878  0.00  0.00    +0.000 NA
ATOM     34  H   UNL     1      49.860   6.858  11.616  0.00  0.00    +0.000 HD
ATOM     35  H   UNL     1      50.884   7.989  12.179  0.00  0.00    +0.000 HD
ENDBRANCH  32  33
ENDBRANCH   1  32
TORSDOF 7
ENDMDL
MODEL 6
REMARK VINA RESULT:    -7.316      1.525      1.912
REMARK INTER + INTRA:         -11.052
REMARK INTER:                  -9.859
REMARK INTRA:                  -1.192
REMARK UNBOUND:                -0.956
REMARK  Name = 
REMARK  7 active torsions:
REMARK  status: ('A' for Active; 'I' for Inactive)
REMARK    1  A    between atoms: N_1  and  C_2
REMARK    2  A    between atoms: C_2  and  C_3
REMARK    3  A    between atoms: C_3  and  N_4
REMARK    4  A    between atoms: C_3  and  C_17
REMARK    5  A    between atoms: C_5  and  C_7
REMARK    6  A    between atoms: C_20  and  C_21
REMARK    7  A    between atoms: C_21  and  N_22
REMARK                            x       y       z     vdW  Elec       q    Type
REMARK                         _______ _______ _______ _____ _____    ______ ____
ROOT
ATOM      1  C   UNL     1      48.638   6.658  14.050  0.00  0.00    +0.000 C 
ENDROOT
BRANCH   1   2
ATOM      2  C   UNL     1      47.375   6.253  13.282  0.00  0.00    +0.000 A 
ATOM      3  C   UNL     1      46.695   5.078  13.643  0.00  0.00    +0.000 A 
ATOM      4  C   UNL     1      45.595   4.626  12.907  0.00  0.00    +0.000 A 
ATOM      5  C   UNL     1      45.137   5.342  11.795  0.00  0.00    +0.000 A 
ATOM      6  C   UNL     1      45.780   6.539  11.455  0.00  0.00    +0.000 A 
ATOM      7  C   UNL     1      46.896   6.980  12.178  0.00  0.00    +0.000 A 
BRANCH   5   8
ATOM      8  C   UNL     1      43.991   4.811  10.957  0.00  0.00    +0.000 C 
BRANCH   8   9
ATOM      9  N   UNL     1      44.200   3.405  10.634  0.00  0.00    +0.000 N 
ATOM     10  C   UNL     1      44.981   3.213   9.479  0.00  0.00    +0.000 A 
ATOM     11  C   UNL     1      45.256   1.908   9.072  0.00  0.00    +0.000 A 
ATOM     12  C   UNL     1      46.035   1.689   7.936  0.00  0.00    +0.000 A 
ATOM     13  C   UNL     1      46.530   2.777   7.233  0.00  0.00    +0.000 A 
ATOM     14  C   UNL     1      46.227   4.039   7.707  0.00  0.00    +0.000 A 
ATOM     15  N   UNL     1      45.475   4.272   8.806  0.00  0.00    +0.000 NA
ATOM     16  H   UNL     1      43.321   2.908  10.528  0.00  0.00    +0.000 HD
ENDBRANCH   8   9
ENDBRANCH   5   8
ENDBRANCH   1   2
BRANCH   1  17
ATOM     17  N   UNL     1      48.313   6.914  15.450  0.00  0.00    +0.000 N 
ATOM     18  C   UNL     1      48.957   6.308  16.500  0.00  0.00    +0.000 C 
ATOM     19  O   UNL     1      49.943   5.595  16.358  0.00  0.00    +0.000 OA
ATOM     20  H   UNL     1      47.364   7.228  15.614  0.00  0.00    +0.000 HD
BRANCH  18  21
ATOM     21  C   UNL     1      48.425   6.607  17.836  0.00  0.00    +0.000 A 
ATOM     22  C   UNL     1      48.166   5.574  18.728  0.00  0.00    +0.000 A 
ATOM     23  S   UNL     1      47.552   6.107  20.227  0.00  0.00    +0.000 S 
ATOM     24  C   UNL     1      47.564   7.731  19.717  0.00  0.00    +0.000 A 
ATOM     25  N   UNL     1      47.106   8.726  20.523  0.00  0.00    +0.000 NA
ATOM     26  C   UNL     1      47.136   9.902  19.991  0.00  0.00    +0.000 A 
ATOM     27  N   UNL     1      47.603  10.181  18.733  0.00  0.00    +0.000 N 
ATOM     28  C   UNL     1      48.129   9.219  17.909  0.00  0.00    +0.000 A 
ATOM     29  O   UNL     1      48.635   9.511  16.831  0.00  0.00    +0.000 OA
ATOM     30  C   UNL     1      48.068   7.869  18.438  0.00  0.00    +0.000 A 
ATOM     31  H   UNL     1      47.631  11.130  18.387  0.00  0.00    +0.000 HD
ENDBRANCH  18  21
ENDBRANCH   1  17
BRANCH   1  32
ATOM     32  C   UNL     1      49.334   7.878  13.368  0.00  0.00    +0.000 C 
BRANCH  32  33
ATOM     33  N   UNL     1      49.987   8.823  14.288  0.00  0.00    +0.000 NA
ATOM     34  H   UNL     1      50.339   8.303  15.091  0.00  0.00    +0.000 HD
ATOM     35  H   UNL     1      49.287   9.467  14.659  0.00  0.00    +0.000 HD
ENDBRANCH  32  33
ENDBRANCH   1  32
TORSDOF 7
ENDMDL
MODEL 7
REMARK VINA RESULT:    -7.262      3.572      8.500
REMARK INTER + INTRA:         -10.978
REMARK INTER:                  -9.777
REMARK INTRA:                  -1.201
REMARK UNBOUND:                -0.956
REMARK  Name = 
REMARK  7 active torsions:
REMARK  status: ('A' for Active; 'I' for Inactive)
REMARK    1  A    between atoms: N_1  and  C_2
REMARK    2  A    between atoms: C_2  and  C_3
REMARK    3  A    between atoms: C_3  and  N_4
REMARK    4  A    between atoms: C_3  and  C_17
REMARK    5  A    between atoms: C_5  and  C_7
REMARK    6  A    between atoms: C_20  and  C_21
REMARK    7  A    between atoms: C_21  and  N_22
REMARK                            x       y       z     vdW  Elec       q    Type
REMARK                         _______ _______ _______ _____ _____    ______ ____
ROOT
ATOM      1  C   UNL     1      47.945   7.115  13.666  0.00  0.00    +0.000 C 
ENDROOT
BRANCH   1   2
ATOM      2  C   UNL     1      48.285   6.342  14.945  0.00  0.00    +0.000 A 
ATOM      3  C   UNL     1      49.389   6.738  15.718  0.00  0.00    +0.000 A 
ATOM      4  C   UNL     1      49.787   6.001  16.838  0.00  0.00    +0.000 A 
ATOM      5  C   UNL     1      49.086   4.852  17.224  0.00  0.00    +0.000 A 
ATOM      6  C   UNL     1      47.957   4.476  16.486  0.00  0.00    +0.000 A 
ATOM      7  C   UNL     1      47.571   5.201  15.350  0.00  0.00    +0.000 A 
BRANCH   5   8
ATOM      8  C   UNL     1      49.563   4.016  18.394  0.00  0.00    +0.000 C 
BRANCH   8   9
ATOM      9  N   UNL     1      49.880   2.661  17.961  0.00  0.00    +0.000 N 
ATOM     10  C   UNL     1      51.264   2.425  17.854  0.00  0.00    +0.000 A 
ATOM     11  C   UNL     1      51.694   1.160  17.453  0.00  0.00    +0.000 A 
ATOM     12  C   UNL     1      53.059   0.896  17.348  0.00  0.00    +0.000 A 
ATOM     13  C   UNL     1      53.969   1.899  17.649  0.00  0.00    +0.000 A 
ATOM     14  C   UNL     1      53.467   3.121  18.053  0.00  0.00    +0.000 A 
ATOM     15  N   UNL     1      52.148   3.396  18.163  0.00  0.00    +0.000 NA
ATOM     16  H   UNL     1      49.434   2.433  17.079  0.00  0.00    +0.000 HD
ENDBRANCH   8   9
ENDBRANCH   5   8
ENDBRANCH   1   2
BRANCH   1  17
ATOM     17  N   UNL     1      47.315   6.226  12.695  0.00  0.00    +0.000 N 
ATOM     18  C   UNL     1      46.293   6.613  11.865  0.00  0.00    +0.000 C 
ATOM     19  O   UNL     1      45.903   7.772  11.779  0.00  0.00    +0.000 OA
ATOM     20  H   UNL     1      47.372   5.240  12.924  0.00  0.00    +0.000 HD
BRANCH  18  21
ATOM     21  C   UNL     1      45.712   5.555  11.028  0.00  0.00    +0.000 A 
ATOM     22  C   UNL     1      45.831   5.619   9.645  0.00  0.00    +0.000 A 
ATOM     23  S   UNL     1      45.096   4.308   8.838  0.00  0.00    +0.000 S 
ATOM     24  C   UNL     1      44.549   3.639  10.305  0.00  0.00    +0.000 A 
ATOM     25  N   UNL     1      43.794   2.509  10.326  0.00  0.00    +0.000 NA
ATOM     26  C   UNL     1      43.417   2.139  11.504  0.00  0.00    +0.000 A 
ATOM     27  N   UNL     1      43.743   2.783  12.669  0.00  0.00    +0.000 N 
ATOM     28  C   UNL     1      44.550   3.891  12.700  0.00  0.00    +0.000 A 
ATOM     29  O   UNL     1      44.911   4.386  13.762  0.00  0.00    +0.000 OA
ATOM     30  C   UNL     1      44.958   4.382  11.397  0.00  0.00    +0.000 A 
ATOM     31  H   UNL     1      43.443   2.423  13.565  0.00  0.00    +0.000 HD
ENDBRANCH  18  21
ENDBRANCH   1  17
BRANCH   1  32
ATOM     32  C   UNL     1      49.214   7.822  13.092  0.00  0.00    +0.000 C 
BRANCH  32  33
ATOM     33  N   UNL     1      49.966   7.044  12.094  0.00  0.00    +0.000 NA
ATOM     34  H   UNL     1      50.936   6.976  12.401  0.00  0.00    +0.000 HD
ATOM     35  H   UNL     1      49.989   7.562  11.214  0.00  0.00    +0.000 HD
ENDBRANCH  32  33
ENDBRANCH   1  32
TORSDOF 7
ENDMDL
MODEL 8
REMARK VINA RESULT:    -7.052      2.907      4.056
REMARK INTER + INTRA:         -10.688
REMARK INTER:                  -9.770
REMARK INTRA:                  -0.918
REMARK UNBOUND:                -0.956
REMARK  Name = 
REMARK  7 active torsions:
REMARK  status: ('A' for Active; 'I' for Inactive)
REMARK    1  A    between atoms: N_1  and  C_2
REMARK    2  A    between atoms: C_2  and  C_3
REMARK    3  A    between atoms: C_3  and  N_4
REMARK    4  A    between atoms: C_3  and  C_17
REMARK    5  A    between atoms: C_5  and  C_7
REMARK    6  A    between atoms: C_20  and  C_21
REMARK    7  A    between atoms: C_21  and  N_22
REMARK                            x       y       z     vdW  Elec       q    Type
REMARK                         _______ _______ _______ _____ _____    ______ ____
ROOT
ATOM      1  C   UNL     1      47.157   4.974  15.503  0.00  0.00    +0.000 C 
ENDROOT
BRANCH   1   2
ATOM      2  C   UNL     1      46.529   4.615  14.151  0.00  0.00    +0.000 A 
ATOM      3  C   UNL     1      45.823   5.596  13.437  0.00  0.00    +0.000 A 
ATOM      4  C   UNL     1      45.157   5.283  12.247  0.00  0.00    +0.000 A 
ATOM      5  C   UNL     1      45.188   3.981  11.732  0.00  0.00    +0.000 A 
ATOM      6  C   UNL     1      45.929   3.008  12.414  0.00  0.00    +0.000 A 
ATOM      7  C   UNL     1      46.577   3.315  13.617  0.00  0.00    +0.000 A 
BRANCH   5   8
ATOM      8  C   UNL     1      44.407   3.629  10.483  0.00  0.00    +0.000 C 
BRANCH   8   9
ATOM      9  N   UNL     1      44.854   2.352   9.940  0.00  0.00    +0.000 N 
ATOM     10  C   UNL     1      45.628   2.488   8.772  0.00  0.00    +0.000 A 
ATOM     11  C   UNL     1      46.120   1.335   8.162  0.00  0.00    +0.000 A 
ATOM     12  C   UNL     1      46.897   1.442   7.009  0.00  0.00    +0.000 A 
ATOM     13  C   UNL     1      47.172   2.699   6.491  0.00  0.00    +0.000 A 
ATOM     14  C   UNL     1      46.662   3.795   7.159  0.00  0.00    +0.000 A 
ATOM     15  N   UNL     1      45.908   3.712   8.279  0.00  0.00    +0.000 NA
ATOM     16  H   UNL     1      44.075   1.729   9.753  0.00  0.00    +0.000 HD
ENDBRANCH   8   9
ENDBRANCH   5   8
ENDBRANCH   1   2
BRANCH   1  17
ATOM     17  N   UNL     1      48.326   5.825  15.303  0.00  0.00    +0.000 N 
ATOM     18  C   UNL     1      48.805   6.689  16.255  0.00  0.00    +0.000 C 
ATOM     19  O   UNL     1      48.370   6.732  17.400  0.00  0.00    +0.000 OA
ATOM     20  H   UNL     1      48.524   6.052  14.335  0.00  0.00    +0.000 HD
BRANCH  18  21
ATOM     21  C   UNL     1      49.926   7.542  15.840  0.00  0.00    +0.000 A 
ATOM     22  C   UNL     1      49.680   8.766  15.231  0.00  0.00    +0.000 A 
ATOM     23  S   UNL     1      51.098   9.618  14.816  0.00  0.00    +0.000 S 
ATOM     24  C   UNL     1      52.089   8.358  15.390  0.00  0.00    +0.000 A 
ATOM     25  N   UNL     1      53.443   8.426  15.290  0.00  0.00    +0.000 NA
ATOM     26  C   UNL     1      54.065   7.382  15.728  0.00  0.00    +0.000 A 
ATOM     27  N   UNL     1      53.459   6.283  16.279  0.00  0.00    +0.000 N 
ATOM     28  C   UNL     1      52.101   6.198  16.455  0.00  0.00    +0.000 A 
ATOM     29  O   UNL     1      51.594   5.250  17.044  0.00  0.00    +0.000 OA
ATOM     30  C   UNL     1      51.349   7.322  15.929  0.00  0.00    +0.000 A 
ATOM     31  H   UNL     1      54.005   5.511  16.636  0.00  0.00    +0.000 HD
ENDBRANCH  18  21
ENDBRANCH   1  17
BRANCH   1  32
ATOM     32  C   UNL     1      47.491   3.684  16.318  0.00  0.00    +0.000 C 
BRANCH  32  33
ATOM     33  N   UNL     1      46.607   3.420  17.464  0.00  0.00    +0.000 NA
ATOM     34  H   UNL     1      45.720   3.898  17.307  0.00  0.00    +0.000 HD
ATOM     35  H   UNL     1      47.007   3.847  18.301  0.00  0.00    +0.000 HD
ENDBRANCH  32  33
ENDBRANCH   1  32
TORSDOF 7
ENDMDL
MODEL 9
REMARK VINA RESULT:    -6.903      4.330      8.596
REMARK INTER + INTRA:         -10.482
REMARK INTER:                  -9.505
REMARK INTRA:                  -0.977
REMARK UNBOUND:                -0.956
REMARK  Name = 
REMARK  7 active torsions:
REMARK  status: ('A' for Active; 'I' for Inactive)
REMARK    1  A    between atoms: N_1  and  C_2
REMARK    2  A    between atoms: C_2  and  C_3
REMARK    3  A    between atoms: C_3  and  N_4
REMARK    4  A    between atoms: C_3  and  C_17
REMARK    5  A    between atoms: C_5  and  C_7
REMARK    6  A    between atoms: C_20  and  C_21
REMARK    7  A    between atoms: C_21  and  N_22
REMARK                            x       y       z     vdW  Elec       q    Type
REMARK                         _______ _______ _______ _____ _____    ______ ____
ROOT
ATOM      1  C   UNL     1      47.896   4.138  16.534  0.00  0.00    +0.000 C 
ENDROOT
BRANCH   1   2
ATOM      2  C   UNL     1      49.242   4.819  16.812  0.00  0.00    +0.000 A 
ATOM      3  C   UNL     1      49.447   6.141  16.385  0.00  0.00    +0.000 A 
ATOM      4  C   UNL     1      50.691   6.764  16.537  0.00  0.00    +0.000 A 
ATOM      5  C   UNL     1      51.762   6.084  17.130  0.00  0.00    +0.000 A 
ATOM      6  C   UNL     1      51.552   4.782  17.601  0.00  0.00    +0.000 A 
ATOM      7  C   UNL     1      50.314   4.150  17.428  0.00  0.00    +0.000 A 
BRANCH   5   8
ATOM      8  C   UNL     1      53.127   6.735  17.227  0.00  0.00    +0.000 C 
BRANCH   8   9
ATOM      9  N   UNL     1      54.126   5.938  16.527  0.00  0.00    +0.000 N 
ATOM     10  C   UNL     1      54.418   6.426  15.239  0.00  0.00    +0.000 A 
ATOM     11  C   UNL     1      55.366   5.750  14.471  0.00  0.00    +0.000 A 
ATOM     12  C   UNL     1      55.681   6.217  13.195  0.00  0.00    +0.000 A 
ATOM     13  C   UNL     1      55.047   7.352  12.713  0.00  0.00    +0.000 A 
ATOM     14  C   UNL     1      54.131   7.975  13.538  0.00  0.00    +0.000 A 
ATOM     15  N   UNL     1      53.813   7.540  14.777  0.00  0.00    +0.000 NA
ATOM     16  H   UNL     1      53.852   4.964  16.460  0.00  0.00    +0.000 HD
ENDBRANCH   8   9
ENDBRANCH   5   8
ENDBRANCH   1   2
BRANCH   1  17
ATOM     17  N   UNL     1      47.141   4.906  15.547  0.00  0.00    +0.000 N 
ATOM     18  C   UNL     1      46.900   4.466  14.270  0.00  0.00    +0.000 C 
ATOM     19  O   UNL     1      47.189   3.340  13.883  0.00  0.00    +0.000 OA
ATOM     20  H   UNL     1      47.149   5.909  15.694  0.00  0.00    +0.000 HD
BRANCH  18  21
ATOM     21  C   UNL     1      46.214   5.417  13.385  0.00  0.00    +0.000 A 
ATOM     22  C   UNL     1      46.803   6.640  13.088  0.00  0.00    +0.000 A 
ATOM     23  S   UNL     1      45.865   7.613  12.048  0.00  0.00    +0.000 S 
ATOM     24  C   UNL     1      44.617   6.455  12.000  0.00  0.00    +0.000 A 
ATOM     25  N   UNL     1      43.469   6.685  11.309  0.00  0.00    +0.000 NA
ATOM     26  C   UNL     1      42.595   5.739  11.394  0.00  0.00    +0.000 A 
ATOM     27  N   UNL     1      42.770   4.570  12.089  0.00  0.00    +0.000 N 
ATOM     28  C   UNL     1      43.934   4.271  12.750  0.00  0.00    +0.000 A 
ATOM     29  O   UNL     1      44.104   3.176  13.275  0.00  0.00    +0.000 OA
ATOM     30  C   UNL     1      44.931   5.325  12.732  0.00  0.00    +0.000 A 
ATOM     31  H   UNL     1      42.059   3.852  12.088  0.00  0.00    +0.000 HD
ENDBRANCH  18  21
ENDBRANCH   1  17
BRANCH   1  32
ATOM     32  C   UNL     1      47.099   3.924  17.859  0.00  0.00    +0.000 C 
BRANCH  32  33
ATOM     33  N   UNL     1      46.568   5.149  18.476  0.00  0.00    +0.000 NA
ATOM     34  H   UNL     1      46.122   4.901  19.358  0.00  0.00    +0.000 HD
ATOM     35  H   UNL     1      45.824   5.526  17.885  0.00  0.00    +0.000 HD
ENDBRANCH  32  33
ENDBRANCH   1  32
TORSDOF 7
ENDMDL
