MODEL 1
REMARK VINA RESULT:    -7.071      0.000      0.000
REMARK INTER + INTRA:         -10.821
REMARK INTER:                  -9.964
REMARK INTRA:                  -0.857
REMARK UNBOUND:                -0.857
REMARK  Name = 
REMARK  8 active torsions:
REMARK  status: ('A' for Active; 'I' for Inactive)
REMARK    1  A    between atoms: C_1  and  O_2
REMARK    2  A    between atoms: O_2  and  C_3
REMARK    3  A    between atoms: C_10  and  C_11
REMARK    4  A    between atoms: N_13  and  C_14
REMARK    5  A    between atoms: C_14  and  C_15
REMARK    6  A    between atoms: C_18  and  S_19
REMARK    7  A    between atoms: S_19  and  C_20
REMARK    8  A    between atoms: C_20  and  C_21
REMARK                            x       y       z     vdW  Elec       q    Type
REMARK                         _______ _______ _______ _____ _____    ______ ____
ROOT
ATOM      1  C   UNL     1      47.308   3.371  16.825  0.00  0.00    +0.000 C 
ENDROOT
BRANCH   1   2
ATOM      2  C   UNL     1      48.795   3.405  17.089  0.00  0.00    +0.000 A 
ATOM      3  C   UNL     1      49.441   4.605  17.415  0.00  0.00    +0.000 A 
ATOM      4  C   UNL     1      50.808   4.623  17.729  0.00  0.00    +0.000 A 
ATOM      5  C   UNL     1      51.556   3.443  17.719  0.00  0.00    +0.000 A 
ATOM      6  C   UNL     1      50.928   2.259  17.319  0.00  0.00    +0.000 A 
ATOM      7  C   UNL     1      49.564   2.238  17.003  0.00  0.00    +0.000 A 
BRANCH   5   8
ATOM      8  S   UNL     1      53.292   3.345  18.139  0.00  0.00    +0.000 S 
BRANCH   8   9
ATOM      9  C   UNL     1      53.524   1.562  18.481  0.00  0.00    +0.000 C 
BRANCH   9  10
ATOM     10  C   UNL     1      54.948   1.057  18.141  0.00  0.00    +0.000 C 
ATOM     11  C   UNL     1      55.062   0.764  16.632  0.00  0.00    +0.000 C 
ATOM     12  C   UNL     1      54.284  -0.493  16.230  0.00  0.00    +0.000 C 
ATOM     13  N   UNL     1      54.681  -1.662  17.014  0.00  0.00    +0.000 NA
ATOM     14  C   UNL     1      54.543  -1.426  18.454  0.00  0.00    +0.000 C 
ATOM     15  C   UNL     1      55.363  -0.218  18.898  0.00  0.00    +0.000 C 
ATOM     16  H   UNL     1      55.659  -1.875  16.813  0.00  0.00    +0.000 HD
ENDBRANCH   9  10
ENDBRANCH   8   9
ENDBRANCH   5   8
ENDBRANCH   1   2
BRANCH   1  19
ATOM     17  C   UNL     1      46.941   4.213  14.535  0.00  0.00    +0.000 C 
ATOM     18  O   UNL     1      47.309   3.153  14.036  0.00  0.00    +0.000 OA
ATOM     19  N   UNL     1      46.911   4.391  15.896  0.00  0.00    +0.000 N 
ATOM     20  H   UNL     1      46.592   5.267  16.281  0.00  0.00    +0.000 HD
BRANCH  17  28
ATOM     21  C   UNL     1      44.201   4.783  12.538  0.00  0.00    +0.000 A 
ATOM     22  N   UNL     1      43.235   5.270  11.735  0.00  0.00    +0.000 NA
ATOM     23  C   UNL     1      43.384   6.505  11.252  0.00  0.00    +0.000 A 
ATOM     24  N   UNL     1      44.401   7.335  11.472  0.00  0.00    +0.000 NA
ATOM     25  C   UNL     1      45.340   6.813  12.280  0.00  0.00    +0.000 A 
ATOM     26  S   UNL     1      46.717   7.728  12.668  0.00  0.00    +0.000 S 
ATOM     27  C   UNL     1      47.335   6.479  13.642  0.00  0.00    +0.000 A 
ATOM     28  C   UNL     1      46.519   5.354  13.700  0.00  0.00    +0.000 A 
ATOM     29  C   UNL     1      45.331   5.553  12.869  0.00  0.00    +0.000 A 
BRANCH  21  31
ATOM     30  C   UNL     1      43.447   2.595  12.097  0.00  0.00    +0.000 C 
ATOM     31  O   UNL     1      44.075   3.493  13.007  0.00  0.00    +0.000 OA
ENDBRANCH  21  31
ENDBRANCH  17  28
ENDBRANCH   1  19
TORSDOF 7
ENDMDL
MODEL 2
REMARK VINA RESULT:    -6.787      2.750      3.676
REMARK INTER + INTRA:         -10.421
REMARK INTER:                  -9.267
REMARK INTRA:                  -1.154
REMARK UNBOUND:                -0.857
REMARK  Name = 
REMARK  8 active torsions:
REMARK  status: ('A' for Active; 'I' for Inactive)
REMARK    1  A    between atoms: C_1  and  O_2
REMARK    2  A    between atoms: O_2  and  C_3
REMARK    3  A    between atoms: C_10  and  C_11
REMARK    4  A    between atoms: N_13  and  C_14
REMARK    5  A    between atoms: C_14  and  C_15
REMARK    6  A    between atoms: C_18  and  S_19
REMARK    7  A    between atoms: S_19  and  C_20
REMARK    8  A    between atoms: C_20  and  C_21
REMARK                            x       y       z     vdW  Elec       q    Type
REMARK                         _______ _______ _______ _____ _____    ______ ____
ROOT
ATOM      1  C   UNL     1      47.187   3.430  16.993  0.00  0.00    +0.000 C 
ENDROOT
BRANCH   1   2
ATOM      2  C   UNL     1      48.660   3.309  17.304  0.00  0.00    +0.000 A 
ATOM      3  C   UNL     1      49.380   2.160  16.947  0.00  0.00    +0.000 A 
ATOM      4  C   UNL     1      50.762   2.080  17.173  0.00  0.00    +0.000 A 
ATOM      5  C   UNL     1      51.451   3.144  17.762  0.00  0.00    +0.000 A 
ATOM      6  C   UNL     1      50.718   4.258  18.187  0.00  0.00    +0.000 A 
ATOM      7  C   UNL     1      49.338   4.340  17.965  0.00  0.00    +0.000 A 
BRANCH   5   8
ATOM      8  S   UNL     1      53.213   3.163  18.061  0.00  0.00    +0.000 S 
BRANCH   8   9
ATOM      9  C   UNL     1      53.482   4.824  18.781  0.00  0.00    +0.000 C 
BRANCH   9  10
ATOM     10  C   UNL     1      54.432   5.708  17.937  0.00  0.00    +0.000 C 
ATOM     11  C   UNL     1      54.502   7.130  18.529  0.00  0.00    +0.000 C 
ATOM     12  C   UNL     1      53.207   7.914  18.293  0.00  0.00    +0.000 C 
ATOM     13  N   UNL     1      52.841   7.962  16.878  0.00  0.00    +0.000 NA
ATOM     14  C   UNL     1      52.726   6.621  16.299  0.00  0.00    +0.000 C 
ATOM     15  C   UNL     1      54.027   5.836  16.457  0.00  0.00    +0.000 C 
ATOM     16  H   UNL     1      53.563   8.474  16.369  0.00  0.00    +0.000 HD
ENDBRANCH   9  10
ENDBRANCH   8   9
ENDBRANCH   5   8
ENDBRANCH   1   2
BRANCH   1  19
ATOM     17  C   UNL     1      47.028   4.178  14.648  0.00  0.00    +0.000 C 
ATOM     18  O   UNL     1      47.328   3.065  14.223  0.00  0.00    +0.000 OA
ATOM     19  N   UNL     1      46.936   4.429  15.993  0.00  0.00    +0.000 N 
ATOM     20  H   UNL     1      46.675   5.349  16.316  0.00  0.00    +0.000 HD
BRANCH  17  28
ATOM     21  C   UNL     1      44.315   5.053  12.726  0.00  0.00    +0.000 A 
ATOM     22  N   UNL     1      43.400   5.635  11.925  0.00  0.00    +0.000 NA
ATOM     23  C   UNL     1      43.728   6.784  11.330  0.00  0.00    +0.000 A 
ATOM     24  N   UNL     1      44.882   7.440  11.433  0.00  0.00    +0.000 NA
ATOM     25  C   UNL     1      45.763   6.829  12.243  0.00  0.00    +0.000 A 
ATOM     26  S   UNL     1      47.294   7.520  12.491  0.00  0.00    +0.000 S 
ATOM     27  C   UNL     1      47.747   6.264  13.543  0.00  0.00    +0.000 A 
ATOM     28  C   UNL     1      46.758   5.305  13.734  0.00  0.00    +0.000 A 
ATOM     29  C   UNL     1      45.575   5.640  12.940  0.00  0.00    +0.000 A 
BRANCH  21  31
ATOM     30  C   UNL     1      43.609   2.831  12.391  0.00  0.00    +0.000 C 
ATOM     31  O   UNL     1      43.999   3.846  13.310  0.00  0.00    +0.000 OA
ENDBRANCH  21  31
ENDBRANCH  17  28
ENDBRANCH   1  19
TORSDOF 7
ENDMDL
MODEL 3
REMARK VINA RESULT:    -6.689      4.648      9.208
REMARK INTER + INTRA:         -10.283
REMARK INTER:                  -9.188
REMARK INTRA:                  -1.095
REMARK UNBOUND:                -0.857
REMARK  Name = 
REMARK  8 active torsions:
REMARK  status: ('A' for Active; 'I' for Inactive)
REMARK    1  A    between atoms: C_1  and  O_2
REMARK    2  A    between atoms: O_2  and  C_3
REMARK    3  A    between atoms: C_10  and  C_11
REMARK    4  A    between atoms: N_13  and  C_14
REMARK    5  A    between atoms: C_14  and  C_15
REMARK    6  A    between atoms: C_18  and  S_19
REMARK    7  A    between atoms: S_19  and  C_20
REMARK    8  A    between atoms: C_20  and  C_21
REMARK                            x       y       z     vdW  Elec       q    Type
REMARK                         _______ _______ _______ _____ _____    ______ ____
ROOT
ATOM      1  C   UNL     1      48.906   7.080  13.665  0.00  0.00    +0.000 C 
ENDROOT
BRANCH   1   2
ATOM      2  C   UNL     1      47.675   6.438  13.069  0.00  0.00    +0.000 A 
ATOM      3  C   UNL     1      47.178   6.852  11.825  0.00  0.00    +0.000 A 
ATOM      4  C   UNL     1      46.078   6.207  11.240  0.00  0.00    +0.000 A 
ATOM      5  C   UNL     1      45.453   5.138  11.888  0.00  0.00    +0.000 A 
ATOM      6  C   UNL     1      45.902   4.776  13.163  0.00  0.00    +0.000 A 
ATOM      7  C   UNL     1      46.998   5.420  13.750  0.00  0.00    +0.000 A 
BRANCH   5   8
ATOM      8  S   UNL     1      44.071   4.222  11.218  0.00  0.00    +0.000 S 
BRANCH   8   9
ATOM      9  C   UNL     1      44.885   2.792  10.417  0.00  0.00    +0.000 C 
BRANCH   9  10
ATOM     10  C   UNL     1      44.420   2.565   8.958  0.00  0.00    +0.000 C 
ATOM     11  C   UNL     1      45.083   1.299   8.379  0.00  0.00    +0.000 C 
ATOM     12  C   UNL     1      46.576   1.507   8.103  0.00  0.00    +0.000 C 
ATOM     13  N   UNL     1      46.820   2.660   7.236  0.00  0.00    +0.000 NA
ATOM     14  C   UNL     1      46.237   3.888   7.783  0.00  0.00    +0.000 C 
ATOM     15  C   UNL     1      44.734   3.735   8.006  0.00  0.00    +0.000 C 
ATOM     16  H   UNL     1      46.399   2.480   6.323  0.00  0.00    +0.000 HD
ENDBRANCH   9  10
ENDBRANCH   8   9
ENDBRANCH   5   8
ENDBRANCH   1   2
BRANCH   1  19
ATOM     17  C   UNL     1      49.993   7.257  15.873  0.00  0.00    +0.000 C 
ATOM     18  O   UNL     1      51.085   7.502  15.368  0.00  0.00    +0.000 OA
ATOM     19  N   UNL     1      48.879   7.042  15.101  0.00  0.00    +0.000 N 
ATOM     20  H   UNL     1      47.991   6.856  15.541  0.00  0.00    +0.000 HD
BRANCH  17  28
ATOM     21  C   UNL     1      49.102   4.703  17.996  0.00  0.00    +0.000 A 
ATOM     22  N   UNL     1      48.818   3.891  19.032  0.00  0.00    +0.000 NA
ATOM     23  C   UNL     1      48.862   4.405  20.263  0.00  0.00    +0.000 A 
ATOM     24  N   UNL     1      49.159   5.659  20.599  0.00  0.00    +0.000 NA
ATOM     25  C   UNL     1      49.439   6.434  19.537  0.00  0.00    +0.000 A 
ATOM     26  S   UNL     1      49.835   8.068  19.773  0.00  0.00    +0.000 S 
ATOM     27  C   UNL     1      50.040   8.312  18.103  0.00  0.00    +0.000 A 
ATOM     28  C   UNL     1      49.821   7.173  17.336  0.00  0.00    +0.000 A 
ATOM     29  C   UNL     1      49.446   6.052  18.200  0.00  0.00    +0.000 A 
BRANCH  21  31
ATOM     30  C   UNL     1      47.870   3.379  16.487  0.00  0.00    +0.000 C 
ATOM     31  O   UNL     1      49.016   4.191  16.720  0.00  0.00    +0.000 OA
ENDBRANCH  21  31
ENDBRANCH  17  28
ENDBRANCH   1  19
TORSDOF 7
ENDMDL
MODEL 4
REMARK VINA RESULT:    -6.662      2.589      9.746
REMARK INTER + INTRA:         -10.245
REMARK INTER:                  -9.101
REMARK INTRA:                  -1.144
REMARK UNBOUND:                -0.857
REMARK  Name = 
REMARK  8 active torsions:
REMARK  status: ('A' for Active; 'I' for Inactive)
REMARK    1  A    between atoms: C_1  and  O_2
REMARK    2  A    between atoms: O_2  and  C_3
REMARK    3  A    between atoms: C_10  and  C_11
REMARK    4  A    between atoms: N_13  and  C_14
REMARK    5  A    between atoms: C_14  and  C_15
REMARK    6  A    between atoms: C_18  and  S_19
REMARK    7  A    between atoms: S_19  and  C_20
REMARK    8  A    between atoms: C_20  and  C_21
REMARK                            x       y       z     vdW  Elec       q    Type
REMARK                         _______ _______ _______ _____ _____    ______ ____
ROOT
ATOM      1  C   UNL     1      48.218   3.452  17.903  0.00  0.00    +0.000 C 
ENDROOT
BRANCH   1   2
ATOM      2  C   UNL     1      47.924   4.235  16.646  0.00  0.00    +0.000 A 
ATOM      3  C   UNL     1      48.475   5.508  16.445  0.00  0.00    +0.000 A 
ATOM      4  C   UNL     1      48.258   6.204  15.247  0.00  0.00    +0.000 A 
ATOM      5  C   UNL     1      47.484   5.643  14.227  0.00  0.00    +0.000 A 
ATOM      6  C   UNL     1      46.871   4.407  14.460  0.00  0.00    +0.000 A 
ATOM      7  C   UNL     1      47.084   3.711  15.656  0.00  0.00    +0.000 A 
BRANCH   5   8
ATOM      8  S   UNL     1      47.175   6.424  12.649  0.00  0.00    +0.000 S 
BRANCH   8   9
ATOM      9  C   UNL     1      45.348   6.542  12.608  0.00  0.00    +0.000 C 
BRANCH   9  10
ATOM     10  C   UNL     1      44.743   6.139  11.241  0.00  0.00    +0.000 C 
ATOM     11  C   UNL     1      43.203   6.208  11.301  0.00  0.00    +0.000 C 
ATOM     12  C   UNL     1      42.610   5.075  12.145  0.00  0.00    +0.000 C 
ATOM     13  N   UNL     1      43.051   3.757  11.687  0.00  0.00    +0.000 NA
ATOM     14  C   UNL     1      44.511   3.649  11.661  0.00  0.00    +0.000 C 
ATOM     15  C   UNL     1      45.130   4.725  10.771  0.00  0.00    +0.000 C 
ATOM     16  H   UNL     1      42.697   3.603  10.742  0.00  0.00    +0.000 HD
ENDBRANCH   9  10
ENDBRANCH   8   9
ENDBRANCH   5   8
ENDBRANCH   1   2
BRANCH   1  19
ATOM     17  C   UNL     1      50.304   2.316  17.235  0.00  0.00    +0.000 C 
ATOM     18  O   UNL     1      49.739   1.711  16.328  0.00  0.00    +0.000 OA
ATOM     19  N   UNL     1      49.622   3.188  18.046  0.00  0.00    +0.000 N 
ATOM     20  H   UNL     1      50.112   3.683  18.776  0.00  0.00    +0.000 HD
BRANCH  17  28
ATOM     21  C   UNL     1      52.906   4.507  17.735  0.00  0.00    +0.000 A 
ATOM     22  N   UNL     1      54.072   5.129  17.994  0.00  0.00    +0.000 NA
ATOM     23  C   UNL     1      55.148   4.374  18.229  0.00  0.00    +0.000 A 
ATOM     24  N   UNL     1      55.208   3.045  18.236  0.00  0.00    +0.000 NA
ATOM     25  C   UNL     1      54.023   2.464  17.978  0.00  0.00    +0.000 A 
ATOM     26  S   UNL     1      53.910   0.770  17.940  0.00  0.00    +0.000 S 
ATOM     27  C   UNL     1      52.247   0.838  17.595  0.00  0.00    +0.000 A 
ATOM     28  C   UNL     1      51.742   2.132  17.507  0.00  0.00    +0.000 A 
ATOM     29  C   UNL     1      52.815   3.103  17.722  0.00  0.00    +0.000 A 
BRANCH  21  31
ATOM     30  C   UNL     1      52.056   6.371  16.572  0.00  0.00    +0.000 C 
ATOM     31  O   UNL     1      51.801   5.279  17.450  0.00  0.00    +0.000 OA
ENDBRANCH  21  31
ENDBRANCH  17  28
ENDBRANCH   1  19
TORSDOF 7
ENDMDL
MODEL 5
REMARK VINA RESULT:    -6.642      2.725      9.567
REMARK INTER + INTRA:         -10.216
REMARK INTER:                  -9.134
REMARK INTRA:                  -1.082
REMARK UNBOUND:                -0.857
REMARK  Name = 
REMARK  8 active torsions:
REMARK  status: ('A' for Active; 'I' for Inactive)
REMARK    1  A    between atoms: C_1  and  O_2
REMARK    2  A    between atoms: O_2  and  C_3
REMARK    3  A    between atoms: C_10  and  C_11
REMARK    4  A    between atoms: N_13  and  C_14
REMARK    5  A    between atoms: C_14  and  C_15
REMARK    6  A    between atoms: C_18  and  S_19
REMARK    7  A    between atoms: S_19  and  C_20
REMARK    8  A    between atoms: C_20  and  C_21
REMARK                            x       y       z     vdW  Elec       q    Type
REMARK                         _______ _______ _______ _____ _____    ______ ____
ROOT
ATOM      1  C   UNL     1      50.347   7.477  16.148  0.00  0.00    +0.000 C 
ENDROOT
BRANCH   1   2
ATOM      2  C   UNL     1      49.459   7.145  14.971  0.00  0.00    +0.000 A 
ATOM      3  C   UNL     1      48.377   6.265  15.112  0.00  0.00    +0.000 A 
ATOM      4  C   UNL     1      47.511   6.013  14.038  0.00  0.00    +0.000 A 
ATOM      5  C   UNL     1      47.712   6.633  12.801  0.00  0.00    +0.000 A 
ATOM      6  C   UNL     1      48.837   7.450  12.640  0.00  0.00    +0.000 A 
ATOM      7  C   UNL     1      49.704   7.701  13.711  0.00  0.00    +0.000 A 
BRANCH   5   8
ATOM      8  S   UNL     1      46.652   6.414  11.378  0.00  0.00    +0.000 S 
BRANCH   8   9
ATOM      9  C   UNL     1      45.335   5.317  12.021  0.00  0.00    +0.000 C 
BRANCH   9  10
ATOM     10  C   UNL     1      44.156   5.138  11.034  0.00  0.00    +0.000 C 
ATOM     11  C   UNL     1      43.012   4.356  11.710  0.00  0.00    +0.000 C 
ATOM     12  C   UNL     1      43.362   2.877  11.902  0.00  0.00    +0.000 C 
ATOM     13  N   UNL     1      43.755   2.235  10.647  0.00  0.00    +0.000 NA
ATOM     14  C   UNL     1      44.871   2.934  10.003  0.00  0.00    +0.000 C 
ATOM     15  C   UNL     1      44.527   4.398   9.735  0.00  0.00    +0.000 C 
ATOM     16  H   UNL     1      42.957   2.243  10.010  0.00  0.00    +0.000 HD
ENDBRANCH   9  10
ENDBRANCH   8   9
ENDBRANCH   5   8
ENDBRANCH   1   2
BRANCH   1  19
ATOM     17  C   UNL     1      51.337   6.069  17.916  0.00  0.00    +0.000 C 
ATOM     18  O   UNL     1      50.927   6.813  18.803  0.00  0.00    +0.000 OA
ATOM     19  N   UNL     1      51.088   6.330  16.592  0.00  0.00    +0.000 N 
ATOM     20  H   UNL     1      51.424   5.695  15.883  0.00  0.00    +0.000 HD
BRANCH  17  28
ATOM     21  C   UNL     1      50.835   2.718  17.335  0.00  0.00    +0.000 A 
ATOM     22  N   UNL     1      50.904   1.378  17.208  0.00  0.00    +0.000 NA
ATOM     23  C   UNL     1      51.982   0.757  17.690  0.00  0.00    +0.000 A 
ATOM     24  N   UNL     1      53.024   1.316  18.300  0.00  0.00    +0.000 NA
ATOM     25  C   UNL     1      52.918   2.653  18.403  0.00  0.00    +0.000 A 
ATOM     26  S   UNL     1      54.154   3.537  19.159  0.00  0.00    +0.000 S 
ATOM     27  C   UNL     1      53.337   5.004  18.892  0.00  0.00    +0.000 A 
ATOM     28  C   UNL     1      52.125   4.861  18.225  0.00  0.00    +0.000 A 
ATOM     29  C   UNL     1      51.870   3.446  17.948  0.00  0.00    +0.000 A 
BRANCH  21  31
ATOM     30  C   UNL     1      48.640   3.422  17.821  0.00  0.00    +0.000 C 
ATOM     31  O   UNL     1      49.705   3.361  16.878  0.00  0.00    +0.000 OA
ENDBRANCH  21  31
ENDBRANCH  17  28
ENDBRANCH   1  19
TORSDOF 7
ENDMDL
MODEL 6
REMARK VINA RESULT:    -6.532      3.930      5.559
REMARK INTER + INTRA:         -10.061
REMARK INTER:                  -8.785
REMARK INTRA:                  -1.276
REMARK UNBOUND:                -0.857
REMARK  Name = 
REMARK  8 active torsions:
REMARK  status: ('A' for Active; 'I' for Inactive)
REMARK    1  A    between atoms: C_1  and  O_2
REMARK    2  A    between atoms: O_2  and  C_3
REMARK    3  A    between atoms: C_10  and  C_11
REMARK    4  A    between atoms: N_13  and  C_14
REMARK    5  A    between atoms: C_14  and  C_15
REMARK    6  A    between atoms: C_18  and  S_19
REMARK    7  A    between atoms: S_19  and  C_20
REMARK    8  A    between atoms: C_20  and  C_21
REMARK                            x       y       z     vdW  Elec       q    Type
REMARK                         _______ _______ _______ _____ _____    ______ ____
ROOT
ATOM      1  C   UNL     1      48.323   8.150  11.804  0.00  0.00    +0.000 C 
ENDROOT
BRANCH   1   2
ATOM      2  C   UNL     1      48.812   7.889  13.210  0.00  0.00    +0.000 A 
ATOM      3  C   UNL     1      47.919   7.863  14.290  0.00  0.00    +0.000 A 
ATOM      4  C   UNL     1      48.365   7.550  15.583  0.00  0.00    +0.000 A 
ATOM      5  C   UNL     1      49.711   7.261  15.821  0.00  0.00    +0.000 A 
ATOM      6  C   UNL     1      50.613   7.363  14.757  0.00  0.00    +0.000 A 
ATOM      7  C   UNL     1      50.172   7.677  13.465  0.00  0.00    +0.000 A 
BRANCH   5   8
ATOM      8  S   UNL     1      50.380   6.814  17.418  0.00  0.00    +0.000 S 
BRANCH   8   9
ATOM      9  C   UNL     1      50.320   4.985  17.383  0.00  0.00    +0.000 C 
BRANCH   9  10
ATOM     10  C   UNL     1      49.603   4.376  18.613  0.00  0.00    +0.000 C 
ATOM     11  C   UNL     1      49.113   2.950  18.290  0.00  0.00    +0.000 C 
ATOM     12  C   UNL     1      47.923   2.956  17.325  0.00  0.00    +0.000 C 
ATOM     13  N   UNL     1      46.820   3.782  17.814  0.00  0.00    +0.000 NA
ATOM     14  C   UNL     1      47.248   5.156  18.090  0.00  0.00    +0.000 C 
ATOM     15  C   UNL     1      48.389   5.188  19.103  0.00  0.00    +0.000 C 
ATOM     16  H   UNL     1      46.463   3.374  18.680  0.00  0.00    +0.000 HD
ENDBRANCH   9  10
ENDBRANCH   8   9
ENDBRANCH   5   8
ENDBRANCH   1   2
BRANCH   1  19
ATOM     17  C   UNL     1      46.230   6.949  11.290  0.00  0.00    +0.000 C 
ATOM     18  O   UNL     1      45.541   7.853  11.754  0.00  0.00    +0.000 OA
ATOM     19  N   UNL     1      47.600   7.027  11.278  0.00  0.00    +0.000 N 
ATOM     20  H   UNL     1      48.142   6.276  10.878  0.00  0.00    +0.000 HD
BRANCH  17  28
ATOM     21  C   UNL     1      44.532   4.306  12.688  0.00  0.00    +0.000 A 
ATOM     22  N   UNL     1      43.823   3.195  12.964  0.00  0.00    +0.000 NA
ATOM     23  C   UNL     1      43.483   2.398  11.949  0.00  0.00    +0.000 A 
ATOM     24  N   UNL     1      43.771   2.574  10.661  0.00  0.00    +0.000 NA
ATOM     25  C   UNL     1      44.475   3.695  10.428  0.00  0.00    +0.000 A 
ATOM     26  S   UNL     1      44.938   4.081   8.841  0.00  0.00    +0.000 S 
ATOM     27  C   UNL     1      45.704   5.508   9.357  0.00  0.00    +0.000 A 
ATOM     28  C   UNL     1      45.622   5.727  10.728  0.00  0.00    +0.000 A 
ATOM     29  C   UNL     1      44.897   4.629  11.368  0.00  0.00    +0.000 A 
BRANCH  21  31
ATOM     30  C   UNL     1      46.193   4.784  14.288  0.00  0.00    +0.000 C 
ATOM     31  O   UNL     1      44.922   5.111  13.736  0.00  0.00    +0.000 OA
ENDBRANCH  21  31
ENDBRANCH  17  28
ENDBRANCH   1  19
TORSDOF 7
ENDMDL
MODEL 7
REMARK VINA RESULT:    -6.478      5.026      8.966
REMARK INTER + INTRA:          -9.985
REMARK INTER:                  -8.760
REMARK INTRA:                  -1.226
REMARK UNBOUND:                -0.857
REMARK  Name = 
REMARK  8 active torsions:
REMARK  status: ('A' for Active; 'I' for Inactive)
REMARK    1  A    between atoms: C_1  and  O_2
REMARK    2  A    between atoms: O_2  and  C_3
REMARK    3  A    between atoms: C_10  and  C_11
REMARK    4  A    between atoms: N_13  and  C_14
REMARK    5  A    between atoms: C_14  and  C_15
REMARK    6  A    between atoms: C_18  and  S_19
REMARK    7  A    between atoms: S_19  and  C_20
REMARK    8  A    between atoms: C_20  and  C_21
REMARK                            x       y       z     vdW  Elec       q    Type
REMARK                         _______ _______ _______ _____ _____    ______ ____
ROOT
ATOM      1  C   UNL     1      47.149   4.315  15.474  0.00  0.00    +0.000 C 
ENDROOT
BRANCH   1   2
ATOM      2  C   UNL     1      46.514   4.427  14.107  0.00  0.00    +0.000 A 
ATOM      3  C   UNL     1      46.281   3.288  13.326  0.00  0.00    +0.000 A 
ATOM      4  C   UNL     1      45.627   3.386  12.088  0.00  0.00    +0.000 A 
ATOM      5  C   UNL     1      45.198   4.626  11.607  0.00  0.00    +0.000 A 
ATOM      6  C   UNL     1      45.500   5.771  12.353  0.00  0.00    +0.000 A 
ATOM      7  C   UNL     1      46.154   5.676  13.587  0.00  0.00    +0.000 A 
BRANCH   5   8
ATOM      8  S   UNL     1      44.324   4.863  10.066  0.00  0.00    +0.000 S 
BRANCH   8   9
ATOM      9  C   UNL     1      45.630   4.584   8.814  0.00  0.00    +0.000 C 
BRANCH   9  10
ATOM     10  C   UNL     1      45.166   3.692   7.638  0.00  0.00    +0.000 C 
ATOM     11  C   UNL     1      44.628   2.348   8.170  0.00  0.00    +0.000 C 
ATOM     12  C   UNL     1      45.750   1.448   8.696  0.00  0.00    +0.000 C 
ATOM     13  N   UNL     1      46.794   1.226   7.696  0.00  0.00    +0.000 NA
ATOM     14  C   UNL     1      47.354   2.487   7.203  0.00  0.00    +0.000 C 
ATOM     15  C   UNL     1      46.268   3.380   6.608  0.00  0.00    +0.000 C 
ATOM     16  H   UNL     1      46.391   0.719   6.907  0.00  0.00    +0.000 HD
ENDBRANCH   9  10
ENDBRANCH   8   9
ENDBRANCH   5   8
ENDBRANCH   1   2
BRANCH   1  19
ATOM     17  C   UNL     1      49.037   5.459  16.573  0.00  0.00    +0.000 C 
ATOM     18  O   UNL     1      49.482   4.404  17.016  0.00  0.00    +0.000 OA
ATOM     19  N   UNL     1      47.900   5.492  15.807  0.00  0.00    +0.000 N 
ATOM     20  H   UNL     1      47.564   6.372  15.444  0.00  0.00    +0.000 HD
BRANCH  17  28
ATOM     21  C   UNL     1      50.106   8.035  14.562  0.00  0.00    +0.000 A 
ATOM     22  N   UNL     1      50.575   9.177  14.022  0.00  0.00    +0.000 NA
ATOM     23  C   UNL     1      51.073  10.102  14.844  0.00  0.00    +0.000 A 
ATOM     24  N   UNL     1      51.167  10.030  16.170  0.00  0.00    +0.000 NA
ATOM     25  C   UNL     1      50.685   8.878  16.669  0.00  0.00    +0.000 A 
ATOM     26  S   UNL     1      50.728   8.606  18.344  0.00  0.00    +0.000 S 
ATOM     27  C   UNL     1      49.995   7.082  18.167  0.00  0.00    +0.000 A 
ATOM     28  C   UNL     1      49.698   6.750  16.849  0.00  0.00    +0.000 A 
ATOM     29  C   UNL     1      50.128   7.824  15.953  0.00  0.00    +0.000 A 
BRANCH  21  31
ATOM     30  C   UNL     1      49.474   7.474  12.364  0.00  0.00    +0.000 C 
ATOM     31  O   UNL     1      49.629   7.058  13.716  0.00  0.00    +0.000 OA
ENDBRANCH  21  31
ENDBRANCH  17  28
ENDBRANCH   1  19
TORSDOF 7
ENDMDL
MODEL 8
REMARK VINA RESULT:    -6.422      5.189      9.028
REMARK INTER + INTRA:          -9.907
REMARK INTER:                  -8.782
REMARK INTRA:                  -1.125
REMARK UNBOUND:                -0.857
REMARK  Name = 
REMARK  8 active torsions:
REMARK  status: ('A' for Active; 'I' for Inactive)
REMARK    1  A    between atoms: C_1  and  O_2
REMARK    2  A    between atoms: O_2  and  C_3
REMARK    3  A    between atoms: C_10  and  C_11
REMARK    4  A    between atoms: N_13  and  C_14
REMARK    5  A    between atoms: C_14  and  C_15
REMARK    6  A    between atoms: C_18  and  S_19
REMARK    7  A    between atoms: S_19  and  C_20
REMARK    8  A    between atoms: C_20  and  C_21
REMARK                            x       y       z     vdW  Elec       q    Type
REMARK                         _______ _______ _______ _____ _____    ______ ____
ROOT
ATOM      1  C   UNL     1      47.506   3.865  15.436  0.00  0.00    +0.000 C 
ENDROOT
BRANCH   1   2
ATOM      2  C   UNL     1      46.800   4.341  14.188  0.00  0.00    +0.000 A 
ATOM      3  C   UNL     1      46.824   5.693  13.819  0.00  0.00    +0.000 A 
ATOM      4  C   UNL     1      46.228   6.122  12.624  0.00  0.00    +0.000 A 
ATOM      5  C   UNL     1      45.594   5.208  11.776  0.00  0.00    +0.000 A 
ATOM      6  C   UNL     1      45.505   3.873  12.184  0.00  0.00    +0.000 A 
ATOM      7  C   UNL     1      46.096   3.442  13.378  0.00  0.00    +0.000 A 
BRANCH   5   8
ATOM      8  S   UNL     1      44.837   5.638  10.215  0.00  0.00    +0.000 S 
BRANCH   8   9
ATOM      9  C   UNL     1      45.964   4.868   8.995  0.00  0.00    +0.000 C 
BRANCH   9  10
ATOM     10  C   UNL     1      45.222   4.035   7.922  0.00  0.00    +0.000 C 
ATOM     11  C   UNL     1      44.479   2.856   8.584  0.00  0.00    +0.000 C 
ATOM     12  C   UNL     1      45.444   1.772   9.074  0.00  0.00    +0.000 C 
ATOM     13  N   UNL     1      46.324   1.294   8.008  0.00  0.00    +0.000 NA
ATOM     14  C   UNL     1      47.075   2.389   7.388  0.00  0.00    +0.000 C 
ATOM     15  C   UNL     1      46.137   3.456   6.827  0.00  0.00    +0.000 C 
ATOM     16  H   UNL     1      45.755   0.844   7.290  0.00  0.00    +0.000 HD
ENDBRANCH   9  10
ENDBRANCH   8   9
ENDBRANCH   5   8
ENDBRANCH   1   2
BRANCH   1  19
ATOM     17  C   UNL     1      48.511   5.468  17.019  0.00  0.00    +0.000 C 
ATOM     18  O   UNL     1      49.643   5.249  16.596  0.00  0.00    +0.000 OA
ATOM     19  N   UNL     1      47.415   4.829  16.496  0.00  0.00    +0.000 N 
ATOM     20  H   UNL     1      46.495   5.037  16.853  0.00  0.00    +0.000 HD
BRANCH  17  28
ATOM     21  C   UNL     1      48.188   8.889  17.134  0.00  0.00    +0.000 A 
ATOM     22  N   UNL     1      47.992  10.184  17.451  0.00  0.00    +0.000 NA
ATOM     23  C   UNL     1      47.750  10.487  18.729  0.00  0.00    +0.000 A 
ATOM     24  N   UNL     1      47.680   9.641  19.754  0.00  0.00    +0.000 NA
ATOM     25  C   UNL     1      47.878   8.361  19.394  0.00  0.00    +0.000 A 
ATOM     26  S   UNL     1      47.831   7.141  20.573  0.00  0.00    +0.000 S 
ATOM     27  C   UNL     1      48.134   5.936  19.412  0.00  0.00    +0.000 A 
ATOM     28  C   UNL     1      48.270   6.424  18.117  0.00  0.00    +0.000 A 
ATOM     29  C   UNL     1      48.131   7.881  18.113  0.00  0.00    +0.000 A 
BRANCH  21  31
ATOM     30  C   UNL     1      49.861   8.665  15.491  0.00  0.00    +0.000 C 
ATOM     31  O   UNL     1      48.480   8.573  15.825  0.00  0.00    +0.000 OA
ENDBRANCH  21  31
ENDBRANCH  17  28
ENDBRANCH   1  19
TORSDOF 7
ENDMDL
MODEL 9
REMARK VINA RESULT:    -6.405      1.697      3.027
REMARK INTER + INTRA:          -9.883
REMARK INTER:                  -8.661
REMARK INTRA:                  -1.222
REMARK UNBOUND:                -0.857
REMARK  Name = 
REMARK  8 active torsions:
REMARK  status: ('A' for Active; 'I' for Inactive)
REMARK    1  A    between atoms: C_1  and  O_2
REMARK    2  A    between atoms: O_2  and  C_3
REMARK    3  A    between atoms: C_10  and  C_11
REMARK    4  A    between atoms: N_13  and  C_14
REMARK    5  A    between atoms: C_14  and  C_15
REMARK    6  A    between atoms: C_18  and  S_19
REMARK    7  A    between atoms: S_19  and  C_20
REMARK    8  A    between atoms: C_20  and  C_21
REMARK                            x       y       z     vdW  Elec       q    Type
REMARK                         _______ _______ _______ _____ _____    ______ ____
ROOT
ATOM      1  C   UNL     1      47.370   3.300  17.247  0.00  0.00    +0.000 C 
ENDROOT
BRANCH   1   2
ATOM      2  C   UNL     1      48.843   3.367  17.580  0.00  0.00    +0.000 A 
ATOM      3  C   UNL     1      49.733   2.394  17.107  0.00  0.00    +0.000 A 
ATOM      4  C   UNL     1      51.110   2.497  17.357  0.00  0.00    +0.000 A 
ATOM      5  C   UNL     1      51.621   3.572  18.089  0.00  0.00    +0.000 A 
ATOM      6  C   UNL     1      50.723   4.501  18.626  0.00  0.00    +0.000 A 
ATOM      7  C   UNL     1      49.348   4.399  18.379  0.00  0.00    +0.000 A 
BRANCH   5   8
ATOM      8  S   UNL     1      53.358   3.822  18.435  0.00  0.00    +0.000 S 
BRANCH   8   9
ATOM      9  C   UNL     1      53.860   2.218  19.159  0.00  0.00    +0.000 C 
BRANCH   9  10
ATOM     10  C   UNL     1      55.107   1.606  18.477  0.00  0.00    +0.000 C 
ATOM     11  C   UNL     1      54.824   1.349  16.983  0.00  0.00    +0.000 C 
ATOM     12  C   UNL     1      53.863   0.174  16.775  0.00  0.00    +0.000 C 
ATOM     13  N   UNL     1      54.335  -1.047  17.428  0.00  0.00    +0.000 NA
ATOM     14  C   UNL     1      54.572  -0.842  18.860  0.00  0.00    +0.000 C 
ATOM     15  C   UNL     1      55.580   0.279  19.099  0.00  0.00    +0.000 C 
ATOM     16  H   UNL     1      55.212  -1.335  16.992  0.00  0.00    +0.000 HD
ENDBRANCH   9  10
ENDBRANCH   8   9
ENDBRANCH   5   8
ENDBRANCH   1   2
BRANCH   1  19
ATOM     17  C   UNL     1      47.061   3.993  14.900  0.00  0.00    +0.000 C 
ATOM     18  O   UNL     1      47.418   2.896  14.479  0.00  0.00    +0.000 OA
ATOM     19  N   UNL     1      47.010   4.262  16.244  0.00  0.00    +0.000 N 
ATOM     20  H   UNL     1      46.700   5.167  16.564  0.00  0.00    +0.000 HD
BRANCH  17  28
ATOM     21  C   UNL     1      48.561   6.951  13.995  0.00  0.00    +0.000 A 
ATOM     22  N   UNL     1      48.936   8.126  13.452  0.00  0.00    +0.000 NA
ATOM     23  C   UNL     1      48.126   8.688  12.553  0.00  0.00    +0.000 A 
ATOM     24  N   UNL     1      46.959   8.217  12.119  0.00  0.00    +0.000 NA
ATOM     25  C   UNL     1      46.625   7.043  12.682  0.00  0.00    +0.000 A 
ATOM     26  S   UNL     1      45.163   6.293  12.253  0.00  0.00    +0.000 S 
ATOM     27  C   UNL     1      45.469   4.985  13.296  0.00  0.00    +0.000 A 
ATOM     28  C   UNL     1      46.676   5.083  13.982  0.00  0.00    +0.000 A 
ATOM     29  C   UNL     1      47.358   6.326  13.622  0.00  0.00    +0.000 A 
BRANCH  21  31
ATOM     30  C   UNL     1      49.398   7.088  16.193  0.00  0.00    +0.000 C 
ATOM     31  O   UNL     1      49.372   6.385  14.955  0.00  0.00    +0.000 OA
ENDBRANCH  21  31
ENDBRANCH  17  28
ENDBRANCH   1  19
TORSDOF 7
ENDMDL
