MODEL 1
REMARK VINA RESULT:    -8.602      0.000      0.000
REMARK INTER + INTRA:         -12.995
REMARK INTER:                 -12.122
REMARK INTRA:                  -0.873
REMARK UNBOUND:                -0.873
REMARK  Name = 
REMARK  8 active torsions:
REMARK  status: ('A' for Active; 'I' for Inactive)
REMARK    1  A    between atoms: C_1  and  C_2
REMARK    2  A    between atoms: C_2  and  N_3
REMARK    3  A    between atoms: C_2  and  C_25
REMARK    4  A    between atoms: N_3  and  C_4
REMARK    5  A    between atoms: C_4  and  C_5
REMARK    6  A    between atoms: C_8  and  C_9
REMARK    7  A    between atoms: C_9  and  N_10
REMARK    8  A    between atoms: C_11  and  C_13
REMARK                            x       y       z     vdW  Elec       q    Type
REMARK                         _______ _______ _______ _____ _____    ______ ____
ROOT
ATOM      1  C   UNL     1      44.336   6.490  11.742  0.00  0.00    +0.000 A 
ATOM      2  C   UNL     1      44.607   7.814  11.388  0.00  0.00    +0.000 A 
ATOM      3  C   UNL     1      45.670   8.490  11.982  0.00  0.00    +0.000 A 
ATOM      4  C   UNL     1      46.431   7.827  12.939  0.00  0.00    +0.000 A 
ATOM      5  N   UNL     1      46.217   6.526  13.269  0.00  0.00    +0.000 NA
ATOM      6  C   UNL     1      45.185   5.895  12.666  0.00  0.00    +0.000 A 
ENDROOT
BRANCH   1   7
ATOM      7  C   UNL     1      43.128   5.767  11.207  0.00  0.00    +0.000 C 
BRANCH   7   8
ATOM      8  N   UNL     1      43.488   4.884  10.105  0.00  0.00    +0.000 NA
ATOM      9  H   UNL     1      43.979   5.427   9.395  0.00  0.00    +0.000 HD
BRANCH   8  11
ATOM     10  C   UNL     1      43.547   2.547  11.028  0.00  0.00    +0.000 C 
ATOM     11  C   UNL     1      44.335   3.748  10.488  0.00  0.00    +0.000 C 
BRANCH  11  12
ATOM     12  C   UNL     1      45.153   3.332   9.272  0.00  0.00    +0.000 A 
ATOM     13  C   UNL     1      45.647   4.295   8.374  0.00  0.00    +0.000 A 
ATOM     14  C   UNL     1      46.431   3.924   7.281  0.00  0.00    +0.000 A 
ATOM     15  C   UNL     1      46.736   2.581   7.072  0.00  0.00    +0.000 A 
ATOM     16  C   UNL     1      46.254   1.618   7.955  0.00  0.00    +0.000 A 
ATOM     17 CL   UNL     1      46.646  -0.039   7.704  0.00  0.00    +0.000 Cl
ATOM     18  C   UNL     1      45.466   1.982   9.049  0.00  0.00    +0.000 A 
ENDBRANCH  11  12
ENDBRANCH   8  11
ENDBRANCH   7   8
ENDBRANCH   1   7
BRANCH   4  19
ATOM     19  C   UNL     1      47.532   8.555  13.669  0.00  0.00    +0.000 C 
BRANCH  19  20
ATOM     20  N   UNL     1      47.837   7.957  14.946  0.00  0.00    +0.000 N 
ATOM     21  C   UNL     1      48.931   7.161  15.143  0.00  0.00    +0.000 C 
ATOM     22  O   UNL     1      49.725   6.905  14.239  0.00  0.00    +0.000 OA
ATOM     23  H   UNL     1      47.079   7.955  15.623  0.00  0.00    +0.000 HD
BRANCH  21  24
ATOM     24  C   UNL     1      49.152   6.682  16.511  0.00  0.00    +0.000 A 
ATOM     25  C   UNL     1      49.798   7.500  17.428  0.00  0.00    +0.000 A 
ATOM     26  S   UNL     1      49.955   6.802  18.976  0.00  0.00    +0.000 S 
ATOM     27  C   UNL     1      49.200   5.366  18.463  0.00  0.00    +0.000 A 
ATOM     28  N   UNL     1      49.045   4.315  19.314  0.00  0.00    +0.000 NA
ATOM     29  C   UNL     1      48.481   3.281  18.787  0.00  0.00    +0.000 A 
ATOM     30  N   UNL     1      48.044   3.204  17.492  0.00  0.00    +0.000 N 
ATOM     31  C   UNL     1      48.129   4.259  16.612  0.00  0.00    +0.000 A 
ATOM     32  O   UNL     1      47.641   4.192  15.491  0.00  0.00    +0.000 OA
ATOM     33  C   UNL     1      48.799   5.432  17.143  0.00  0.00    +0.000 A 
ATOM     34  H   UNL     1      47.583   2.377  17.144  0.00  0.00    +0.000 HD
ENDBRANCH  21  24
ENDBRANCH  19  20
ENDBRANCH   4  19
TORSDOF 7
ENDMDL
MODEL 2
REMARK VINA RESULT:    -8.571      2.486      2.851
REMARK INTER + INTRA:         -12.952
REMARK INTER:                 -11.912
REMARK INTRA:                  -1.040
REMARK UNBOUND:                -0.873
REMARK  Name = 
REMARK  8 active torsions:
REMARK  status: ('A' for Active; 'I' for Inactive)
REMARK    1  A    between atoms: C_1  and  C_2
REMARK    2  A    between atoms: C_2  and  N_3
REMARK    3  A    between atoms: C_2  and  C_25
REMARK    4  A    between atoms: N_3  and  C_4
REMARK    5  A    between atoms: C_4  and  C_5
REMARK    6  A    between atoms: C_8  and  C_9
REMARK    7  A    between atoms: C_9  and  N_10
REMARK    8  A    between atoms: C_11  and  C_13
REMARK                            x       y       z     vdW  Elec       q    Type
REMARK                         _______ _______ _______ _____ _____    ______ ____
ROOT
ATOM      1  C   UNL     1      46.045   4.961  13.460  0.00  0.00    +0.000 A 
ATOM      2  C   UNL     1      46.486   6.200  12.987  0.00  0.00    +0.000 A 
ATOM      3  C   UNL     1      47.533   6.857  13.629  0.00  0.00    +0.000 A 
ATOM      4  C   UNL     1      48.105   6.265  14.750  0.00  0.00    +0.000 A 
ATOM      5  N   UNL     1      47.725   5.042  15.204  0.00  0.00    +0.000 NA
ATOM      6  C   UNL     1      46.715   4.424  14.552  0.00  0.00    +0.000 A 
ENDROOT
BRANCH   1   7
ATOM      7  C   UNL     1      44.844   4.277  12.862  0.00  0.00    +0.000 C 
BRANCH   7   8
ATOM      8  N   UNL     1      45.223   3.433  11.737  0.00  0.00    +0.000 NA
ATOM      9  H   UNL     1      45.257   2.462  12.049  0.00  0.00    +0.000 HD
BRANCH   8  11
ATOM     10  C   UNL     1      43.627   4.879  10.440  0.00  0.00    +0.000 C 
ATOM     11  C   UNL     1      44.320   3.516  10.583  0.00  0.00    +0.000 C 
BRANCH  11  12
ATOM     12  C   UNL     1      45.122   3.205   9.326  0.00  0.00    +0.000 A 
ATOM     13  C   UNL     1      45.521   4.235   8.455  0.00  0.00    +0.000 A 
ATOM     14  C   UNL     1      46.291   3.961   7.324  0.00  0.00    +0.000 A 
ATOM     15  C   UNL     1      46.676   2.650   7.048  0.00  0.00    +0.000 A 
ATOM     16  C   UNL     1      46.288   1.622   7.904  0.00  0.00    +0.000 A 
ATOM     17 CL   UNL     1      46.779   0.007   7.571  0.00  0.00    +0.000 Cl
ATOM     18  C   UNL     1      45.515   1.889   9.036  0.00  0.00    +0.000 A 
ENDBRANCH  11  12
ENDBRANCH   8  11
ENDBRANCH   7   8
ENDBRANCH   1   7
BRANCH   4  19
ATOM     19  C   UNL     1      49.177   6.989  15.525  0.00  0.00    +0.000 C 
BRANCH  19  20
ATOM     20  N   UNL     1      50.167   6.091  16.069  0.00  0.00    +0.000 N 
ATOM     21  C   UNL     1      50.456   6.037  17.404  0.00  0.00    +0.000 C 
ATOM     22  O   UNL     1      49.888   6.754  18.226  0.00  0.00    +0.000 OA
ATOM     23  H   UNL     1      50.805   5.679  15.394  0.00  0.00    +0.000 HD
BRANCH  21  24
ATOM     24  C   UNL     1      51.432   5.025  17.819  0.00  0.00    +0.000 A 
ATOM     25  C   UNL     1      52.621   5.421  18.418  0.00  0.00    +0.000 A 
ATOM     26  S   UNL     1      53.633   4.121  18.857  0.00  0.00    +0.000 S 
ATOM     27  C   UNL     1      52.536   2.985  18.226  0.00  0.00    +0.000 A 
ATOM     28  N   UNL     1      52.818   1.653  18.248  0.00  0.00    +0.000 NA
ATOM     29  C   UNL     1      51.911   0.907  17.712  0.00  0.00    +0.000 A 
ATOM     30  N   UNL     1      50.742   1.366  17.168  0.00  0.00    +0.000 N 
ATOM     31  C   UNL     1      50.389   2.697  17.172  0.00  0.00    +0.000 A 
ATOM     32  O   UNL     1      49.294   3.064  16.766  0.00  0.00    +0.000 OA
ATOM     33  C   UNL     1      51.397   3.584  17.722  0.00  0.00    +0.000 A 
ATOM     34  H   UNL     1      50.057   0.730  16.789  0.00  0.00    +0.000 HD
ENDBRANCH  21  24
ENDBRANCH  19  20
ENDBRANCH   4  19
TORSDOF 7
ENDMDL
MODEL 3
REMARK VINA RESULT:    -8.506      1.583      1.944
REMARK INTER + INTRA:         -12.860
REMARK INTER:                 -11.531
REMARK INTRA:                  -1.329
REMARK UNBOUND:                -0.873
REMARK  Name = 
REMARK  8 active torsions:
REMARK  status: ('A' for Active; 'I' for Inactive)
REMARK    1  A    between atoms: C_1  and  C_2
REMARK    2  A    between atoms: C_2  and  N_3
REMARK    3  A    between atoms: C_2  and  C_25
REMARK    4  A    between atoms: N_3  and  C_4
REMARK    5  A    between atoms: C_4  and  C_5
REMARK    6  A    between atoms: C_8  and  C_9
REMARK    7  A    between atoms: C_9  and  N_10
REMARK    8  A    between atoms: C_11  and  C_13
REMARK                            x       y       z     vdW  Elec       q    Type
REMARK                         _______ _______ _______ _____ _____    ______ ____
ROOT
ATOM      1  C   UNL     1      45.694   4.908  13.135  0.00  0.00    +0.000 A 
ATOM      2  C   UNL     1      45.707   6.269  12.819  0.00  0.00    +0.000 A 
ATOM      3  C   UNL     1      46.810   7.051  13.150  0.00  0.00    +0.000 A 
ATOM      4  C   UNL     1      47.876   6.452  13.815  0.00  0.00    +0.000 A 
ATOM      5  N   UNL     1      47.909   5.123  14.094  0.00  0.00    +0.000 NA
ATOM      6  C   UNL     1      46.828   4.389  13.749  0.00  0.00    +0.000 A 
ENDROOT
BRANCH   1   7
ATOM      7  C   UNL     1      44.474   4.058  12.895  0.00  0.00    +0.000 C 
BRANCH   7   8
ATOM      8  N   UNL     1      44.702   3.099  11.823  0.00  0.00    +0.000 NA
ATOM      9  H   UNL     1      44.437   2.169  12.150  0.00  0.00    +0.000 HD
BRANCH   8  11
ATOM     10  C   UNL     1      43.363   4.793  10.537  0.00  0.00    +0.000 C 
ATOM     11  C   UNL     1      43.964   3.382  10.586  0.00  0.00    +0.000 C 
BRANCH  11  12
ATOM     12  C   UNL     1      44.909   3.176   9.409  0.00  0.00    +0.000 A 
ATOM     13  C   UNL     1      45.400   4.275   8.681  0.00  0.00    +0.000 A 
ATOM     14  C   UNL     1      46.298   4.097   7.628  0.00  0.00    +0.000 A 
ATOM     15  C   UNL     1      46.721   2.813   7.288  0.00  0.00    +0.000 A 
ATOM     16  C   UNL     1      46.243   1.717   8.002  0.00  0.00    +0.000 A 
ATOM     17 CL   UNL     1      46.779   0.135   7.592  0.00  0.00    +0.000 Cl
ATOM     18  C   UNL     1      45.341   1.889   9.055  0.00  0.00    +0.000 A 
ENDBRANCH  11  12
ENDBRANCH   8  11
ENDBRANCH   7   8
ENDBRANCH   1   7
BRANCH   4  19
ATOM     19  C   UNL     1      49.047   7.286  14.271  0.00  0.00    +0.000 C 
BRANCH  19  20
ATOM     20  N   UNL     1      49.323   7.127  15.678  0.00  0.00    +0.000 N 
ATOM     21  C   UNL     1      48.829   7.981  16.625  0.00  0.00    +0.000 C 
ATOM     22  O   UNL     1      48.116   8.940  16.334  0.00  0.00    +0.000 OA
ATOM     23  H   UNL     1      50.091   6.504  15.908  0.00  0.00    +0.000 HD
BRANCH  21  24
ATOM     24  C   UNL     1      49.133   7.652  18.021  0.00  0.00    +0.000 A 
ATOM     25  C   UNL     1      49.815   8.568  18.810  0.00  0.00    +0.000 A 
ATOM     26  S   UNL     1      50.069   8.039  20.411  0.00  0.00    +0.000 S 
ATOM     27  C   UNL     1      49.311   6.549  20.095  0.00  0.00    +0.000 A 
ATOM     28  N   UNL     1      49.221   5.592  21.058  0.00  0.00    +0.000 NA
ATOM     29  C   UNL     1      48.646   4.502  20.675  0.00  0.00    +0.000 A 
ATOM     30  N   UNL     1      48.139   4.285  19.422  0.00  0.00    +0.000 N 
ATOM     31  C   UNL     1      48.158   5.242  18.433  0.00  0.00    +0.000 A 
ATOM     32  O   UNL     1      47.610   5.052  17.355  0.00  0.00    +0.000 OA
ATOM     33  C   UNL     1      48.837   6.471  18.799  0.00  0.00    +0.000 A 
ATOM     34  H   UNL     1      47.673   3.421  19.189  0.00  0.00    +0.000 HD
ENDBRANCH  21  24
ENDBRANCH  19  20
ENDBRANCH   4  19
TORSDOF 7
ENDMDL
MODEL 4
REMARK VINA RESULT:    -8.023      3.496      8.357
REMARK INTER + INTRA:         -12.179
REMARK INTER:                 -10.392
REMARK INTRA:                  -1.786
REMARK UNBOUND:                -0.873
REMARK  Name = 
REMARK  8 active torsions:
REMARK  status: ('A' for Active; 'I' for Inactive)
REMARK    1  A    between atoms: C_1  and  C_2
REMARK    2  A    between atoms: C_2  and  N_3
REMARK    3  A    between atoms: C_2  and  C_25
REMARK    4  A    between atoms: N_3  and  C_4
REMARK    5  A    between atoms: C_4  and  C_5
REMARK    6  A    between atoms: C_8  and  C_9
REMARK    7  A    between atoms: C_9  and  N_10
REMARK    8  A    between atoms: C_11  and  C_13
REMARK                            x       y       z     vdW  Elec       q    Type
REMARK                         _______ _______ _______ _____ _____    ______ ____
ROOT
ATOM      1  C   UNL     1      48.719   7.995  16.071  0.00  0.00    +0.000 A 
ATOM      2  C   UNL     1      48.795   6.760  15.421  0.00  0.00    +0.000 A 
ATOM      3  C   UNL     1      48.430   6.655  14.081  0.00  0.00    +0.000 A 
ATOM      4  C   UNL     1      47.975   7.793  13.423  0.00  0.00    +0.000 A 
ATOM      5  N   UNL     1      47.934   9.014  14.017  0.00  0.00    +0.000 NA
ATOM      6  C   UNL     1      48.306   9.085  15.315  0.00  0.00    +0.000 A 
ENDROOT
BRANCH   1   7
ATOM      7  C   UNL     1      48.996   8.123  17.545  0.00  0.00    +0.000 C 
BRANCH   7   8
ATOM      8  N   UNL     1      47.933   7.517  18.336  0.00  0.00    +0.000 NA
ATOM      9  H   UNL     1      47.232   7.130  17.704  0.00  0.00    +0.000 HD
BRANCH   8  11
ATOM     10  C   UNL     1      47.527   6.323  20.511  0.00  0.00    +0.000 C 
ATOM     11  C   UNL     1      48.380   6.451  19.241  0.00  0.00    +0.000 C 
BRANCH  11  12
ATOM     12  C   UNL     1      48.370   5.137  18.471  0.00  0.00    +0.000 A 
ATOM     13  C   UNL     1      47.190   4.667  17.866  0.00  0.00    +0.000 A 
ATOM     14  C   UNL     1      47.183   3.485  17.125  0.00  0.00    +0.000 A 
ATOM     15  C   UNL     1      48.360   2.755  16.974  0.00  0.00    +0.000 A 
ATOM     16  C   UNL     1      49.536   3.211  17.566  0.00  0.00    +0.000 A 
ATOM     17 CL   UNL     1      50.992   2.316  17.365  0.00  0.00    +0.000 Cl
ATOM     18  C   UNL     1      49.548   4.391  18.313  0.00  0.00    +0.000 A 
ENDBRANCH  11  12
ENDBRANCH   8  11
ENDBRANCH   7   8
ENDBRANCH   1   7
BRANCH   4  19
ATOM     19  C   UNL     1      47.484   7.699  11.999  0.00  0.00    +0.000 C 
BRANCH  19  20
ATOM     20  N   UNL     1      46.774   6.471  11.740  0.00  0.00    +0.000 N 
ATOM     21  C   UNL     1      45.411   6.382  11.800  0.00  0.00    +0.000 C 
ATOM     22  O   UNL     1      44.705   7.349  12.081  0.00  0.00    +0.000 OA
ATOM     23  H   UNL     1      47.339   5.626  11.750  0.00  0.00    +0.000 HD
BRANCH  21  24
ATOM     24  C   UNL     1      44.826   5.087  11.441  0.00  0.00    +0.000 A 
ATOM     25  C   UNL     1      44.029   4.415  12.359  0.00  0.00    +0.000 A 
ATOM     26  S   UNL     1      43.412   2.936  11.776  0.00  0.00    +0.000 S 
ATOM     27  C   UNL     1      44.221   3.123  10.291  0.00  0.00    +0.000 A 
ATOM     28  N   UNL     1      44.142   2.165   9.327  0.00  0.00    +0.000 NA
ATOM     29  C   UNL     1      44.826   2.423   8.263  0.00  0.00    +0.000 A 
ATOM     30  N   UNL     1      45.570   3.555   8.067  0.00  0.00    +0.000 N 
ATOM     31  C   UNL     1      45.635   4.575   8.990  0.00  0.00    +0.000 A 
ATOM     32  O   UNL     1      46.229   5.616   8.744  0.00  0.00    +0.000 OA
ATOM     33  C   UNL     1      44.920   4.313  10.226  0.00  0.00    +0.000 A 
ATOM     34  H   UNL     1      46.061   3.714   7.200  0.00  0.00    +0.000 HD
ENDBRANCH  21  24
ENDBRANCH  19  20
ENDBRANCH   4  19
TORSDOF 7
ENDMDL
MODEL 5
REMARK VINA RESULT:    -7.831      3.622      7.892
REMARK INTER + INTRA:         -11.909
REMARK INTER:                 -10.180
REMARK INTRA:                  -1.729
REMARK UNBOUND:                -0.873
REMARK  Name = 
REMARK  8 active torsions:
REMARK  status: ('A' for Active; 'I' for Inactive)
REMARK    1  A    between atoms: C_1  and  C_2
REMARK    2  A    between atoms: C_2  and  N_3
REMARK    3  A    between atoms: C_2  and  C_25
REMARK    4  A    between atoms: N_3  and  C_4
REMARK    5  A    between atoms: C_4  and  C_5
REMARK    6  A    between atoms: C_8  and  C_9
REMARK    7  A    between atoms: C_9  and  N_10
REMARK    8  A    between atoms: C_11  and  C_13
REMARK                            x       y       z     vdW  Elec       q    Type
REMARK                         _______ _______ _______ _____ _____    ______ ____
ROOT
ATOM      1  C   UNL     1      48.951   8.036  16.109  0.00  0.00    +0.000 A 
ATOM      2  C   UNL     1      49.190   6.911  15.316  0.00  0.00    +0.000 A 
ATOM      3  C   UNL     1      49.007   6.979  13.938  0.00  0.00    +0.000 A 
ATOM      4  C   UNL     1      48.567   8.176  13.382  0.00  0.00    +0.000 A 
ATOM      5  N   UNL     1      48.370   9.297  14.123  0.00  0.00    +0.000 NA
ATOM      6  C   UNL     1      48.568   9.201  15.457  0.00  0.00    +0.000 A 
ENDROOT
BRANCH   1   7
ATOM      7  C   UNL     1      49.027   7.966  17.612  0.00  0.00    +0.000 C 
BRANCH   7   8
ATOM      8  N   UNL     1      47.897   7.231  18.164  0.00  0.00    +0.000 NA
ATOM      9  H   UNL     1      47.351   6.840  17.396  0.00  0.00    +0.000 HD
BRANCH   8  11
ATOM     10  C   UNL     1      47.293   5.952  20.242  0.00  0.00    +0.000 C 
ATOM     11  C   UNL     1      48.268   6.138  19.071  0.00  0.00    +0.000 C 
BRANCH  11  12
ATOM     12  C   UNL     1      48.358   4.853  18.258  0.00  0.00    +0.000 A 
ATOM     13  C   UNL     1      47.268   4.413  17.486  0.00  0.00    +0.000 A 
ATOM     14  C   UNL     1      47.358   3.260  16.707  0.00  0.00    +0.000 A 
ATOM     15  C   UNL     1      48.544   2.528  16.686  0.00  0.00    +0.000 A 
ATOM     16  C   UNL     1      49.632   2.955  17.444  0.00  0.00    +0.000 A 
ATOM     17 CL   UNL     1      51.101   2.060  17.404  0.00  0.00    +0.000 Cl
ATOM     18  C   UNL     1      49.546   4.107  18.229  0.00  0.00    +0.000 A 
ENDBRANCH  11  12
ENDBRANCH   8  11
ENDBRANCH   7   8
ENDBRANCH   1   7
BRANCH   4  19
ATOM     19  C   UNL     1      48.270   8.262  11.905  0.00  0.00    +0.000 C 
BRANCH  19  20
ATOM     20  N   UNL     1      47.573   7.098  11.414  0.00  0.00    +0.000 N 
ATOM     21  C   UNL     1      46.211   6.982  11.462  0.00  0.00    +0.000 C 
ATOM     22  O   UNL     1      45.495   7.866  11.929  0.00  0.00    +0.000 OA
ATOM     23  H   UNL     1      48.148   6.275  11.257  0.00  0.00    +0.000 HD
BRANCH  21  24
ATOM     24  C   UNL     1      45.639   5.774  10.859  0.00  0.00    +0.000 A 
ATOM     25  C   UNL     1      45.833   5.523   9.508  0.00  0.00    +0.000 A 
ATOM     26  S   UNL     1      45.120   4.069   8.973  0.00  0.00    +0.000 S 
ATOM     27  C   UNL     1      44.494   3.744  10.520  0.00  0.00    +0.000 A 
ATOM     28  N   UNL     1      43.732   2.640  10.748  0.00  0.00    +0.000 NA
ATOM     29  C   UNL     1      43.300   2.531  11.960  0.00  0.00    +0.000 A 
ATOM     30  N   UNL     1      43.571   3.416  12.969  0.00  0.00    +0.000 N 
ATOM     31  C   UNL     1      44.381   4.516  12.799  0.00  0.00    +0.000 A 
ATOM     32  O   UNL     1      44.683   5.234  13.744  0.00  0.00    +0.000 OA
ATOM     33  C   UNL     1      44.854   4.710  11.441  0.00  0.00    +0.000 A 
ATOM     34  H   UNL     1      43.228   3.263  13.905  0.00  0.00    +0.000 HD
ENDBRANCH  21  24
ENDBRANCH  19  20
ENDBRANCH   4  19
TORSDOF 7
ENDMDL
MODEL 6
REMARK VINA RESULT:    -7.628      3.279      5.240
REMARK INTER + INTRA:         -11.623
REMARK INTER:                 -10.391
REMARK INTRA:                  -1.232
REMARK UNBOUND:                -0.873
REMARK  Name = 
REMARK  8 active torsions:
REMARK  status: ('A' for Active; 'I' for Inactive)
REMARK    1  A    between atoms: C_1  and  C_2
REMARK    2  A    between atoms: C_2  and  N_3
REMARK    3  A    between atoms: C_2  and  C_25
REMARK    4  A    between atoms: N_3  and  C_4
REMARK    5  A    between atoms: C_4  and  C_5
REMARK    6  A    between atoms: C_8  and  C_9
REMARK    7  A    between atoms: C_9  and  N_10
REMARK    8  A    between atoms: C_11  and  C_13
REMARK                            x       y       z     vdW  Elec       q    Type
REMARK                         _______ _______ _______ _____ _____    ______ ____
ROOT
ATOM      1  C   UNL     1      47.595   5.914  14.466  0.00  0.00    +0.000 A 
ATOM      2  C   UNL     1      48.328   6.279  15.598  0.00  0.00    +0.000 A 
ATOM      3  C   UNL     1      48.521   5.362  16.628  0.00  0.00    +0.000 A 
ATOM      4  C   UNL     1      47.953   4.097  16.510  0.00  0.00    +0.000 A 
ATOM      5  N   UNL     1      47.274   3.702  15.402  0.00  0.00    +0.000 NA
ATOM      6  C   UNL     1      47.115   4.611  14.414  0.00  0.00    +0.000 A 
ENDROOT
BRANCH   1   7
ATOM      7  C   UNL     1      47.271   6.913  13.386  0.00  0.00    +0.000 C 
BRANCH   7   8
ATOM      8  N   UNL     1      45.843   6.933  13.098  0.00  0.00    +0.000 NA
ATOM      9  H   UNL     1      45.473   7.856  13.329  0.00  0.00    +0.000 HD
BRANCH   8  11
ATOM     10  C   UNL     1      46.706   6.658  10.753  0.00  0.00    +0.000 C 
ATOM     11  C   UNL     1      45.500   6.633  11.702  0.00  0.00    +0.000 C 
BRANCH  11  12
ATOM     12  C   UNL     1      44.829   5.266  11.659  0.00  0.00    +0.000 A 
ATOM     13  C   UNL     1      43.960   4.859  12.688  0.00  0.00    +0.000 A 
ATOM     14  C   UNL     1      43.311   3.625  12.634  0.00  0.00    +0.000 A 
ATOM     15  C   UNL     1      43.519   2.780  11.546  0.00  0.00    +0.000 A 
ATOM     16  C   UNL     1      44.375   3.173  10.521  0.00  0.00    +0.000 A 
ATOM     17 CL   UNL     1      44.618   2.134   9.170  0.00  0.00    +0.000 Cl
ATOM     18  C   UNL     1      45.031   4.405  10.570  0.00  0.00    +0.000 A 
ENDBRANCH  11  12
ENDBRANCH   8  11
ENDBRANCH   7   8
ENDBRANCH   1   7
BRANCH   4  19
ATOM     19  C   UNL     1      48.062   3.110  17.645  0.00  0.00    +0.000 C 
BRANCH  19  20
ATOM     20  N   UNL     1      49.431   2.789  17.968  0.00  0.00    +0.000 N 
ATOM     21  C   UNL     1      50.232   2.060  17.134  0.00  0.00    +0.000 C 
ATOM     22  O   UNL     1      49.833   1.630  16.053  0.00  0.00    +0.000 OA
ATOM     23  H   UNL     1      49.695   2.920  18.940  0.00  0.00    +0.000 HD
BRANCH  21  24
ATOM     24  C   UNL     1      51.622   1.875  17.563  0.00  0.00    +0.000 A 
ATOM     25  C   UNL     1      52.131   0.592  17.711  0.00  0.00    +0.000 A 
ATOM     26  S   UNL     1      53.766   0.556  18.194  0.00  0.00    +0.000 S 
ATOM     27  C   UNL     1      53.839   2.253  18.261  0.00  0.00    +0.000 A 
ATOM     28  N   UNL     1      54.977   2.889  18.653  0.00  0.00    +0.000 NA
ATOM     29  C   UNL     1      54.886   4.176  18.684  0.00  0.00    +0.000 A 
ATOM     30  N   UNL     1      53.766   4.888  18.347  0.00  0.00    +0.000 N 
ATOM     31  C   UNL     1      52.611   4.292  17.893  0.00  0.00    +0.000 A 
ATOM     32  O   UNL     1      51.661   4.961  17.506  0.00  0.00    +0.000 OA
ATOM     33  C   UNL     1      52.647   2.841  17.884  0.00  0.00    +0.000 A 
ATOM     34  H   UNL     1      53.763   5.897  18.363  0.00  0.00    +0.000 HD
ENDBRANCH  21  24
ENDBRANCH  19  20
ENDBRANCH   4  19
TORSDOF 7
ENDMDL
MODEL 7
REMARK VINA RESULT:    -6.955      5.294      6.690
REMARK INTER + INTRA:         -10.675
REMARK INTER:                  -9.487
REMARK INTRA:                  -1.188
REMARK UNBOUND:                -0.873
REMARK  Name = 
REMARK  8 active torsions:
REMARK  status: ('A' for Active; 'I' for Inactive)
REMARK    1  A    between atoms: C_1  and  C_2
REMARK    2  A    between atoms: C_2  and  N_3
REMARK    3  A    between atoms: C_2  and  C_25
REMARK    4  A    between atoms: N_3  and  C_4
REMARK    5  A    between atoms: C_4  and  C_5
REMARK    6  A    between atoms: C_8  and  C_9
REMARK    7  A    between atoms: C_9  and  N_10
REMARK    8  A    between atoms: C_11  and  C_13
REMARK                            x       y       z     vdW  Elec       q    Type
REMARK                         _______ _______ _______ _____ _____    ______ ____
ROOT
ATOM      1  C   UNL     1      46.573   7.995  12.006  0.00  0.00    +0.000 A 
ATOM      2  C   UNL     1      47.568   7.056  11.724  0.00  0.00    +0.000 A 
ATOM      3  C   UNL     1      48.882   7.472  11.525  0.00  0.00    +0.000 A 
ATOM      4  C   UNL     1      49.169   8.831  11.594  0.00  0.00    +0.000 A 
ATOM      5  N   UNL     1      48.230   9.761  11.911  0.00  0.00    +0.000 NA
ATOM      6  C   UNL     1      46.966   9.324  12.109  0.00  0.00    +0.000 A 
ENDROOT
BRANCH   1   7
ATOM      7  C   UNL     1      45.125   7.596  12.113  0.00  0.00    +0.000 C 
BRANCH   7   8
ATOM      8  N   UNL     1      44.739   6.714  11.019  0.00  0.00    +0.000 NA
ATOM      9  H   UNL     1      45.559   6.523  10.444  0.00  0.00    +0.000 HD
BRANCH   8  11
ATOM     10  C   UNL     1      42.639   5.464  11.609  0.00  0.00    +0.000 C 
ATOM     11  C   UNL     1      44.165   5.432  11.446  0.00  0.00    +0.000 C 
BRANCH  11  12
ATOM     12  C   UNL     1      44.558   4.371  10.426  0.00  0.00    +0.000 A 
ATOM     13  C   UNL     1      44.039   3.066  10.510  0.00  0.00    +0.000 A 
ATOM     14  C   UNL     1      44.364   2.101   9.556  0.00  0.00    +0.000 A 
ATOM     15  C   UNL     1      45.211   2.428   8.500  0.00  0.00    +0.000 A 
ATOM     16  C   UNL     1      45.730   3.717   8.405  0.00  0.00    +0.000 A 
ATOM     17 CL   UNL     1      46.763   4.124   7.090  0.00  0.00    +0.000 Cl
ATOM     18  C   UNL     1      45.412   4.687   9.358  0.00  0.00    +0.000 A 
ENDBRANCH  11  12
ENDBRANCH   8  11
ENDBRANCH   7   8
ENDBRANCH   1   7
BRANCH   4  19
ATOM     19  C   UNL     1      50.562   9.327  11.295  0.00  0.00    +0.000 C 
BRANCH  19  20
ATOM     20  N   UNL     1      51.484   8.252  11.023  0.00  0.00    +0.000 N 
ATOM     21  C   UNL     1      52.402   8.309  10.011  0.00  0.00    +0.000 C 
ATOM     22  O   UNL     1      52.498   9.285   9.269  0.00  0.00    +0.000 OA
ATOM     23  H   UNL     1      51.259   7.361  11.455  0.00  0.00    +0.000 HD
BRANCH  21  24
ATOM     24  C   UNL     1      53.321   7.172   9.900  0.00  0.00    +0.000 A 
ATOM     25  C   UNL     1      54.171   6.871  10.956  0.00  0.00    +0.000 A 
ATOM     26  S   UNL     1      55.158   5.509  10.672  0.00  0.00    +0.000 S 
ATOM     27  C   UNL     1      54.511   5.299   9.113  0.00  0.00    +0.000 A 
ATOM     28  N   UNL     1      54.961   4.305   8.299  0.00  0.00    +0.000 NA
ATOM     29  C   UNL     1      54.403   4.277   7.135  0.00  0.00    +0.000 A 
ATOM     30  N   UNL     1      53.428   5.141   6.714  0.00  0.00    +0.000 N 
ATOM     31  C   UNL     1      52.904   6.125   7.522  0.00  0.00    +0.000 A 
ATOM     32  O   UNL     1      51.965   6.818   7.151  0.00  0.00    +0.000 OA
ATOM     33  C   UNL     1      53.531   6.229   8.827  0.00  0.00    +0.000 A 
ATOM     34  H   UNL     1      53.008   5.052   5.801  0.00  0.00    +0.000 HD
ENDBRANCH  21  24
ENDBRANCH  19  20
ENDBRANCH   4  19
TORSDOF 7
ENDMDL
MODEL 8
REMARK VINA RESULT:    -6.859      3.693      8.402
REMARK INTER + INTRA:         -10.539
REMARK INTER:                  -8.849
REMARK INTRA:                  -1.690
REMARK UNBOUND:                -0.873
REMARK  Name = 
REMARK  8 active torsions:
REMARK  status: ('A' for Active; 'I' for Inactive)
REMARK    1  A    between atoms: C_1  and  C_2
REMARK    2  A    between atoms: C_2  and  N_3
REMARK    3  A    between atoms: C_2  and  C_25
REMARK    4  A    between atoms: N_3  and  C_4
REMARK    5  A    between atoms: C_4  and  C_5
REMARK    6  A    between atoms: C_8  and  C_9
REMARK    7  A    between atoms: C_9  and  N_10
REMARK    8  A    between atoms: C_11  and  C_13
REMARK                            x       y       z     vdW  Elec       q    Type
REMARK                         _______ _______ _______ _____ _____    ______ ____
ROOT
ATOM      1  C   UNL     1      51.076   7.202  17.498  0.00  0.00    +0.000 A 
ATOM      2  C   UNL     1      49.769   7.593  17.802  0.00  0.00    +0.000 A 
ATOM      3  C   UNL     1      48.912   8.006  16.787  0.00  0.00    +0.000 A 
ATOM      4  C   UNL     1      49.391   8.039  15.481  0.00  0.00    +0.000 A 
ATOM      5  N   UNL     1      50.642   7.622  15.152  0.00  0.00    +0.000 NA
ATOM      6  C   UNL     1      51.446   7.216  16.160  0.00  0.00    +0.000 A 
ENDROOT
BRANCH   1   7
ATOM      7  C   UNL     1      52.064   6.859  18.582  0.00  0.00    +0.000 C 
BRANCH   7   8
ATOM      8  N   UNL     1      52.567   5.501  18.426  0.00  0.00    +0.000 NA
ATOM      9  H   UNL     1      53.562   5.490  18.652  0.00  0.00    +0.000 HD
BRANCH   8  11
ATOM     10  C   UNL     1      51.086   5.112  20.420  0.00  0.00    +0.000 C 
ATOM     11  C   UNL     1      51.892   4.503  19.264  0.00  0.00    +0.000 C 
BRANCH  11  12
ATOM     12  C   UNL     1      50.978   3.672  18.373  0.00  0.00    +0.000 A 
ATOM     13  C   UNL     1      51.474   2.555  17.676  0.00  0.00    +0.000 A 
ATOM     14  C   UNL     1      50.634   1.766  16.890  0.00  0.00    +0.000 A 
ATOM     15  C   UNL     1      49.280   2.081  16.792  0.00  0.00    +0.000 A 
ATOM     16  C   UNL     1      48.776   3.183  17.479  0.00  0.00    +0.000 A 
ATOM     17 CL   UNL     1      47.100   3.560  17.370  0.00  0.00    +0.000 Cl
ATOM     18  C   UNL     1      49.613   3.979  18.264  0.00  0.00    +0.000 A 
ENDBRANCH  11  12
ENDBRANCH   8  11
ENDBRANCH   7   8
ENDBRANCH   1   7
BRANCH   4  19
ATOM     19  C   UNL     1      48.522   8.567  14.368  0.00  0.00    +0.000 C 
BRANCH  19  20
ATOM     20  N   UNL     1      47.486   7.638  13.988  0.00  0.00    +0.000 N 
ATOM     21  C   UNL     1      47.722   6.568  13.170  0.00  0.00    +0.000 C 
ATOM     22  O   UNL     1      48.836   6.332  12.706  0.00  0.00    +0.000 OA
ATOM     23  H   UNL     1      46.533   7.949  14.155  0.00  0.00    +0.000 HD
BRANCH  21  24
ATOM     24  C   UNL     1      46.589   5.669  12.930  0.00  0.00    +0.000 A 
ATOM     25  C   UNL     1      46.686   4.330  13.285  0.00  0.00    +0.000 A 
ATOM     26  S   UNL     1      45.275   3.431  12.957  0.00  0.00    +0.000 S 
ATOM     27  C   UNL     1      44.499   4.790  12.292  0.00  0.00    +0.000 A 
ATOM     28  N   UNL     1      43.243   4.694  11.775  0.00  0.00    +0.000 NA
ATOM     29  C   UNL     1      42.786   5.795  11.279  0.00  0.00    +0.000 A 
ATOM     30  N   UNL     1      43.462   6.985  11.264  0.00  0.00    +0.000 N 
ATOM     31  C   UNL     1      44.710   7.143  11.823  0.00  0.00    +0.000 A 
ATOM     32  O   UNL     1      45.246   8.242  11.880  0.00  0.00    +0.000 OA
ATOM     33  C   UNL     1      45.289   5.922  12.353  0.00  0.00    +0.000 A 
ATOM     34  H   UNL     1      43.040   7.821  10.887  0.00  0.00    +0.000 HD
ENDBRANCH  21  24
ENDBRANCH  19  20
ENDBRANCH   4  19
TORSDOF 7
ENDMDL
MODEL 9
REMARK VINA RESULT:    -6.795      5.192      7.961
REMARK INTER + INTRA:         -10.449
REMARK INTER:                  -9.340
REMARK INTRA:                  -1.109
REMARK UNBOUND:                -0.873
REMARK  Name = 
REMARK  8 active torsions:
REMARK  status: ('A' for Active; 'I' for Inactive)
REMARK    1  A    between atoms: C_1  and  C_2
REMARK    2  A    between atoms: C_2  and  N_3
REMARK    3  A    between atoms: C_2  and  C_25
REMARK    4  A    between atoms: N_3  and  C_4
REMARK    5  A    between atoms: C_4  and  C_5
REMARK    6  A    between atoms: C_8  and  C_9
REMARK    7  A    between atoms: C_9  and  N_10
REMARK    8  A    between atoms: C_11  and  C_13
REMARK                            x       y       z     vdW  Elec       q    Type
REMARK                         _______ _______ _______ _____ _____    ______ ____
ROOT
ATOM      1  C   UNL     1      50.390   8.763  11.730  0.00  0.00    +0.000 A 
ATOM      2  C   UNL     1      49.853   7.473  11.718  0.00  0.00    +0.000 A 
ATOM      3  C   UNL     1      48.522   7.270  12.072  0.00  0.00    +0.000 A 
ATOM      4  C   UNL     1      47.758   8.368  12.454  0.00  0.00    +0.000 A 
ATOM      5  N   UNL     1      48.241   9.637  12.432  0.00  0.00    +0.000 NA
ATOM      6  C   UNL     1      49.534   9.803  12.072  0.00  0.00    +0.000 A 
ENDROOT
BRANCH   1   7
ATOM      7  C   UNL     1      51.852   9.006  11.464  0.00  0.00    +0.000 C 
BRANCH   7   8
ATOM      8  N   UNL     1      52.603   7.758  11.462  0.00  0.00    +0.000 NA
ATOM      9  H   UNL     1      52.002   7.012  11.110  0.00  0.00    +0.000 HD
BRANCH   8  11
ATOM     10  C   UNL     1      55.079   7.327  11.415  0.00  0.00    +0.000 C 
ATOM     11  C   UNL     1      53.828   7.786  10.654  0.00  0.00    +0.000 C 
BRANCH  11  12
ATOM     12  C   UNL     1      53.611   6.908   9.428  0.00  0.00    +0.000 A 
ATOM     13  C   UNL     1      52.596   7.206   8.501  0.00  0.00    +0.000 A 
ATOM     14  C   UNL     1      52.419   6.430   7.355  0.00  0.00    +0.000 A 
ATOM     15  C   UNL     1      53.257   5.342   7.118  0.00  0.00    +0.000 A 
ATOM     16  C   UNL     1      54.267   5.038   8.029  0.00  0.00    +0.000 A 
ATOM     17 CL   UNL     1      55.312   3.704   7.726  0.00  0.00    +0.000 Cl
ATOM     18  C   UNL     1      54.447   5.809   9.179  0.00  0.00    +0.000 A 
ENDBRANCH  11  12
ENDBRANCH   8  11
ENDBRANCH   7   8
ENDBRANCH   1   7
BRANCH   4  19
ATOM     19  C   UNL     1      46.340   8.175  12.932  0.00  0.00    +0.000 C 
BRANCH  19  20
ATOM     20  N   UNL     1      45.835   6.855  12.642  0.00  0.00    +0.000 N 
ATOM     21  C   UNL     1      44.831   6.634  11.740  0.00  0.00    +0.000 C 
ATOM     22  O   UNL     1      44.296   7.550  11.119  0.00  0.00    +0.000 OA
ATOM     23  H   UNL     1      46.087   6.132  13.310  0.00  0.00    +0.000 HD
BRANCH  21  24
ATOM     24  C   UNL     1      44.472   5.233  11.496  0.00  0.00    +0.000 A 
ATOM     25  C   UNL     1      43.712   4.546  12.433  0.00  0.00    +0.000 A 
ATOM     26  S   UNL     1      43.367   2.937  11.986  0.00  0.00    +0.000 S 
ATOM     27  C   UNL     1      44.253   3.091  10.543  0.00  0.00    +0.000 A 
ATOM     28  N   UNL     1      44.392   2.038   9.692  0.00  0.00    +0.000 NA
ATOM     29  C   UNL     1      45.112   2.286   8.649  0.00  0.00    +0.000 A 
ATOM     30  N   UNL     1      45.695   3.493   8.371  0.00  0.00    +0.000 N 
ATOM     31  C   UNL     1      45.537   4.601   9.174  0.00  0.00    +0.000 A 
ATOM     32  O   UNL     1      45.990   5.690   8.848  0.00  0.00    +0.000 OA
ATOM     33  C   UNL     1      44.774   4.361  10.385  0.00  0.00    +0.000 A 
ATOM     34  H   UNL     1      46.224   3.636   7.524  0.00  0.00    +0.000 HD
ENDBRANCH  21  24
ENDBRANCH  19  20
ENDBRANCH   4  19
TORSDOF 7
ENDMDL
