MODEL 1
REMARK VINA RESULT:    -8.009      0.000      0.000
REMARK INTER + INTRA:         -10.585
REMARK INTER:                 -10.350
REMARK INTRA:                  -0.235
REMARK UNBOUND:                -0.235
REMARK  Name = 
REMARK  6 active torsions:
REMARK  status: ('A' for Active; 'I' for Inactive)
REMARK    1  A    between atoms: N_1  and  C_2
REMARK    2  A    between atoms: C_2  and  C_3
REMARK    3  A    between atoms: C_6  and  C_7
REMARK    4  A    between atoms: C_7  and  N_8
REMARK    5  A    between atoms: C_12  and  C_13
REMARK    6  A    between atoms: C_13  and  O_15
REMARK                            x       y       z     vdW  Elec       q    Type
REMARK                         _______ _______ _______ _____ _____    ______ ____
ROOT
ATOM      1  N   UNL     1      44.562   5.573  10.387  0.00  0.00    +0.000 N 
ATOM      2  C   UNL     1      45.254   5.293  11.579  0.00  0.00    +0.000 A 
ATOM      3  C   UNL     1      45.944   6.324  12.215  0.00  0.00    +0.000 A 
ATOM      4  C   UNL     1      46.637   6.070  13.405  0.00  0.00    +0.000 A 
ATOM      5  C   UNL     1      46.625   4.779  13.932  0.00  0.00    +0.000 A 
ATOM      6  C   UNL     1      45.917   3.810  13.240  0.00  0.00    +0.000 A 
ATOM      7  N   UNL     1      45.257   4.042  12.080  0.00  0.00    +0.000 NA
ATOM      8  H   UNL     1      43.895   6.320  10.555  0.00  0.00    +0.000 HD
ENDROOT
BRANCH   5   9
ATOM      9  C   UNL     1      47.267   4.388  15.201  0.00  0.00    +0.000 C 
ATOM     10  O   UNL     1      47.590   3.238  15.442  0.00  0.00    +0.000 OA
BRANCH   9  11
ATOM     11  O   UNL     1      47.493   5.409  16.051  0.00  0.00    +0.000 OA
ATOM     12  H   UNL     1      48.285   5.325  16.612  0.00  0.00    +0.000 HD
ENDBRANCH   9  11
ENDBRANCH   5   9
BRANCH   1  13
ATOM     13  C   UNL     1      43.901   4.393   9.831  0.00  0.00    +0.000 C 
BRANCH  13  17
ATOM     14  C   UNL     1      46.635   1.998   7.454  0.00  0.00    +0.000 A 
ATOM     15  C   UNL     1      46.579   3.388   7.276  0.00  0.00    +0.000 A 
ATOM     16  C   UNL     1      45.691   4.171   8.019  0.00  0.00    +0.000 A 
ATOM     17  C   UNL     1      44.820   3.580   8.943  0.00  0.00    +0.000 A 
ATOM     18  C   UNL     1      44.883   2.189   9.124  0.00  0.00    +0.000 A 
ATOM     19  C   UNL     1      45.777   1.406   8.386  0.00  0.00    +0.000 A 
BRANCH  14  20
ATOM     20  C   UNL     1      47.590   1.156   6.644  0.00  0.00    +0.000 C 
BRANCH  20  21
ATOM     21  N   UNL     1      48.470   1.974   5.816  0.00  0.00    +0.000 NA
ATOM     22  H   UNL     1      49.380   2.043   6.266  0.00  0.00    +0.000 HD
ATOM     23  H   UNL     1      48.094   2.920   5.777  0.00  0.00    +0.000 HD
ENDBRANCH  20  21
ENDBRANCH  14  20
ENDBRANCH  13  17
ENDBRANCH   1  13
TORSDOF 6
ENDMDL
MODEL 2
REMARK VINA RESULT:    -7.767      1.941      2.694
REMARK INTER + INTRA:         -10.273
REMARK INTER:                 -10.048
REMARK INTRA:                  -0.225
REMARK UNBOUND:                -0.235
REMARK  Name = 
REMARK  6 active torsions:
REMARK  status: ('A' for Active; 'I' for Inactive)
REMARK    1  A    between atoms: N_1  and  C_2
REMARK    2  A    between atoms: C_2  and  C_3
REMARK    3  A    between atoms: C_6  and  C_7
REMARK    4  A    between atoms: C_7  and  N_8
REMARK    5  A    between atoms: C_12  and  C_13
REMARK    6  A    between atoms: C_13  and  O_15
REMARK                            x       y       z     vdW  Elec       q    Type
REMARK                         _______ _______ _______ _____ _____    ______ ____
ROOT
ATOM      1  N   UNL     1      45.078   3.059  11.612  0.00  0.00    +0.000 N 
ATOM      2  C   UNL     1      45.239   4.405  11.990  0.00  0.00    +0.000 A 
ATOM      3  C   UNL     1      46.051   4.704  13.083  0.00  0.00    +0.000 A 
ATOM      4  C   UNL     1      46.230   6.037  13.475  0.00  0.00    +0.000 A 
ATOM      5  C   UNL     1      45.584   7.044  12.760  0.00  0.00    +0.000 A 
ATOM      6  C   UNL     1      44.795   6.665  11.687  0.00  0.00    +0.000 A 
ATOM      7  N   UNL     1      44.602   5.378  11.309  0.00  0.00    +0.000 NA
ATOM      8  H   UNL     1      45.989   2.652  11.429  0.00  0.00    +0.000 HD
ENDROOT
BRANCH   5   9
ATOM      9  C   UNL     1      45.728   8.487  13.033  0.00  0.00    +0.000 C 
ATOM     10  O   UNL     1      45.110   9.334  12.413  0.00  0.00    +0.000 OA
BRANCH   9  11
ATOM     11  O   UNL     1      46.572   8.784  14.041  0.00  0.00    +0.000 OA
ATOM     12  H   UNL     1      46.439   8.283  14.866  0.00  0.00    +0.000 HD
ENDBRANCH   9  11
ENDBRANCH   5   9
BRANCH   1  13
ATOM     13  C   UNL     1      44.190   2.903  10.460  0.00  0.00    +0.000 C 
BRANCH  13  17
ATOM     14  C   UNL     1      46.539   2.654   6.815  0.00  0.00    +0.000 A 
ATOM     15  C   UNL     1      45.892   3.851   7.157  0.00  0.00    +0.000 A 
ATOM     16  C   UNL     1      45.116   3.943   8.316  0.00  0.00    +0.000 A 
ATOM     17  C   UNL     1      44.950   2.831   9.152  0.00  0.00    +0.000 A 
ATOM     18  C   UNL     1      45.603   1.636   8.811  0.00  0.00    +0.000 A 
ATOM     19  C   UNL     1      46.385   1.546   7.655  0.00  0.00    +0.000 A 
BRANCH  14  20
ATOM     20  C   UNL     1      47.368   2.558   5.559  0.00  0.00    +0.000 C 
BRANCH  20  21
ATOM     21  N   UNL     1      48.566   1.751   5.757  0.00  0.00    +0.000 NA
ATOM     22  H   UNL     1      48.450   0.860   5.279  0.00  0.00    +0.000 HD
ATOM     23  H   UNL     1      48.656   1.538   6.749  0.00  0.00    +0.000 HD
ENDBRANCH  20  21
ENDBRANCH  14  20
ENDBRANCH  13  17
ENDBRANCH   1  13
TORSDOF 6
ENDMDL
MODEL 3
REMARK VINA RESULT:    -7.400      3.673      6.958
REMARK INTER + INTRA:          -9.799
REMARK INTER:                  -9.580
REMARK INTRA:                  -0.218
REMARK UNBOUND:                -0.235
REMARK  Name = 
REMARK  6 active torsions:
REMARK  status: ('A' for Active; 'I' for Inactive)
REMARK    1  A    between atoms: N_1  and  C_2
REMARK    2  A    between atoms: C_2  and  C_3
REMARK    3  A    between atoms: C_6  and  C_7
REMARK    4  A    between atoms: C_7  and  N_8
REMARK    5  A    between atoms: C_12  and  C_13
REMARK    6  A    between atoms: C_13  and  O_15
REMARK                            x       y       z     vdW  Elec       q    Type
REMARK                         _______ _______ _______ _____ _____    ______ ____
ROOT
ATOM      1  N   UNL     1      43.986   3.646  10.394  0.00  0.00    +0.000 N 
ATOM      2  C   UNL     1      44.874   3.318   9.352  0.00  0.00    +0.000 A 
ATOM      3  C   UNL     1      45.203   1.979   9.146  0.00  0.00    +0.000 A 
ATOM      4  C   UNL     1      46.081   1.628   8.112  0.00  0.00    +0.000 A 
ATOM      5  C   UNL     1      46.614   2.634   7.308  0.00  0.00    +0.000 A 
ATOM      6  C   UNL     1      46.239   3.939   7.579  0.00  0.00    +0.000 A 
ATOM      7  N   UNL     1      45.403   4.291   8.585  0.00  0.00    +0.000 NA
ATOM      8  H   UNL     1      43.115   3.140  10.263  0.00  0.00    +0.000 HD
ENDROOT
BRANCH   5   9
ATOM      9  C   UNL     1      47.506   2.398   6.157  0.00  0.00    +0.000 C 
ATOM     10  O   UNL     1      48.298   1.473   6.123  0.00  0.00    +0.000 OA
BRANCH   9  11
ATOM     11  O   UNL     1      47.349   3.268   5.140  0.00  0.00    +0.000 OA
ATOM     12  H   UNL     1      47.240   4.202   5.394  0.00  0.00    +0.000 HD
ENDBRANCH   9  11
ENDBRANCH   5   9
BRANCH   1  13
ATOM     13  C   UNL     1      43.748   5.086  10.496  0.00  0.00    +0.000 C 
BRANCH  13  17
ATOM     14  C   UNL     1      46.643   7.115  13.020  0.00  0.00    +0.000 A 
ATOM     15  C   UNL     1      46.522   5.718  13.068  0.00  0.00    +0.000 A 
ATOM     16  C   UNL     1      45.582   5.051  12.277  0.00  0.00    +0.000 A 
ATOM     17  C   UNL     1      44.724   5.766  11.433  0.00  0.00    +0.000 A 
ATOM     18  C   UNL     1      44.852   7.164  11.382  0.00  0.00    +0.000 A 
ATOM     19  C   UNL     1      45.796   7.831  12.168  0.00  0.00    +0.000 A 
BRANCH  14  20
ATOM     20  C   UNL     1      47.653   7.830  13.882  0.00  0.00    +0.000 C 
BRANCH  20  21
ATOM     21  N   UNL     1      47.063   8.964  14.585  0.00  0.00    +0.000 NA
ATOM     22  H   UNL     1      46.159   9.179  14.171  0.00  0.00    +0.000 HD
ATOM     23  H   UNL     1      47.652   9.782  14.435  0.00  0.00    +0.000 HD
ENDBRANCH  20  21
ENDBRANCH  14  20
ENDBRANCH  13  17
ENDBRANCH   1  13
TORSDOF 6
ENDMDL
MODEL 4
REMARK VINA RESULT:    -7.052      1.376      2.201
REMARK INTER + INTRA:          -9.348
REMARK INTER:                  -9.135
REMARK INTRA:                  -0.213
REMARK UNBOUND:                -0.235
REMARK  Name = 
REMARK  6 active torsions:
REMARK  status: ('A' for Active; 'I' for Inactive)
REMARK    1  A    between atoms: N_1  and  C_2
REMARK    2  A    between atoms: C_2  and  C_3
REMARK    3  A    between atoms: C_6  and  C_7
REMARK    4  A    between atoms: C_7  and  N_8
REMARK    5  A    between atoms: C_12  and  C_13
REMARK    6  A    between atoms: C_13  and  O_15
REMARK                            x       y       z     vdW  Elec       q    Type
REMARK                         _______ _______ _______ _____ _____    ______ ____
ROOT
ATOM      1  N   UNL     1      44.383   3.819  11.607  0.00  0.00    +0.000 N 
ATOM      2  C   UNL     1      45.385   4.602  12.207  0.00  0.00    +0.000 A 
ATOM      3  C   UNL     1      45.730   4.351  13.534  0.00  0.00    +0.000 A 
ATOM      4  C   UNL     1      46.729   5.114  14.152  0.00  0.00    +0.000 A 
ATOM      5  C   UNL     1      47.359   6.121  13.422  0.00  0.00    +0.000 A 
ATOM      6  C   UNL     1      46.959   6.308  12.109  0.00  0.00    +0.000 A 
ATOM      7  N   UNL     1      45.984   5.586  11.507  0.00  0.00    +0.000 NA
ATOM      8  H   UNL     1      44.642   2.839  11.668  0.00  0.00    +0.000 HD
ENDROOT
BRANCH   5   9
ATOM      9  C   UNL     1      48.459   6.961  13.933  0.00  0.00    +0.000 C 
ATOM     10  O   UNL     1      49.249   6.563  14.771  0.00  0.00    +0.000 OA
BRANCH   9  11
ATOM     11  O   UNL     1      48.533   8.185  13.375  0.00  0.00    +0.000 OA
ATOM     12  H   UNL     1      48.557   8.206  12.402  0.00  0.00    +0.000 HD
ENDBRANCH   9  11
ENDBRANCH   5   9
BRANCH   1  13
ATOM     13  C   UNL     1      44.122   4.207  10.220  0.00  0.00    +0.000 C 
BRANCH  13  17
ATOM     14  C   UNL     1      46.709   2.343   7.271  0.00  0.00    +0.000 A 
ATOM     15  C   UNL     1      46.071   1.560   8.245  0.00  0.00    +0.000 A 
ATOM     16  C   UNL     1      45.251   2.146   9.213  0.00  0.00    +0.000 A 
ATOM     17  C   UNL     1      45.065   3.534   9.245  0.00  0.00    +0.000 A 
ATOM     18  C   UNL     1      45.700   4.314   8.266  0.00  0.00    +0.000 A 
ATOM     19  C   UNL     1      46.515   3.728   7.292  0.00  0.00    +0.000 A 
BRANCH  14  20
ATOM     20  C   UNL     1      47.600   1.706   6.234  0.00  0.00    +0.000 C 
BRANCH  20  21
ATOM     21  N   UNL     1      48.226   2.700   5.369  0.00  0.00    +0.000 NA
ATOM     22  H   UNL     1      48.584   3.461   5.942  0.00  0.00    +0.000 HD
ATOM     23  H   UNL     1      47.512   3.103   4.765  0.00  0.00    +0.000 HD
ENDBRANCH  20  21
ENDBRANCH  14  20
ENDBRANCH  13  17
ENDBRANCH   1  13
TORSDOF 6
ENDMDL
MODEL 5
REMARK VINA RESULT:    -6.515      4.080      7.617
REMARK INTER + INTRA:          -8.654
REMARK INTER:                  -8.306
REMARK INTRA:                  -0.348
REMARK UNBOUND:                -0.235
REMARK  Name = 
REMARK  6 active torsions:
REMARK  status: ('A' for Active; 'I' for Inactive)
REMARK    1  A    between atoms: N_1  and  C_2
REMARK    2  A    between atoms: C_2  and  C_3
REMARK    3  A    between atoms: C_6  and  C_7
REMARK    4  A    between atoms: C_7  and  N_8
REMARK    5  A    between atoms: C_12  and  C_13
REMARK    6  A    between atoms: C_13  and  O_15
REMARK                            x       y       z     vdW  Elec       q    Type
REMARK                         _______ _______ _______ _____ _____    ______ ____
ROOT
ATOM      1  N   UNL     1      47.423   5.438  14.954  0.00  0.00    +0.000 N 
ATOM      2  C   UNL     1      46.552   5.138  13.891  0.00  0.00    +0.000 A 
ATOM      3  C   UNL     1      46.690   5.835  12.691  0.00  0.00    +0.000 A 
ATOM      4  C   UNL     1      45.836   5.551  11.618  0.00  0.00    +0.000 A 
ATOM      5  C   UNL     1      44.855   4.573  11.774  0.00  0.00    +0.000 A 
ATOM      6  C   UNL     1      44.783   3.927  12.997  0.00  0.00    +0.000 A 
ATOM      7  N   UNL     1      45.593   4.204  14.047  0.00  0.00    +0.000 NA
ATOM      8  H   UNL     1      48.383   5.314  14.645  0.00  0.00    +0.000 HD
ENDROOT
BRANCH   5   9
ATOM      9  C   UNL     1      43.929   4.141  10.711  0.00  0.00    +0.000 C 
ATOM     10  O   UNL     1      43.499   3.003  10.641  0.00  0.00    +0.000 OA
BRANCH   9  11
ATOM     11  O   UNL     1      43.574   5.114   9.848  0.00  0.00    +0.000 OA
ATOM     12  H   UNL     1      43.257   5.942  10.251  0.00  0.00    +0.000 HD
ENDBRANCH   9  11
ENDBRANCH   5   9
BRANCH   1  13
ATOM     13  C   UNL     1      47.148   4.638  16.148  0.00  0.00    +0.000 C 
BRANCH  13  17
ATOM     14  C   UNL     1      50.708   2.425  17.287  0.00  0.00    +0.000 A 
ATOM     15  C   UNL     1      49.652   1.773  16.633  0.00  0.00    +0.000 A 
ATOM     16  C   UNL     1      48.491   2.466  16.277  0.00  0.00    +0.000 A 
ATOM     17  C   UNL     1      48.348   3.824  16.586  0.00  0.00    +0.000 A 
ATOM     18  C   UNL     1      49.410   4.476  17.234  0.00  0.00    +0.000 A 
ATOM     19  C   UNL     1      50.574   3.785  17.584  0.00  0.00    +0.000 A 
BRANCH  14  20
ATOM     20  C   UNL     1      51.955   1.670  17.676  0.00  0.00    +0.000 C 
BRANCH  20  21
ATOM     21  N   UNL     1      51.658   0.303  18.089  0.00  0.00    +0.000 NA
ATOM     22  H   UNL     1      51.270  -0.207  17.299  0.00  0.00    +0.000 HD
ATOM     23  H   UNL     1      50.931   0.329  18.803  0.00  0.00    +0.000 HD
ENDBRANCH  20  21
ENDBRANCH  14  20
ENDBRANCH  13  17
ENDBRANCH   1  13
TORSDOF 6
ENDMDL
MODEL 6
REMARK VINA RESULT:    -6.225      2.974      4.906
REMARK INTER + INTRA:          -8.280
REMARK INTER:                  -8.035
REMARK INTRA:                  -0.245
REMARK UNBOUND:                -0.235
REMARK  Name = 
REMARK  6 active torsions:
REMARK  status: ('A' for Active; 'I' for Inactive)
REMARK    1  A    between atoms: N_1  and  C_2
REMARK    2  A    between atoms: C_2  and  C_3
REMARK    3  A    between atoms: C_6  and  C_7
REMARK    4  A    between atoms: C_7  and  N_8
REMARK    5  A    between atoms: C_12  and  C_13
REMARK    6  A    between atoms: C_13  and  O_15
REMARK                            x       y       z     vdW  Elec       q    Type
REMARK                         _______ _______ _______ _____ _____    ______ ____
ROOT
ATOM      1  N   UNL     1      47.030   3.591  14.686  0.00  0.00    +0.000 N 
ATOM      2  C   UNL     1      47.487   3.811  15.998  0.00  0.00    +0.000 A 
ATOM      3  C   UNL     1      48.172   2.788  16.652  0.00  0.00    +0.000 A 
ATOM      4  C   UNL     1      48.641   2.985  17.957  0.00  0.00    +0.000 A 
ATOM      5  C   UNL     1      48.406   4.209  18.582  0.00  0.00    +0.000 A 
ATOM      6  C   UNL     1      47.718   5.173  17.865  0.00  0.00    +0.000 A 
ATOM      7  N   UNL     1      47.247   4.988  16.609  0.00  0.00    +0.000 NA
ATOM      8  H   UNL     1      47.816   3.333  14.097  0.00  0.00    +0.000 HD
ENDROOT
BRANCH   5   9
ATOM      9  C   UNL     1      48.889   4.566  19.930  0.00  0.00    +0.000 C 
ATOM     10  O   UNL     1      49.612   5.525  20.131  0.00  0.00    +0.000 OA
BRANCH   9  11
ATOM     11  O   UNL     1      48.439   3.765  20.915  0.00  0.00    +0.000 OA
ATOM     12  H   UNL     1      48.503   2.807  20.746  0.00  0.00    +0.000 HD
ENDBRANCH   9  11
ENDBRANCH   5   9
BRANCH   1  13
ATOM     13  C   UNL     1      46.319   4.746  14.138  0.00  0.00    +0.000 C 
BRANCH  13  17
ATOM     14  C   UNL     1      44.968   4.287  10.036  0.00  0.00    +0.000 A 
ATOM     15  C   UNL     1      44.877   3.212  10.933  0.00  0.00    +0.000 A 
ATOM     16  C   UNL     1      45.325   3.337  12.251  0.00  0.00    +0.000 A 
ATOM     17  C   UNL     1      45.896   4.534  12.700  0.00  0.00    +0.000 A 
ATOM     18  C   UNL     1      45.980   5.611  11.802  0.00  0.00    +0.000 A 
ATOM     19  C   UNL     1      45.526   5.489  10.485  0.00  0.00    +0.000 A 
BRANCH  14  20
ATOM     20  C   UNL     1      44.490   4.144   8.613  0.00  0.00    +0.000 C 
BRANCH  20  21
ATOM     21  N   UNL     1      45.601   4.076   7.669  0.00  0.00    +0.000 NA
ATOM     22  H   UNL     1      46.207   4.882   7.810  0.00  0.00    +0.000 HD
ATOM     23  H   UNL     1      45.231   4.153   6.724  0.00  0.00    +0.000 HD
ENDBRANCH  20  21
ENDBRANCH  14  20
ENDBRANCH  13  17
ENDBRANCH   1  13
TORSDOF 6
ENDMDL
MODEL 7
REMARK VINA RESULT:    -6.064      4.198      8.477
REMARK INTER + INTRA:          -8.071
REMARK INTER:                  -7.796
REMARK INTRA:                  -0.275
REMARK UNBOUND:                -0.235
REMARK  Name = 
REMARK  6 active torsions:
REMARK  status: ('A' for Active; 'I' for Inactive)
REMARK    1  A    between atoms: N_1  and  C_2
REMARK    2  A    between atoms: C_2  and  C_3
REMARK    3  A    between atoms: C_6  and  C_7
REMARK    4  A    between atoms: C_7  and  N_8
REMARK    5  A    between atoms: C_12  and  C_13
REMARK    6  A    between atoms: C_13  and  O_15
REMARK                            x       y       z     vdW  Elec       q    Type
REMARK                         _______ _______ _______ _____ _____    ______ ____
ROOT
ATOM      1  N   UNL     1      46.932   5.188  14.665  0.00  0.00    +0.000 N 
ATOM      2  C   UNL     1      46.241   4.858  13.485  0.00  0.00    +0.000 A 
ATOM      3  C   UNL     1      45.938   5.873  12.577  0.00  0.00    +0.000 A 
ATOM      4  C   UNL     1      45.256   5.568  11.393  0.00  0.00    +0.000 A 
ATOM      5  C   UNL     1      44.887   4.247  11.146  0.00  0.00    +0.000 A 
ATOM      6  C   UNL     1      45.224   3.298  12.097  0.00  0.00    +0.000 A 
ATOM      7  N   UNL     1      45.870   3.584  13.253  0.00  0.00    +0.000 NA
ATOM      8  H   UNL     1      47.806   5.646  14.425  0.00  0.00    +0.000 HD
ENDROOT
BRANCH   5   9
ATOM      9  C   UNL     1      44.213   3.782   9.918  0.00  0.00    +0.000 C 
ATOM     10  O   UNL     1      44.160   2.605   9.608  0.00  0.00    +0.000 OA
BRANCH   9  11
ATOM     11  O   UNL     1      43.639   4.761   9.191  0.00  0.00    +0.000 OA
ATOM     12  H   UNL     1      43.039   4.465   8.483  0.00  0.00    +0.000 HD
ENDBRANCH   9  11
ENDBRANCH   5   9
BRANCH   1  13
ATOM     13  C   UNL     1      47.165   4.025  15.522  0.00  0.00    +0.000 C 
BRANCH  13  17
ATOM     14  C   UNL     1      49.411   5.068  19.091  0.00  0.00    +0.000 A 
ATOM     15  C   UNL     1      48.669   3.878  19.047  0.00  0.00    +0.000 A 
ATOM     16  C   UNL     1      47.925   3.536  17.914  0.00  0.00    +0.000 A 
ATOM     17  C   UNL     1      47.887   4.388  16.803  0.00  0.00    +0.000 A 
ATOM     18  C   UNL     1      48.635   5.576  16.847  0.00  0.00    +0.000 A 
ATOM     19  C   UNL     1      49.385   5.914  17.977  0.00  0.00    +0.000 A 
BRANCH  14  20
ATOM     20  C   UNL     1      50.205   5.435  20.319  0.00  0.00    +0.000 C 
BRANCH  20  21
ATOM     21  N   UNL     1      51.279   4.482  20.579  0.00  0.00    +0.000 NA
ATOM     22  H   UNL     1      51.887   4.436  19.764  0.00  0.00    +0.000 HD
ATOM     23  H   UNL     1      50.873   3.555  20.690  0.00  0.00    +0.000 HD
ENDBRANCH  20  21
ENDBRANCH  14  20
ENDBRANCH  13  17
ENDBRANCH   1  13
TORSDOF 6
ENDMDL
MODEL 8
REMARK VINA RESULT:    -5.544      4.125      6.513
REMARK INTER + INTRA:          -7.400
REMARK INTER:                  -7.264
REMARK INTRA:                  -0.136
REMARK UNBOUND:                -0.235
REMARK  Name = 
REMARK  6 active torsions:
REMARK  status: ('A' for Active; 'I' for Inactive)
REMARK    1  A    between atoms: N_1  and  C_2
REMARK    2  A    between atoms: C_2  and  C_3
REMARK    3  A    between atoms: C_6  and  C_7
REMARK    4  A    between atoms: C_7  and  N_8
REMARK    5  A    between atoms: C_12  and  C_13
REMARK    6  A    between atoms: C_13  and  O_15
REMARK                            x       y       z     vdW  Elec       q    Type
REMARK                         _______ _______ _______ _____ _____    ______ ____
ROOT
ATOM      1  N   UNL     1      45.798   6.391  13.226  0.00  0.00    +0.000 N 
ATOM      2  C   UNL     1      45.501   5.479  12.198  0.00  0.00    +0.000 A 
ATOM      3  C   UNL     1      45.293   4.140  12.526  0.00  0.00    +0.000 A 
ATOM      4  C   UNL     1      44.990   3.213  11.520  0.00  0.00    +0.000 A 
ATOM      5  C   UNL     1      44.907   3.652  10.200  0.00  0.00    +0.000 A 
ATOM      6  C   UNL     1      45.128   4.998   9.956  0.00  0.00    +0.000 A 
ATOM      7  N   UNL     1      45.436   5.899  10.919  0.00  0.00    +0.000 NA
ATOM      8  H   UNL     1      45.059   6.365  13.921  0.00  0.00    +0.000 HD
ENDROOT
BRANCH   5   9
ATOM      9  C   UNL     1      44.547   2.794   9.055  0.00  0.00    +0.000 C 
ATOM     10  O   UNL     1      44.534   1.578   9.129  0.00  0.00    +0.000 OA
BRANCH   9  11
ATOM     11  O   UNL     1      44.204   3.466   7.938  0.00  0.00    +0.000 OA
ATOM     12  H   UNL     1      43.522   4.153   8.050  0.00  0.00    +0.000 HD
ENDBRANCH   9  11
ENDBRANCH   5   9
BRANCH   1  13
ATOM     13  C   UNL     1      46.003   7.752  12.726  0.00  0.00    +0.000 C 
BRANCH  13  17
ATOM     14  C   UNL     1      50.114   8.612  11.617  0.00  0.00    +0.000 A 
ATOM     15  C   UNL     1      49.760   7.335  12.076  0.00  0.00    +0.000 A 
ATOM     16  C   UNL     1      48.446   7.046  12.455  0.00  0.00    +0.000 A 
ATOM     17  C   UNL     1      47.456   8.036  12.407  0.00  0.00    +0.000 A 
ATOM     18  C   UNL     1      47.811   9.312  11.941  0.00  0.00    +0.000 A 
ATOM     19  C   UNL     1      49.124   9.599  11.555  0.00  0.00    +0.000 A 
BRANCH  14  20
ATOM     20  C   UNL     1      51.535   8.920  11.217  0.00  0.00    +0.000 C 
BRANCH  20  21
ATOM     21  N   UNL     1      52.475   7.940  11.750  0.00  0.00    +0.000 NA
ATOM     22  H   UNL     1      51.956   7.149  12.124  0.00  0.00    +0.000 HD
ATOM     23  H   UNL     1      52.973   8.358  12.534  0.00  0.00    +0.000 HD
ENDBRANCH  20  21
ENDBRANCH  14  20
ENDBRANCH  13  17
ENDBRANCH   1  13
TORSDOF 6
ENDMDL
MODEL 9
REMARK VINA RESULT:    -5.432      4.013      8.156
REMARK INTER + INTRA:          -7.255
REMARK INTER:                  -6.877
REMARK INTRA:                  -0.378
REMARK UNBOUND:                -0.235
REMARK  Name = 
REMARK  6 active torsions:
REMARK  status: ('A' for Active; 'I' for Inactive)
REMARK    1  A    between atoms: N_1  and  C_2
REMARK    2  A    between atoms: C_2  and  C_3
REMARK    3  A    between atoms: C_6  and  C_7
REMARK    4  A    between atoms: C_7  and  N_8
REMARK    5  A    between atoms: C_12  and  C_13
REMARK    6  A    between atoms: C_13  and  O_15
REMARK                            x       y       z     vdW  Elec       q    Type
REMARK                         _______ _______ _______ _____ _____    ______ ____
ROOT
ATOM      1  N   UNL     1      47.267   7.113  14.083  0.00  0.00    +0.000 N 
ATOM      2  C   UNL     1      46.363   6.421  13.258  0.00  0.00    +0.000 A 
ATOM      3  C   UNL     1      45.215   7.079  12.818  0.00  0.00    +0.000 A 
ATOM      4  C   UNL     1      44.301   6.412  11.992  0.00  0.00    +0.000 A 
ATOM      5  C   UNL     1      44.559   5.091  11.628  0.00  0.00    +0.000 A 
ATOM      6  C   UNL     1      45.721   4.508  12.107  0.00  0.00    +0.000 A 
ATOM      7  N   UNL     1      46.603   5.139  12.919  0.00  0.00    +0.000 NA
ATOM      8  H   UNL     1      47.570   7.960  13.611  0.00  0.00    +0.000 HD
ENDROOT
BRANCH   5   9
ATOM      9  C   UNL     1      43.710   4.292  10.725  0.00  0.00    +0.000 C 
ATOM     10  O   UNL     1      43.864   4.289   9.516  0.00  0.00    +0.000 OA
BRANCH   9  11
ATOM     11  O   UNL     1      42.776   3.547  11.348  0.00  0.00    +0.000 OA
ATOM     12  H   UNL     1      42.849   3.500  12.318  0.00  0.00    +0.000 HD
ENDBRANCH   9  11
ENDBRANCH   5   9
BRANCH   1  13
ATOM     13  C   UNL     1      48.413   6.291  14.474  0.00  0.00    +0.000 C 
BRANCH  13  17
ATOM     14  C   UNL     1      48.284   5.463  18.736  0.00  0.00    +0.000 A 
ATOM     15  C   UNL     1      48.804   6.680  18.270  0.00  0.00    +0.000 A 
ATOM     16  C   UNL     1      48.871   6.954  16.900  0.00  0.00    +0.000 A 
ATOM     17  C   UNL     1      48.439   6.009  15.962  0.00  0.00    +0.000 A 
ATOM     18  C   UNL     1      47.913   4.795  16.432  0.00  0.00    +0.000 A 
ATOM     19  C   UNL     1      47.839   4.522  17.801  0.00  0.00    +0.000 A 
BRANCH  14  20
ATOM     20  C   UNL     1      48.222   5.169  20.214  0.00  0.00    +0.000 C 
BRANCH  20  21
ATOM     21  N   UNL     1      48.342   3.742  20.491  0.00  0.00    +0.000 NA
ATOM     22  H   UNL     1      48.168   3.579  21.480  0.00  0.00    +0.000 HD
ATOM     23  H   UNL     1      49.304   3.456  20.315  0.00  0.00    +0.000 HD
ENDBRANCH  20  21
ENDBRANCH  14  20
ENDBRANCH  13  17
ENDBRANCH   1  13
TORSDOF 6
ENDMDL
