MODEL 1
REMARK VINA RESULT:    -8.516      0.000      0.000
REMARK INTER + INTRA:         -11.270
REMARK INTER:                 -10.757
REMARK INTRA:                  -0.513
REMARK UNBOUND:                -0.513
REMARK  Name = 
REMARK  5 active torsions:
REMARK  status: ('A' for Active; 'I' for Inactive)
REMARK    1  A    between atoms: C_2  and  C_4
REMARK    2  A    between atoms: N_8  and  C_9
REMARK    3  A    between atoms: C_9  and  C_10
REMARK    4  A    between atoms: C_10  and  O_11
REMARK    5  A    between atoms: C_10  and  C_12
REMARK                            x       y       z     vdW  Elec       q    Type
REMARK                         _______ _______ _______ _____ _____    ______ ____
ROOT
ATOM      1  C   UNL     1      46.229   2.123   8.010  0.00  0.00    +0.000 A 
ATOM      2  C   UNL     1      46.339   3.465   7.686  0.00  0.00    +0.000 A 
ATOM      3  C   UNL     1      45.466   4.375   8.292  0.00  0.00    +0.000 A 
ATOM      4  C   UNL     1      44.536   3.936   9.224  0.00  0.00    +0.000 A 
ATOM      5  N   UNL     1      43.730   4.894   9.844  0.00  0.00    +0.000 N 
ATOM      6  N   UNL     1      44.446   2.629   9.571  0.00  0.00    +0.000 NA
ATOM      7  C   UNL     1      45.270   1.747   8.936  0.00  0.00    +0.000 A 
ATOM      8  H   UNL     1      43.144   5.427   9.212  0.00  0.00    +0.000 HD
ENDROOT
BRANCH   1  10
ATOM      9  N   UNL     1      46.775  -0.224   7.688  0.00  0.00    +0.000 N 
ATOM     10  C   UNL     1      47.058   1.075   7.368  0.00  0.00    +0.000 C 
ATOM     11  O   UNL     1      47.930   1.357   6.578  0.00  0.00    +0.000 OA
ATOM     12  H   UNL     1      47.291  -0.932   7.179  0.00  0.00    +0.000 HD
ATOM     13  H   UNL     1      45.915  -0.499   8.136  0.00  0.00    +0.000 HD
ENDBRANCH   1  10
BRANCH   5  14
ATOM     14  C   UNL     1      43.134   4.543  11.141  0.00  0.00    +0.000 C 
BRANCH  14  15
ATOM     15  C   UNL     1      43.391   5.633  12.213  0.00  0.00    +0.000 C 
BRANCH  15  16
ATOM     16  C   UNL     1      44.858   5.793  12.591  0.00  0.00    +0.000 A 
ATOM     17  C   UNL     1      45.497   4.763  13.301  0.00  0.00    +0.000 A 
ATOM     18  C   UNL     1      46.850   4.856  13.639  0.00  0.00    +0.000 A 
ATOM     19  C   UNL     1      47.592   5.972  13.265  0.00  0.00    +0.000 A 
ATOM     20  C   UNL     1      46.976   7.005  12.561  0.00  0.00    +0.000 A 
ATOM     21  C   UNL     1      45.623   6.916  12.229  0.00  0.00    +0.000 A 
ENDBRANCH  15  16
BRANCH  15  22
ATOM     22  O   UNL     1      42.650   5.326  13.398  0.00  0.00    +0.000 OA
ATOM     23  H   UNL     1      41.914   5.955  13.442  0.00  0.00    +0.000 HD
ENDBRANCH  15  22
ENDBRANCH  14  15
ENDBRANCH   5  14
TORSDOF 5
ENDMDL
MODEL 2
REMARK VINA RESULT:    -7.259      3.090      6.479
REMARK INTER + INTRA:          -9.682
REMARK INTER:                  -9.349
REMARK INTRA:                  -0.333
REMARK UNBOUND:                -0.513
REMARK  Name = 
REMARK  5 active torsions:
REMARK  status: ('A' for Active; 'I' for Inactive)
REMARK    1  A    between atoms: C_2  and  C_4
REMARK    2  A    between atoms: N_8  and  C_9
REMARK    3  A    between atoms: C_9  and  C_10
REMARK    4  A    between atoms: C_10  and  O_11
REMARK    5  A    between atoms: C_10  and  C_12
REMARK                            x       y       z     vdW  Elec       q    Type
REMARK                         _______ _______ _______ _____ _____    ______ ____
ROOT
ATOM      1  C   UNL     1      47.161   4.778  14.810  0.00  0.00    +0.000 A 
ATOM      2  C   UNL     1      46.882   5.940  14.109  0.00  0.00    +0.000 A 
ATOM      3  C   UNL     1      46.292   5.836  12.845  0.00  0.00    +0.000 A 
ATOM      4  C   UNL     1      45.964   4.590  12.327  0.00  0.00    +0.000 A 
ATOM      5  N   UNL     1      45.322   4.546  11.088  0.00  0.00    +0.000 N 
ATOM      6  N   UNL     1      46.203   3.451  13.023  0.00  0.00    +0.000 NA
ATOM      7  C   UNL     1      46.823   3.565  14.232  0.00  0.00    +0.000 A 
ATOM      8  H   UNL     1      45.851   4.947  10.322  0.00  0.00    +0.000 HD
ENDROOT
BRANCH   1  10
ATOM      9  N   UNL     1      47.064   4.674  17.236  0.00  0.00    +0.000 N 
ATOM     10  C   UNL     1      47.850   4.782  16.123  0.00  0.00    +0.000 C 
ATOM     11  O   UNL     1      49.054   4.854  16.202  0.00  0.00    +0.000 OA
ATOM     12  H   UNL     1      47.552   4.592  18.121  0.00  0.00    +0.000 HD
ATOM     13  H   UNL     1      46.104   4.367  17.199  0.00  0.00    +0.000 HD
ENDBRANCH   1  10
BRANCH   5  14
ATOM     14  C   UNL     1      44.536   3.344  10.773  0.00  0.00    +0.000 C 
BRANCH  14  15
ATOM     15  C   UNL     1      44.227   3.232   9.258  0.00  0.00    +0.000 C 
BRANCH  15  16
ATOM     16  C   UNL     1      45.412   2.771   8.418  0.00  0.00    +0.000 A 
ATOM     17  C   UNL     1      45.792   1.418   8.458  0.00  0.00    +0.000 A 
ATOM     18  C   UNL     1      46.853   0.948   7.678  0.00  0.00    +0.000 A 
ATOM     19  C   UNL     1      47.545   1.815   6.839  0.00  0.00    +0.000 A 
ATOM     20  C   UNL     1      47.184   3.160   6.787  0.00  0.00    +0.000 A 
ATOM     21  C   UNL     1      46.129   3.631   7.569  0.00  0.00    +0.000 A 
ENDBRANCH  15  16
BRANCH  15  22
ATOM     22  O   UNL     1      43.789   4.501   8.761  0.00  0.00    +0.000 OA
ATOM     23  H   UNL     1      44.581   4.973   8.459  0.00  0.00    +0.000 HD
ENDBRANCH  15  22
ENDBRANCH  14  15
ENDBRANCH   5  14
TORSDOF 5
ENDMDL
MODEL 3
REMARK VINA RESULT:    -7.198      3.047      6.824
REMARK INTER + INTRA:          -9.605
REMARK INTER:                  -9.317
REMARK INTRA:                  -0.288
REMARK UNBOUND:                -0.513
REMARK  Name = 
REMARK  5 active torsions:
REMARK  status: ('A' for Active; 'I' for Inactive)
REMARK    1  A    between atoms: C_2  and  C_4
REMARK    2  A    between atoms: N_8  and  C_9
REMARK    3  A    between atoms: C_9  and  C_10
REMARK    4  A    between atoms: C_10  and  O_11
REMARK    5  A    between atoms: C_10  and  C_12
REMARK                            x       y       z     vdW  Elec       q    Type
REMARK                         _______ _______ _______ _____ _____    ______ ____
ROOT
ATOM      1  C   UNL     1      46.929   8.031  13.059  0.00  0.00    +0.000 A 
ATOM      2  C   UNL     1      45.649   8.400  12.680  0.00  0.00    +0.000 A 
ATOM      3  C   UNL     1      44.943   7.572  11.802  0.00  0.00    +0.000 A 
ATOM      4  C   UNL     1      45.509   6.386  11.353  0.00  0.00    +0.000 A 
ATOM      5  N   UNL     1      44.737   5.566  10.526  0.00  0.00    +0.000 N 
ATOM      6  N   UNL     1      46.747   6.002  11.746  0.00  0.00    +0.000 NA
ATOM      7  C   UNL     1      47.443   6.844  12.563  0.00  0.00    +0.000 A 
ATOM      8  H   UNL     1      44.450   5.994   9.654  0.00  0.00    +0.000 HD
ENDROOT
BRANCH   1  10
ATOM      9  N   UNL     1      47.462   8.929  15.253  0.00  0.00    +0.000 N 
ATOM     10  C   UNL     1      47.783   8.878  13.925  0.00  0.00    +0.000 C 
ATOM     11  O   UNL     1      48.734   9.478  13.480  0.00  0.00    +0.000 OA
ATOM     12  H   UNL     1      48.103   9.442  15.848  0.00  0.00    +0.000 HD
ATOM     13  H   UNL     1      46.846   8.261  15.691  0.00  0.00    +0.000 HD
ENDBRANCH   1  10
BRANCH   5  14
ATOM     14  C   UNL     1      45.092   4.141  10.464  0.00  0.00    +0.000 C 
BRANCH  14  15
ATOM     15  C   UNL     1      44.545   3.461   9.182  0.00  0.00    +0.000 C 
BRANCH  15  16
ATOM     16  C   UNL     1      45.626   2.853   8.297  0.00  0.00    +0.000 A 
ATOM     17  C   UNL     1      45.936   1.490   8.436  0.00  0.00    +0.000 A 
ATOM     18  C   UNL     1      46.899   0.886   7.621  0.00  0.00    +0.000 A 
ATOM     19  C   UNL     1      47.559   1.628   6.648  0.00  0.00    +0.000 A 
ATOM     20  C   UNL     1      47.266   2.982   6.495  0.00  0.00    +0.000 A 
ATOM     21  C   UNL     1      46.310   3.587   7.312  0.00  0.00    +0.000 A 
ENDBRANCH  15  16
BRANCH  15  22
ATOM     22  O   UNL     1      43.812   4.415   8.408  0.00  0.00    +0.000 OA
ATOM     23  H   UNL     1      43.905   5.272   8.854  0.00  0.00    +0.000 HD
ENDBRANCH  15  22
ENDBRANCH  14  15
ENDBRANCH   5  14
TORSDOF 5
ENDMDL
MODEL 4
REMARK VINA RESULT:    -7.191      2.651      6.524
REMARK INTER + INTRA:          -9.596
REMARK INTER:                  -9.228
REMARK INTRA:                  -0.367
REMARK UNBOUND:                -0.513
REMARK  Name = 
REMARK  5 active torsions:
REMARK  status: ('A' for Active; 'I' for Inactive)
REMARK    1  A    between atoms: C_2  and  C_4
REMARK    2  A    between atoms: N_8  and  C_9
REMARK    3  A    between atoms: C_9  and  C_10
REMARK    4  A    between atoms: C_10  and  O_11
REMARK    5  A    between atoms: C_10  and  C_12
REMARK                            x       y       z     vdW  Elec       q    Type
REMARK                         _______ _______ _______ _____ _____    ______ ____
ROOT
ATOM      1  C   UNL     1      46.834   6.200  13.092  0.00  0.00    +0.000 A 
ATOM      2  C   UNL     1      45.913   5.417  13.769  0.00  0.00    +0.000 A 
ATOM      3  C   UNL     1      44.935   4.741  13.031  0.00  0.00    +0.000 A 
ATOM      4  C   UNL     1      44.918   4.832  11.646  0.00  0.00    +0.000 A 
ATOM      5  N   UNL     1      43.959   4.089  10.954  0.00  0.00    +0.000 N 
ATOM      6  N   UNL     1      45.837   5.569  10.975  0.00  0.00    +0.000 NA
ATOM      7  C   UNL     1      46.754   6.262  11.710  0.00  0.00    +0.000 A 
ATOM      8  H   UNL     1      42.999   4.321  11.182  0.00  0.00    +0.000 HD
ENDROOT
BRANCH   1  10
ATOM      9  N   UNL     1      47.450   8.195  14.336  0.00  0.00    +0.000 N 
ATOM     10  C   UNL     1      47.861   7.011  13.790  0.00  0.00    +0.000 C 
ATOM     11  O   UNL     1      49.004   6.629  13.891  0.00  0.00    +0.000 OA
ATOM     12  H   UNL     1      48.141   8.698  14.882  0.00  0.00    +0.000 HD
ATOM     13  H   UNL     1      46.479   8.419  14.485  0.00  0.00    +0.000 HD
ENDBRANCH   1  10
BRANCH   5  14
ATOM     14  C   UNL     1      44.233   3.772   9.546  0.00  0.00    +0.000 C 
BRANCH  14  15
ATOM     15  C   UNL     1      45.047   2.460   9.393  0.00  0.00    +0.000 C 
BRANCH  15  16
ATOM     16  C   UNL     1      45.906   2.409   8.136  0.00  0.00    +0.000 A 
ATOM     17  C   UNL     1      45.938   3.527   7.285  0.00  0.00    +0.000 A 
ATOM     18  C   UNL     1      46.738   3.534   6.139  0.00  0.00    +0.000 A 
ATOM     19  C   UNL     1      47.529   2.432   5.828  0.00  0.00    +0.000 A 
ATOM     20  C   UNL     1      47.510   1.314   6.660  0.00  0.00    +0.000 A 
ATOM     21  C   UNL     1      46.706   1.304   7.800  0.00  0.00    +0.000 A 
ENDBRANCH  15  16
BRANCH  15  22
ATOM     22  O   UNL     1      44.155   1.341   9.376  0.00  0.00    +0.000 OA
ATOM     23  H   UNL     1      44.621   0.616   8.930  0.00  0.00    +0.000 HD
ENDBRANCH  15  22
ENDBRANCH  14  15
ENDBRANCH   5  14
TORSDOF 5
ENDMDL
MODEL 5
REMARK VINA RESULT:    -7.190      2.481      6.658
REMARK INTER + INTRA:          -9.595
REMARK INTER:                  -9.553
REMARK INTRA:                  -0.042
REMARK UNBOUND:                -0.513
REMARK  Name = 
REMARK  5 active torsions:
REMARK  status: ('A' for Active; 'I' for Inactive)
REMARK    1  A    between atoms: C_2  and  C_4
REMARK    2  A    between atoms: N_8  and  C_9
REMARK    3  A    between atoms: C_9  and  C_10
REMARK    4  A    between atoms: C_10  and  O_11
REMARK    5  A    between atoms: C_10  and  C_12
REMARK                            x       y       z     vdW  Elec       q    Type
REMARK                         _______ _______ _______ _____ _____    ______ ____
ROOT
ATOM      1  C   UNL     1      45.737   7.416  12.559  0.00  0.00    +0.000 A 
ATOM      2  C   UNL     1      46.673   6.410  12.733  0.00  0.00    +0.000 A 
ATOM      3  C   UNL     1      46.386   5.133  12.240  0.00  0.00    +0.000 A 
ATOM      4  C   UNL     1      45.199   4.897  11.560  0.00  0.00    +0.000 A 
ATOM      5  N   UNL     1      44.989   3.620  11.035  0.00  0.00    +0.000 N 
ATOM      6  N   UNL     1      44.294   5.885  11.355  0.00  0.00    +0.000 NA
ATOM      7  C   UNL     1      44.565   7.113  11.884  0.00  0.00    +0.000 A 
ATOM      8  H   UNL     1      44.976   2.876  11.724  0.00  0.00    +0.000 HD
ENDROOT
BRANCH   1  10
ATOM      9  N   UNL     1      44.933   9.692  12.844  0.00  0.00    +0.000 N 
ATOM     10  C   UNL     1      45.918   8.781  13.108  0.00  0.00    +0.000 C 
ATOM     11  O   UNL     1      46.883   9.067  13.780  0.00  0.00    +0.000 OA
ATOM     12  H   UNL     1      45.027  10.595  13.296  0.00  0.00    +0.000 HD
ATOM     13  H   UNL     1      44.020   9.425  12.510  0.00  0.00    +0.000 HD
ENDBRANCH   1  10
BRANCH   5  14
ATOM     14  C   UNL     1      44.037   3.492   9.923  0.00  0.00    +0.000 C 
BRANCH  14  15
ATOM     15  C   UNL     1      44.650   3.952   8.576  0.00  0.00    +0.000 C 
BRANCH  15  16
ATOM     16  C   UNL     1      45.661   2.973   7.991  0.00  0.00    +0.000 A 
ATOM     17  C   UNL     1      46.605   3.440   7.061  0.00  0.00    +0.000 A 
ATOM     18  C   UNL     1      47.570   2.581   6.525  0.00  0.00    +0.000 A 
ATOM     19  C   UNL     1      47.617   1.247   6.917  0.00  0.00    +0.000 A 
ATOM     20  C   UNL     1      46.688   0.765   7.838  0.00  0.00    +0.000 A 
ATOM     21  C   UNL     1      45.721   1.620   8.368  0.00  0.00    +0.000 A 
ENDBRANCH  15  16
BRANCH  15  22
ATOM     22  O   UNL     1      45.296   5.217   8.749  0.00  0.00    +0.000 OA
ATOM     23  H   UNL     1      45.791   5.169   9.582  0.00  0.00    +0.000 HD
ENDBRANCH  15  22
ENDBRANCH  14  15
ENDBRANCH   5  14
TORSDOF 5
ENDMDL
MODEL 6
REMARK VINA RESULT:    -7.094      1.464      2.143
REMARK INTER + INTRA:          -9.473
REMARK INTER:                  -8.987
REMARK INTRA:                  -0.487
REMARK UNBOUND:                -0.513
REMARK  Name = 
REMARK  5 active torsions:
REMARK  status: ('A' for Active; 'I' for Inactive)
REMARK    1  A    between atoms: C_2  and  C_4
REMARK    2  A    between atoms: N_8  and  C_9
REMARK    3  A    between atoms: C_9  and  C_10
REMARK    4  A    between atoms: C_10  and  O_11
REMARK    5  A    between atoms: C_10  and  C_12
REMARK                            x       y       z     vdW  Elec       q    Type
REMARK                         _______ _______ _______ _____ _____    ______ ____
ROOT
ATOM      1  C   UNL     1      46.458   2.895   7.330  0.00  0.00    +0.000 A 
ATOM      2  C   UNL     1      45.923   1.818   8.020  0.00  0.00    +0.000 A 
ATOM      3  C   UNL     1      45.153   2.068   9.161  0.00  0.00    +0.000 A 
ATOM      4  C   UNL     1      44.906   3.372   9.565  0.00  0.00    +0.000 A 
ATOM      5  N   UNL     1      44.081   3.567  10.676  0.00  0.00    +0.000 N 
ATOM      6  N   UNL     1      45.398   4.431   8.876  0.00  0.00    +0.000 NA
ATOM      7  C   UNL     1      46.187   4.172   7.795  0.00  0.00    +0.000 A 
ATOM      8  H   UNL     1      44.423   3.153  11.535  0.00  0.00    +0.000 HD
ENDROOT
BRANCH   1  10
ATOM      9  N   UNL     1      48.662   2.456   6.404  0.00  0.00    +0.000 N 
ATOM     10  C   UNL     1      47.346   2.730   6.155  0.00  0.00    +0.000 C 
ATOM     11  O   UNL     1      46.919   2.811   5.026  0.00  0.00    +0.000 OA
ATOM     12  H   UNL     1      49.239   2.262   5.594  0.00  0.00    +0.000 HD
ATOM     13  H   UNL     1      48.992   2.140   7.304  0.00  0.00    +0.000 HD
ENDBRANCH   1  10
BRANCH   5  14
ATOM     14  C   UNL     1      43.414   4.871  10.805  0.00  0.00    +0.000 C 
BRANCH  14  15
ATOM     15  C   UNL     1      43.734   5.556  12.159  0.00  0.00    +0.000 C 
BRANCH  15  16
ATOM     16  C   UNL     1      45.005   6.395  12.141  0.00  0.00    +0.000 A 
ATOM     17  C   UNL     1      44.899   7.793  12.050  0.00  0.00    +0.000 A 
ATOM     18  C   UNL     1      46.040   8.602  12.063  0.00  0.00    +0.000 A 
ATOM     19  C   UNL     1      47.303   8.030  12.178  0.00  0.00    +0.000 A 
ATOM     20  C   UNL     1      47.429   6.646  12.269  0.00  0.00    +0.000 A 
ATOM     21  C   UNL     1      46.291   5.838  12.249  0.00  0.00    +0.000 A 
ENDBRANCH  15  16
BRANCH  15  22
ATOM     22  O   UNL     1      43.863   4.563  13.181  0.00  0.00    +0.000 OA
ATOM     23  H   UNL     1      42.969   4.378  13.510  0.00  0.00    +0.000 HD
ENDBRANCH  15  22
ENDBRANCH  14  15
ENDBRANCH   5  14
TORSDOF 5
ENDMDL
MODEL 7
REMARK VINA RESULT:    -6.728      3.003      6.390
REMARK INTER + INTRA:          -9.011
REMARK INTER:                  -8.328
REMARK INTRA:                  -0.684
REMARK UNBOUND:                -0.513
REMARK  Name = 
REMARK  5 active torsions:
REMARK  status: ('A' for Active; 'I' for Inactive)
REMARK    1  A    between atoms: C_2  and  C_4
REMARK    2  A    between atoms: N_8  and  C_9
REMARK    3  A    between atoms: C_9  and  C_10
REMARK    4  A    between atoms: C_10  and  O_11
REMARK    5  A    between atoms: C_10  and  C_12
REMARK                            x       y       z     vdW  Elec       q    Type
REMARK                         _______ _______ _______ _____ _____    ______ ____
ROOT
ATOM      1  C   UNL     1      46.775   8.673  12.331  0.00  0.00    +0.000 A 
ATOM      2  C   UNL     1      47.628   7.673  11.892  0.00  0.00    +0.000 A 
ATOM      3  C   UNL     1      47.182   6.348  11.924  0.00  0.00    +0.000 A 
ATOM      4  C   UNL     1      45.896   6.054  12.354  0.00  0.00    +0.000 A 
ATOM      5  N   UNL     1      45.480   4.721  12.308  0.00  0.00    +0.000 N 
ATOM      6  N   UNL     1      45.043   7.030  12.752  0.00  0.00    +0.000 NA
ATOM      7  C   UNL     1      45.508   8.312  12.762  0.00  0.00    +0.000 A 
ATOM      8  H   UNL     1      46.030   4.086  12.874  0.00  0.00    +0.000 HD
ENDROOT
BRANCH   1  10
ATOM      9  N   UNL     1      47.803  10.506  13.551  0.00  0.00    +0.000 N 
ATOM     10  C   UNL     1      47.181  10.097  12.405  0.00  0.00    +0.000 C 
ATOM     11  O   UNL     1      46.990  10.855  11.482  0.00  0.00    +0.000 OA
ATOM     12  H   UNL     1      48.152  11.458  13.555  0.00  0.00    +0.000 HD
ATOM     13  H   UNL     1      48.194   9.859  14.220  0.00  0.00    +0.000 HD
ENDBRANCH   1  10
BRANCH   5  14
ATOM     14  C   UNL     1      44.034   4.463  12.263  0.00  0.00    +0.000 C 
BRANCH  14  15
ATOM     15  C   UNL     1      43.488   4.462  10.811  0.00  0.00    +0.000 C 
BRANCH  15  16
ATOM     16  C   UNL     1      44.437   3.835   9.796  0.00  0.00    +0.000 A 
ATOM     17  C   UNL     1      44.516   2.435   9.708  0.00  0.00    +0.000 A 
ATOM     18  C   UNL     1      45.349   1.820   8.769  0.00  0.00    +0.000 A 
ATOM     19  C   UNL     1      46.108   2.591   7.894  0.00  0.00    +0.000 A 
ATOM     20  C   UNL     1      46.044   3.981   7.966  0.00  0.00    +0.000 A 
ATOM     21  C   UNL     1      45.217   4.595   8.908  0.00  0.00    +0.000 A 
ENDBRANCH  15  16
BRANCH  15  22
ATOM     22  O   UNL     1      43.211   5.804  10.400  0.00  0.00    +0.000 OA
ATOM     23  H   UNL     1      42.296   5.818  10.079  0.00  0.00    +0.000 HD
ENDBRANCH  15  22
ENDBRANCH  14  15
ENDBRANCH   5  14
TORSDOF 5
ENDMDL
MODEL 8
REMARK VINA RESULT:    -6.563      4.216      5.828
REMARK INTER + INTRA:          -8.803
REMARK INTER:                  -8.542
REMARK INTRA:                  -0.261
REMARK UNBOUND:                -0.513
REMARK  Name = 
REMARK  5 active torsions:
REMARK  status: ('A' for Active; 'I' for Inactive)
REMARK    1  A    between atoms: C_2  and  C_4
REMARK    2  A    between atoms: N_8  and  C_9
REMARK    3  A    between atoms: C_9  and  C_10
REMARK    4  A    between atoms: C_10  and  O_11
REMARK    5  A    between atoms: C_10  and  C_12
REMARK                            x       y       z     vdW  Elec       q    Type
REMARK                         _______ _______ _______ _____ _____    ______ ____
ROOT
ATOM      1  C   UNL     1      45.590   4.921  10.974  0.00  0.00    +0.000 A 
ATOM      2  C   UNL     1      46.163   6.083  11.465  0.00  0.00    +0.000 A 
ATOM      3  C   UNL     1      46.524   6.135  12.816  0.00  0.00    +0.000 A 
ATOM      4  C   UNL     1      46.340   5.026  13.631  0.00  0.00    +0.000 A 
ATOM      5  N   UNL     1      46.774   5.111  14.956  0.00  0.00    +0.000 N 
ATOM      6  N   UNL     1      45.813   3.875  13.149  0.00  0.00    +0.000 NA
ATOM      7  C   UNL     1      45.420   3.855  11.843  0.00  0.00    +0.000 A 
ATOM      8  H   UNL     1      46.326   5.837  15.503  0.00  0.00    +0.000 HD
ENDROOT
BRANCH   1  10
ATOM      9  N   UNL     1      43.777   4.541   9.402  0.00  0.00    +0.000 N 
ATOM     10  C   UNL     1      45.108   4.795   9.578  0.00  0.00    +0.000 C 
ATOM     11  O   UNL     1      45.857   4.934   8.638  0.00  0.00    +0.000 OA
ATOM     12  H   UNL     1      43.445   4.542   8.444  0.00  0.00    +0.000 HD
ATOM     13  H   UNL     1      43.096   4.666  10.135  0.00  0.00    +0.000 HD
ENDBRANCH   1  10
BRANCH   5  14
ATOM     14  C   UNL     1      47.057   3.851  15.659  0.00  0.00    +0.000 C 
BRANCH  14  15
ATOM     15  C   UNL     1      47.631   4.094  17.079  0.00  0.00    +0.000 C 
BRANCH  15  16
ATOM     16  C   UNL     1      49.059   3.592  17.260  0.00  0.00    +0.000 A 
ATOM     17  C   UNL     1      50.023   4.457  17.804  0.00  0.00    +0.000 A 
ATOM     18  C   UNL     1      51.336   4.026  18.017  0.00  0.00    +0.000 A 
ATOM     19  C   UNL     1      51.706   2.722  17.703  0.00  0.00    +0.000 A 
ATOM     20  C   UNL     1      50.764   1.850  17.162  0.00  0.00    +0.000 A 
ATOM     21  C   UNL     1      49.455   2.281  16.943  0.00  0.00    +0.000 A 
ENDBRANCH  15  16
BRANCH  15  22
ATOM     22  O   UNL     1      46.800   3.451  18.050  0.00  0.00    +0.000 OA
ATOM     23  H   UNL     1      46.605   2.563  17.711  0.00  0.00    +0.000 HD
ENDBRANCH  15  22
ENDBRANCH  14  15
ENDBRANCH   5  14
TORSDOF 5
ENDMDL
MODEL 9
REMARK VINA RESULT:    -6.263      3.346      6.691
REMARK INTER + INTRA:          -8.424
REMARK INTER:                  -8.214
REMARK INTRA:                  -0.210
REMARK UNBOUND:                -0.513
REMARK  Name = 
REMARK  5 active torsions:
REMARK  status: ('A' for Active; 'I' for Inactive)
REMARK    1  A    between atoms: C_2  and  C_4
REMARK    2  A    between atoms: N_8  and  C_9
REMARK    3  A    between atoms: C_9  and  C_10
REMARK    4  A    between atoms: C_10  and  O_11
REMARK    5  A    between atoms: C_10  and  C_12
REMARK                            x       y       z     vdW  Elec       q    Type
REMARK                         _______ _______ _______ _____ _____    ______ ____
ROOT
ATOM      1  C   UNL     1      48.195   6.108  15.037  0.00  0.00    +0.000 A 
ATOM      2  C   UNL     1      48.254   6.912  13.911  0.00  0.00    +0.000 A 
ATOM      3  C   UNL     1      47.475   6.571  12.800  0.00  0.00    +0.000 A 
ATOM      4  C   UNL     1      46.635   5.467  12.849  0.00  0.00    +0.000 A 
ATOM      5  N   UNL     1      45.834   5.206  11.736  0.00  0.00    +0.000 N 
ATOM      6  N   UNL     1      46.547   4.695  13.960  0.00  0.00    +0.000 NA
ATOM      7  C   UNL     1      47.349   5.011  15.017  0.00  0.00    +0.000 A 
ATOM      8  H   UNL     1      46.344   5.031  10.878  0.00  0.00    +0.000 HD
ENDROOT
BRANCH   1  10
ATOM      9  N   UNL     1      49.384   5.250  16.976  0.00  0.00    +0.000 N 
ATOM     10  C   UNL     1      49.037   6.345  16.234  0.00  0.00    +0.000 C 
ATOM     11  O   UNL     1      49.418   7.455  16.527  0.00  0.00    +0.000 OA
ATOM     12  H   UNL     1      50.028   5.415  17.741  0.00  0.00    +0.000 HD
ATOM     13  H   UNL     1      49.297   4.307  16.629  0.00  0.00    +0.000 HD
ENDBRANCH   1  10
BRANCH   5  14
ATOM     14  C   UNL     1      44.623   4.399  11.945  0.00  0.00    +0.000 C 
BRANCH  14  15
ATOM     15  C   UNL     1      43.867   4.129  10.618  0.00  0.00    +0.000 C 
BRANCH  15  16
ATOM     16  C   UNL     1      44.741   3.531   9.522  0.00  0.00    +0.000 A 
ATOM     17  C   UNL     1      45.343   4.388   8.585  0.00  0.00    +0.000 A 
ATOM     18  C   UNL     1      46.178   3.884   7.584  0.00  0.00    +0.000 A 
ATOM     19  C   UNL     1      46.435   2.519   7.506  0.00  0.00    +0.000 A 
ATOM     20  C   UNL     1      45.847   1.653   8.426  0.00  0.00    +0.000 A 
ATOM     21  C   UNL     1      45.009   2.155   9.422  0.00  0.00    +0.000 A 
ENDBRANCH  15  16
BRANCH  15  22
ATOM     22  O   UNL     1      43.301   5.348  10.130  0.00  0.00    +0.000 OA
ATOM     23  H   UNL     1      43.881   5.663   9.418  0.00  0.00    +0.000 HD
ENDBRANCH  15  22
ENDBRANCH  14  15
ENDBRANCH   5  14
TORSDOF 5
ENDMDL
