MODEL 1
REMARK VINA RESULT:    -7.794      0.000      0.000
REMARK INTER + INTRA:         -10.374
REMARK INTER:                  -9.845
REMARK INTRA:                  -0.529
REMARK UNBOUND:                -0.529
REMARK  Name = 
REMARK  6 active torsions:
REMARK  status: ('A' for Active; 'I' for Inactive)
REMARK    1  A    between atoms: C_1  and  O_2
REMARK    2  A    between atoms: O_2  and  C_3
REMARK    3  A    between atoms: C_7  and  C_8
REMARK    4  A    between atoms: C_8  and  N_9
REMARK    5  A    between atoms: C_14  and  C_15
REMARK    6  A    between atoms: C_15  and  O_16
REMARK                            x       y       z     vdW  Elec       q    Type
REMARK                         _______ _______ _______ _____ _____    ______ ____
ROOT
ATOM      1  N   UNL     1      44.264   4.001  10.034  0.00  0.00    +0.000 N 
ATOM      2  C   UNL     1      43.868   2.852  10.681  0.00  0.00    +0.000 A 
ATOM      3  C   UNL     1      44.185   1.780   9.879  0.00  0.00    +0.000 A 
ATOM      4  C   UNL     1      45.133   2.264   8.944  0.00  0.00    +0.000 A 
ATOM      5  C   UNL     1      46.131   1.648   8.166  0.00  0.00    +0.000 A 
ATOM      6  C   UNL     1      46.990   2.448   7.399  0.00  0.00    +0.000 A 
ATOM      7  C   UNL     1      46.690   3.805   7.219  0.00  0.00    +0.000 A 
ATOM      8  C   UNL     1      45.692   4.434   7.972  0.00  0.00    +0.000 A 
ATOM      9  C   UNL     1      45.021   3.656   8.924  0.00  0.00    +0.000 A 
ENDROOT
BRANCH   1  10
ATOM     10  C   UNL     1      44.276   5.330  10.660  0.00  0.00    +0.000 C 
BRANCH  10  15
ATOM     11  C   UNL     1      46.542   4.919  13.674  0.00  0.00    +0.000 A 
ATOM     12  C   UNL     1      47.561   5.827  13.416  0.00  0.00    +0.000 A 
ATOM     13  C   UNL     1      47.507   6.615  12.261  0.00  0.00    +0.000 A 
ATOM     14  C   UNL     1      46.435   6.514  11.362  0.00  0.00    +0.000 A 
ATOM     15  C   UNL     1      45.396   5.615  11.613  0.00  0.00    +0.000 A 
ATOM     16  C   UNL     1      45.469   4.836  12.783  0.00  0.00    +0.000 A 
BRANCH  11  18
ATOM     17  C   UNL     1      47.328   4.298  15.833  0.00  0.00    +0.000 C 
ATOM     18  O   UNL     1      46.460   4.063  14.735  0.00  0.00    +0.000 OA
ENDBRANCH  11  18
ENDBRANCH  10  15
ENDBRANCH   1  10
BRANCH   6  19
ATOM     19  C   UNL     1      48.295   1.896   6.880  0.00  0.00    +0.000 C 
BRANCH  19  20
ATOM     20  O   UNL     1      48.326   1.866   5.465  0.00  0.00    +0.000 OA
ATOM     21  H   UNL     1      48.013   2.734   5.164  0.00  0.00    +0.000 HD
ENDBRANCH  19  20
ENDBRANCH   6  19
TORSDOF 5
ENDMDL
MODEL 2
REMARK VINA RESULT:    -7.548      1.494      5.988
REMARK INTER + INTRA:         -10.063
REMARK INTER:                  -9.435
REMARK INTRA:                  -0.629
REMARK UNBOUND:                -0.529
REMARK  Name = 
REMARK  6 active torsions:
REMARK  status: ('A' for Active; 'I' for Inactive)
REMARK    1  A    between atoms: C_1  and  O_2
REMARK    2  A    between atoms: O_2  and  C_3
REMARK    3  A    between atoms: C_7  and  C_8
REMARK    4  A    between atoms: C_8  and  N_9
REMARK    5  A    between atoms: C_14  and  C_15
REMARK    6  A    between atoms: C_15  and  O_16
REMARK                            x       y       z     vdW  Elec       q    Type
REMARK                         _______ _______ _______ _____ _____    ______ ____
ROOT
ATOM      1  N   UNL     1      43.973   3.846  10.955  0.00  0.00    +0.000 N 
ATOM      2  C   UNL     1      43.232   4.978  10.699  0.00  0.00    +0.000 A 
ATOM      3  C   UNL     1      43.443   5.867  11.727  0.00  0.00    +0.000 A 
ATOM      4  C   UNL     1      44.621   5.428  12.382  0.00  0.00    +0.000 A 
ATOM      5  C   UNL     1      45.581   6.070  13.186  0.00  0.00    +0.000 A 
ATOM      6  C   UNL     1      46.712   5.354  13.602  0.00  0.00    +0.000 A 
ATOM      7  C   UNL     1      46.748   3.964  13.430  0.00  0.00    +0.000 A 
ATOM      8  C   UNL     1      45.795   3.303  12.647  0.00  0.00    +0.000 A 
ATOM      9  C   UNL     1      44.818   4.092  12.027  0.00  0.00    +0.000 A 
ENDROOT
BRANCH   1  10
ATOM     10  C   UNL     1      44.163   2.757   9.987  0.00  0.00    +0.000 C 
BRANCH  10  15
ATOM     11  C   UNL     1      46.794   1.812   7.423  0.00  0.00    +0.000 A 
ATOM     12  C   UNL     1      47.169   3.044   6.902  0.00  0.00    +0.000 A 
ATOM     13  C   UNL     1      46.587   4.212   7.406  0.00  0.00    +0.000 A 
ATOM     14  C   UNL     1      45.639   4.165   8.438  0.00  0.00    +0.000 A 
ATOM     15  C   UNL     1      45.259   2.935   8.980  0.00  0.00    +0.000 A 
ATOM     16  C   UNL     1      45.860   1.774   8.461  0.00  0.00    +0.000 A 
BRANCH  11  18
ATOM     17  C   UNL     1      46.619  -0.555   7.593  0.00  0.00    +0.000 C 
ATOM     18  O   UNL     1      47.243   0.586   7.024  0.00  0.00    +0.000 OA
ENDBRANCH  11  18
ENDBRANCH  10  15
ENDBRANCH   1  10
BRANCH   6  19
ATOM     19  C   UNL     1      47.936   6.076  14.107  0.00  0.00    +0.000 C 
BRANCH  19  20
ATOM     20  O   UNL     1      48.934   6.182  13.108  0.00  0.00    +0.000 OA
ATOM     21  H   UNL     1      49.267   7.093  13.147  0.00  0.00    +0.000 HD
ENDBRANCH  19  20
ENDBRANCH   6  19
TORSDOF 5
ENDMDL
MODEL 3
REMARK VINA RESULT:    -7.531      1.411      2.129
REMARK INTER + INTRA:         -10.041
REMARK INTER:                  -9.361
REMARK INTRA:                  -0.680
REMARK UNBOUND:                -0.529
REMARK  Name = 
REMARK  6 active torsions:
REMARK  status: ('A' for Active; 'I' for Inactive)
REMARK    1  A    between atoms: C_1  and  O_2
REMARK    2  A    between atoms: O_2  and  C_3
REMARK    3  A    between atoms: C_7  and  C_8
REMARK    4  A    between atoms: C_8  and  N_9
REMARK    5  A    between atoms: C_14  and  C_15
REMARK    6  A    between atoms: C_15  and  O_16
REMARK                            x       y       z     vdW  Elec       q    Type
REMARK                         _______ _______ _______ _____ _____    ______ ____
ROOT
ATOM      1  N   UNL     1      44.310   4.149  10.294  0.00  0.00    +0.000 N 
ATOM      2  C   UNL     1      43.834   3.037  10.954  0.00  0.00    +0.000 A 
ATOM      3  C   UNL     1      44.004   1.948  10.131  0.00  0.00    +0.000 A 
ATOM      4  C   UNL     1      44.948   2.346   9.152  0.00  0.00    +0.000 A 
ATOM      5  C   UNL     1      45.840   1.643   8.322  0.00  0.00    +0.000 A 
ATOM      6  C   UNL     1      46.736   2.362   7.518  0.00  0.00    +0.000 A 
ATOM      7  C   UNL     1      46.562   3.744   7.360  0.00  0.00    +0.000 A 
ATOM      8  C   UNL     1      45.670   4.461   8.166  0.00  0.00    +0.000 A 
ATOM      9  C   UNL     1      44.974   3.743   9.146  0.00  0.00    +0.000 A 
ENDROOT
BRANCH   1  10
ATOM     10  C   UNL     1      44.484   5.463  10.927  0.00  0.00    +0.000 C 
BRANCH  10  15
ATOM     11  C   UNL     1      47.725   6.966  12.201  0.00  0.00    +0.000 A 
ATOM     12  C   UNL     1      47.922   6.296  13.401  0.00  0.00    +0.000 A 
ATOM     13  C   UNL     1      47.009   5.313  13.801  0.00  0.00    +0.000 A 
ATOM     14  C   UNL     1      45.903   4.983  13.004  0.00  0.00    +0.000 A 
ATOM     15  C   UNL     1      45.697   5.640  11.789  0.00  0.00    +0.000 A 
ATOM     16  C   UNL     1      46.630   6.620  11.406  0.00  0.00    +0.000 A 
BRANCH  11  18
ATOM     17  C   UNL     1      49.910   7.822  11.805  0.00  0.00    +0.000 C 
ATOM     18  O   UNL     1      48.503   7.963  11.686  0.00  0.00    +0.000 OA
ENDBRANCH  11  18
ENDBRANCH  10  15
ENDBRANCH   1  10
BRANCH   6  19
ATOM     19  C   UNL     1      47.952   1.690   6.931  0.00  0.00    +0.000 C 
BRANCH  19  20
ATOM     20  O   UNL     1      48.764   2.604   6.217  0.00  0.00    +0.000 OA
ATOM     21  H   UNL     1      49.209   2.093   5.522  0.00  0.00    +0.000 HD
ENDBRANCH  19  20
ENDBRANCH   6  19
TORSDOF 5
ENDMDL
MODEL 4
REMARK VINA RESULT:    -6.564      2.412      3.395
REMARK INTER + INTRA:          -8.820
REMARK INTER:                  -8.601
REMARK INTRA:                  -0.218
REMARK UNBOUND:                -0.529
REMARK  Name = 
REMARK  6 active torsions:
REMARK  status: ('A' for Active; 'I' for Inactive)
REMARK    1  A    between atoms: C_1  and  O_2
REMARK    2  A    between atoms: O_2  and  C_3
REMARK    3  A    between atoms: C_7  and  C_8
REMARK    4  A    between atoms: C_8  and  N_9
REMARK    5  A    between atoms: C_14  and  C_15
REMARK    6  A    between atoms: C_15  and  O_16
REMARK                            x       y       z     vdW  Elec       q    Type
REMARK                         _______ _______ _______ _____ _____    ______ ____
ROOT
ATOM      1  N   UNL     1      44.863   4.728  12.135  0.00  0.00    +0.000 N 
ATOM      2  C   UNL     1      44.043   3.681  12.495  0.00  0.00    +0.000 A 
ATOM      3  C   UNL     1      43.482   3.166  11.350  0.00  0.00    +0.000 A 
ATOM      4  C   UNL     1      44.281   3.642  10.280  0.00  0.00    +0.000 A 
ATOM      5  C   UNL     1      44.520   3.186   8.971  0.00  0.00    +0.000 A 
ATOM      6  C   UNL     1      45.472   3.848   8.181  0.00  0.00    +0.000 A 
ATOM      7  C   UNL     1      45.977   5.085   8.603  0.00  0.00    +0.000 A 
ATOM      8  C   UNL     1      45.739   5.564   9.897  0.00  0.00    +0.000 A 
ATOM      9  C   UNL     1      44.992   4.746  10.755  0.00  0.00    +0.000 A 
ENDROOT
BRANCH   1  10
ATOM     10  C   UNL     1      45.787   5.398  13.060  0.00  0.00    +0.000 C 
BRANCH  10  15
ATOM     11  C   UNL     1      45.593   9.131  12.414  0.00  0.00    +0.000 A 
ATOM     12  C   UNL     1      46.924   9.476  12.217  0.00  0.00    +0.000 A 
ATOM     13  C   UNL     1      47.909   8.483  12.263  0.00  0.00    +0.000 A 
ATOM     14  C   UNL     1      47.576   7.140  12.491  0.00  0.00    +0.000 A 
ATOM     15  C   UNL     1      46.241   6.774  12.679  0.00  0.00    +0.000 A 
ATOM     16  C   UNL     1      45.268   7.788  12.625  0.00  0.00    +0.000 A 
BRANCH  11  18
ATOM     17  C   UNL     1      43.818  10.161  11.210  0.00  0.00    +0.000 C 
ATOM     18  O   UNL     1      44.523   9.978  12.428  0.00  0.00    +0.000 OA
ENDBRANCH  11  18
ENDBRANCH  10  15
ENDBRANCH   1  10
BRANCH   6  19
ATOM     19  C   UNL     1      46.050   3.184   6.956  0.00  0.00    +0.000 C 
BRANCH  19  20
ATOM     20  O   UNL     1      46.934   4.043   6.261  0.00  0.00    +0.000 OA
ATOM     21  H   UNL     1      47.787   3.582   6.214  0.00  0.00    +0.000 HD
ENDBRANCH  19  20
ENDBRANCH   6  19
TORSDOF 5
ENDMDL
MODEL 5
REMARK VINA RESULT:    -5.975      3.574      5.884
REMARK INTER + INTRA:          -8.076
REMARK INTER:                  -7.777
REMARK INTRA:                  -0.299
REMARK UNBOUND:                -0.529
REMARK  Name = 
REMARK  6 active torsions:
REMARK  status: ('A' for Active; 'I' for Inactive)
REMARK    1  A    between atoms: C_1  and  O_2
REMARK    2  A    between atoms: O_2  and  C_3
REMARK    3  A    between atoms: C_7  and  C_8
REMARK    4  A    between atoms: C_8  and  N_9
REMARK    5  A    between atoms: C_14  and  C_15
REMARK    6  A    between atoms: C_15  and  O_16
REMARK                            x       y       z     vdW  Elec       q    Type
REMARK                         _______ _______ _______ _____ _____    ______ ____
ROOT
ATOM      1  N   UNL     1      47.279   4.816  14.598  0.00  0.00    +0.000 N 
ATOM      2  C   UNL     1      47.732   6.109  14.460  0.00  0.00    +0.000 A 
ATOM      3  C   UNL     1      47.523   6.498  13.157  0.00  0.00    +0.000 A 
ATOM      4  C   UNL     1      46.579   5.583  12.628  0.00  0.00    +0.000 A 
ATOM      5  C   UNL     1      45.658   5.645  11.566  0.00  0.00    +0.000 A 
ATOM      6  C   UNL     1      44.773   4.575  11.366  0.00  0.00    +0.000 A 
ATOM      7  C   UNL     1      44.983   3.371  12.052  0.00  0.00    +0.000 A 
ATOM      8  C   UNL     1      45.904   3.284  13.102  0.00  0.00    +0.000 A 
ATOM      9  C   UNL     1      46.592   4.453  13.450  0.00  0.00    +0.000 A 
ENDROOT
BRANCH   1  10
ATOM     10  C   UNL     1      47.149   4.128  15.890  0.00  0.00    +0.000 C 
BRANCH  10  15
ATOM     11  C   UNL     1      50.281   2.484  17.260  0.00  0.00    +0.000 A 
ATOM     12  C   UNL     1      50.898   3.525  17.943  0.00  0.00    +0.000 A 
ATOM     13  C   UNL     1      50.281   4.779  17.993  0.00  0.00    +0.000 A 
ATOM     14  C   UNL     1      49.042   5.005  17.376  0.00  0.00    +0.000 A 
ATOM     15  C   UNL     1      48.403   3.966  16.695  0.00  0.00    +0.000 A 
ATOM     16  C   UNL     1      49.040   2.713  16.661  0.00  0.00    +0.000 A 
BRANCH  11  18
ATOM     17  C   UNL     1      52.051   0.934  17.617  0.00  0.00    +0.000 C 
ATOM     18  O   UNL     1      50.762   1.217  17.095  0.00  0.00    +0.000 OA
ENDBRANCH  11  18
ENDBRANCH  10  15
ENDBRANCH   1  10
BRANCH   6  19
ATOM     19  C   UNL     1      43.532   4.751  10.527  0.00  0.00    +0.000 C 
BRANCH  19  20
ATOM     20  O   UNL     1      43.815   4.648   9.143  0.00  0.00    +0.000 OA
ATOM     21  H   UNL     1      44.317   5.445   8.905  0.00  0.00    +0.000 HD
ENDBRANCH  19  20
ENDBRANCH   6  19
TORSDOF 5
ENDMDL
MODEL 6
REMARK VINA RESULT:    -5.850      2.202      3.312
REMARK INTER + INTRA:          -7.918
REMARK INTER:                  -7.610
REMARK INTRA:                  -0.308
REMARK UNBOUND:                -0.529
REMARK  Name = 
REMARK  6 active torsions:
REMARK  status: ('A' for Active; 'I' for Inactive)
REMARK    1  A    between atoms: C_1  and  O_2
REMARK    2  A    between atoms: O_2  and  C_3
REMARK    3  A    between atoms: C_7  and  C_8
REMARK    4  A    between atoms: C_8  and  N_9
REMARK    5  A    between atoms: C_14  and  C_15
REMARK    6  A    between atoms: C_15  and  O_16
REMARK                            x       y       z     vdW  Elec       q    Type
REMARK                         _______ _______ _______ _____ _____    ______ ____
ROOT
ATOM      1  N   UNL     1      45.713   5.989  11.936  0.00  0.00    +0.000 N 
ATOM      2  C   UNL     1      45.116   5.559  13.101  0.00  0.00    +0.000 A 
ATOM      3  C   UNL     1      44.154   4.633  12.770  0.00  0.00    +0.000 A 
ATOM      4  C   UNL     1      44.459   4.213  11.452  0.00  0.00    +0.000 A 
ATOM      5  C   UNL     1      44.167   3.053  10.711  0.00  0.00    +0.000 A 
ATOM      6  C   UNL     1      44.721   2.904   9.431  0.00  0.00    +0.000 A 
ATOM      7  C   UNL     1      45.336   4.001   8.814  0.00  0.00    +0.000 A 
ATOM      8  C   UNL     1      45.623   5.170   9.528  0.00  0.00    +0.000 A 
ATOM      9  C   UNL     1      45.286   5.188  10.888  0.00  0.00    +0.000 A 
ENDROOT
BRANCH   1  10
ATOM     10  C   UNL     1      46.919   6.827  11.897  0.00  0.00    +0.000 C 
BRANCH  10  15
ATOM     11  C   UNL     1      48.840   6.915  15.166  0.00  0.00    +0.000 A 
ATOM     12  C   UNL     1      48.652   8.223  15.595  0.00  0.00    +0.000 A 
ATOM     13  C   UNL     1      47.865   9.093  14.834  0.00  0.00    +0.000 A 
ATOM     14  C   UNL     1      47.248   8.665  13.649  0.00  0.00    +0.000 A 
ATOM     15  C   UNL     1      47.418   7.351  13.209  0.00  0.00    +0.000 A 
ATOM     16  C   UNL     1      48.210   6.493  13.993  0.00  0.00    +0.000 A 
BRANCH  11  18
ATOM     17  C   UNL     1      49.500   5.847  17.188  0.00  0.00    +0.000 C 
ATOM     18  O   UNL     1      49.597   5.956  15.776  0.00  0.00    +0.000 OA
ENDBRANCH  11  18
ENDBRANCH  10  15
ENDBRANCH   1  10
BRANCH   6  19
ATOM     19  C   UNL     1      44.776   1.548   8.771  0.00  0.00    +0.000 C 
BRANCH  19  20
ATOM     20  O   UNL     1      46.100   1.186   8.425  0.00  0.00    +0.000 OA
ATOM     21  H   UNL     1      46.414   0.588   9.123  0.00  0.00    +0.000 HD
ENDBRANCH  19  20
ENDBRANCH   6  19
TORSDOF 5
ENDMDL
MODEL 7
REMARK VINA RESULT:    -5.765      2.920      7.888
REMARK INTER + INTRA:          -7.810
REMARK INTER:                  -7.314
REMARK INTRA:                  -0.496
REMARK UNBOUND:                -0.529
REMARK  Name = 
REMARK  6 active torsions:
REMARK  status: ('A' for Active; 'I' for Inactive)
REMARK    1  A    between atoms: C_1  and  O_2
REMARK    2  A    between atoms: O_2  and  C_3
REMARK    3  A    between atoms: C_7  and  C_8
REMARK    4  A    between atoms: C_8  and  N_9
REMARK    5  A    between atoms: C_14  and  C_15
REMARK    6  A    between atoms: C_15  and  O_16
REMARK                            x       y       z     vdW  Elec       q    Type
REMARK                         _______ _______ _______ _____ _____    ______ ____
ROOT
ATOM      1  N   UNL     1      47.266   5.070  14.335  0.00  0.00    +0.000 N 
ATOM      2  C   UNL     1      47.906   6.166  13.801  0.00  0.00    +0.000 A 
ATOM      3  C   UNL     1      48.491   6.862  14.833  0.00  0.00    +0.000 A 
ATOM      4  C   UNL     1      48.542   5.963  15.927  0.00  0.00    +0.000 A 
ATOM      5  C   UNL     1      49.347   5.879  17.078  0.00  0.00    +0.000 A 
ATOM      6  C   UNL     1      49.204   4.775  17.932  0.00  0.00    +0.000 A 
ATOM      7  C   UNL     1      48.108   3.917  17.771  0.00  0.00    +0.000 A 
ATOM      8  C   UNL     1      47.286   3.992  16.640  0.00  0.00    +0.000 A 
ATOM      9  C   UNL     1      47.617   4.948  15.671  0.00  0.00    +0.000 A 
ENDROOT
BRANCH   1  10
ATOM     10  C   UNL     1      46.698   3.981  13.527  0.00  0.00    +0.000 C 
BRANCH  10  15
ATOM     11  C   UNL     1      43.877   3.593  11.021  0.00  0.00    +0.000 A 
ATOM     12  C   UNL     1      42.925   4.486  11.493  0.00  0.00    +0.000 A 
ATOM     13  C   UNL     1      43.203   5.257  12.627  0.00  0.00    +0.000 A 
ATOM     14  C   UNL     1      44.434   5.154  13.292  0.00  0.00    +0.000 A 
ATOM     15  C   UNL     1      45.407   4.269  12.823  0.00  0.00    +0.000 A 
ATOM     16  C   UNL     1      45.107   3.508  11.679  0.00  0.00    +0.000 A 
BRANCH  11  18
ATOM     17  C   UNL     1      44.944   2.339   9.302  0.00  0.00    +0.000 C 
ATOM     18  O   UNL     1      43.751   2.754   9.951  0.00  0.00    +0.000 OA
ENDBRANCH  11  18
ENDBRANCH  10  15
ENDBRANCH   1  10
BRANCH   6  19
ATOM     19  C   UNL     1      50.282   4.432  18.930  0.00  0.00    +0.000 C 
BRANCH  19  20
ATOM     20  O   UNL     1      49.771   4.353  20.248  0.00  0.00    +0.000 OA
ATOM     21  H   UNL     1      48.811   4.235  20.164  0.00  0.00    +0.000 HD
ENDBRANCH  19  20
ENDBRANCH   6  19
TORSDOF 5
ENDMDL
MODEL 8
REMARK VINA RESULT:    -5.712      2.648      6.233
REMARK INTER + INTRA:          -7.744
REMARK INTER:                  -7.368
REMARK INTRA:                  -0.376
REMARK UNBOUND:                -0.529
REMARK  Name = 
REMARK  6 active torsions:
REMARK  status: ('A' for Active; 'I' for Inactive)
REMARK    1  A    between atoms: C_1  and  O_2
REMARK    2  A    between atoms: O_2  and  C_3
REMARK    3  A    between atoms: C_7  and  C_8
REMARK    4  A    between atoms: C_8  and  N_9
REMARK    5  A    between atoms: C_14  and  C_15
REMARK    6  A    between atoms: C_15  and  O_16
REMARK                            x       y       z     vdW  Elec       q    Type
REMARK                         _______ _______ _______ _____ _____    ______ ____
ROOT
ATOM      1  N   UNL     1      45.356   7.041  12.797  0.00  0.00    +0.000 N 
ATOM      2  C   UNL     1      44.720   8.014  12.057  0.00  0.00    +0.000 A 
ATOM      3  C   UNL     1      45.582   9.076  11.918  0.00  0.00    +0.000 A 
ATOM      4  C   UNL     1      46.870   8.572  12.226  0.00  0.00    +0.000 A 
ATOM      5  C   UNL     1      48.175   8.974  11.889  0.00  0.00    +0.000 A 
ATOM      6  C   UNL     1      49.259   8.174  12.281  0.00  0.00    +0.000 A 
ATOM      7  C   UNL     1      49.053   7.141  13.203  0.00  0.00    +0.000 A 
ATOM      8  C   UNL     1      47.763   6.733  13.563  0.00  0.00    +0.000 A 
ATOM      9  C   UNL     1      46.690   7.390  12.948  0.00  0.00    +0.000 A 
ENDROOT
BRANCH   1  10
ATOM     10  C   UNL     1      44.832   5.682  12.983  0.00  0.00    +0.000 C 
BRANCH  10  15
ATOM     11  C   UNL     1      45.355   4.487   9.421  0.00  0.00    +0.000 A 
ATOM     12  C   UNL     1      44.628   3.305   9.386  0.00  0.00    +0.000 A 
ATOM     13  C   UNL     1      43.925   2.892  10.523  0.00  0.00    +0.000 A 
ATOM     14  C   UNL     1      43.930   3.658  11.698  0.00  0.00    +0.000 A 
ATOM     15  C   UNL     1      44.647   4.856  11.747  0.00  0.00    +0.000 A 
ATOM     16  C   UNL     1      45.343   5.253  10.590  0.00  0.00    +0.000 A 
BRANCH  11  18
ATOM     17  C   UNL     1      46.579   4.117   7.414  0.00  0.00    +0.000 C 
ATOM     18  O   UNL     1      46.112   5.011   8.413  0.00  0.00    +0.000 OA
ENDBRANCH  11  18
ENDBRANCH  10  15
ENDBRANCH   1  10
BRANCH   6  19
ATOM     19  C   UNL     1      50.608   8.332  11.623  0.00  0.00    +0.000 C 
BRANCH  19  20
ATOM     20  O   UNL     1      51.138   7.086  11.208  0.00  0.00    +0.000 OA
ATOM     21  H   UNL     1      51.342   7.175  10.263  0.00  0.00    +0.000 HD
ENDBRANCH  19  20
ENDBRANCH   6  19
TORSDOF 5
ENDMDL
MODEL 9
REMARK VINA RESULT:    -5.369      3.907      6.097
REMARK INTER + INTRA:          -7.310
REMARK INTER:                  -6.708
REMARK INTRA:                  -0.602
REMARK UNBOUND:                -0.529
REMARK  Name = 
REMARK  6 active torsions:
REMARK  status: ('A' for Active; 'I' for Inactive)
REMARK    1  A    between atoms: C_1  and  O_2
REMARK    2  A    between atoms: O_2  and  C_3
REMARK    3  A    between atoms: C_7  and  C_8
REMARK    4  A    between atoms: C_8  and  N_9
REMARK    5  A    between atoms: C_14  and  C_15
REMARK    6  A    between atoms: C_15  and  O_16
REMARK                            x       y       z     vdW  Elec       q    Type
REMARK                         _______ _______ _______ _____ _____    ______ ____
ROOT
ATOM      1  N   UNL     1      48.545   7.093  14.028  0.00  0.00    +0.000 N 
ATOM      2  C   UNL     1      49.081   7.920  13.066  0.00  0.00    +0.000 A 
ATOM      3  C   UNL     1      48.629   7.495  11.838  0.00  0.00    +0.000 A 
ATOM      4  C   UNL     1      47.506   6.671  12.104  0.00  0.00    +0.000 A 
ATOM      5  C   UNL     1      46.385   6.287  11.346  0.00  0.00    +0.000 A 
ATOM      6  C   UNL     1      45.377   5.525  11.957  0.00  0.00    +0.000 A 
ATOM      7  C   UNL     1      45.613   4.951  13.213  0.00  0.00    +0.000 A 
ATOM      8  C   UNL     1      46.730   5.309  13.977  0.00  0.00    +0.000 A 
ATOM      9  C   UNL     1      47.589   6.278  13.441  0.00  0.00    +0.000 A 
ENDROOT
BRANCH   1  10
ATOM     10  C   UNL     1      48.636   7.352  15.472  0.00  0.00    +0.000 C 
BRANCH  10  15
ATOM     11  C   UNL     1      49.582   4.294  17.507  0.00  0.00    +0.000 A 
ATOM     12  C   UNL     1      50.962   4.410  17.608  0.00  0.00    +0.000 A 
ATOM     13  C   UNL     1      51.606   5.511  17.035  0.00  0.00    +0.000 A 
ATOM     14  C   UNL     1      50.882   6.512  16.370  0.00  0.00    +0.000 A 
ATOM     15  C   UNL     1      49.492   6.416  16.270  0.00  0.00    +0.000 A 
ATOM     16  C   UNL     1      48.866   5.302  16.857  0.00  0.00    +0.000 A 
BRANCH  11  18
ATOM     17  C   UNL     1      47.561   3.047  17.350  0.00  0.00    +0.000 C 
ATOM     18  O   UNL     1      48.811   3.273  17.984  0.00  0.00    +0.000 OA
ENDBRANCH  11  18
ENDBRANCH  10  15
ENDBRANCH   1  10
BRANCH   6  19
ATOM     19  C   UNL     1      44.005   5.429  11.337  0.00  0.00    +0.000 C 
BRANCH  19  20
ATOM     20  O   UNL     1      44.073   5.121   9.957  0.00  0.00    +0.000 OA
ATOM     21  H   UNL     1      44.356   4.195   9.895  0.00  0.00    +0.000 HD
ENDBRANCH  19  20
ENDBRANCH   6  19
TORSDOF 5
ENDMDL
