MODEL 1
REMARK VINA RESULT:    -7.764      0.000      0.000
REMARK INTER + INTRA:         -10.353
REMARK INTER:                  -9.579
REMARK INTRA:                  -0.773
REMARK UNBOUND:                -0.773
REMARK  Name = 
REMARK  4 active torsions:
REMARK  status: ('A' for Active; 'I' for Inactive)
REMARK    1  A    between atoms: C_2  and  C_3
REMARK    2  A    between atoms: C_6  and  C_7
REMARK    3  A    between atoms: C_7  and  C_8
REMARK    4  A    between atoms: C_13  and  N_14
REMARK                            x       y       z     vdW  Elec       q    Type
REMARK                         _______ _______ _______ _____ _____    ______ ____
ROOT
ATOM      1  C   UNL     1      45.343   4.972  11.952  0.00  0.00    +0.000 A 
ATOM      2  C   UNL     1      45.670   4.312  13.145  0.00  0.00    +0.000 A 
ATOM      3  C   UNL     1      46.708   4.776  13.950  0.00  0.00    +0.000 A 
ATOM      4  C   UNL     1      47.406   5.928  13.590  0.00  0.00    +0.000 A 
ATOM      5  F   UNL     1      48.453   6.285  14.352  0.00  0.00    +0.000 F 
ATOM      6  C   UNL     1      47.037   6.694  12.476  0.00  0.00    +0.000 A 
ATOM      7  C   UNL     1      45.978   6.201  11.693  0.00  0.00    +0.000 A 
ENDROOT
BRANCH   6   8
ATOM      8  N   UNL     1      47.683   7.849  12.047  0.00  0.00    +0.000 N 
ATOM      9  C   UNL     1      49.035   7.794  11.469  0.00  0.00    +0.000 C 
ATOM     10  C   UNL     1      50.105   8.384  12.411  0.00  0.00    +0.000 C 
ATOM     11  N   UNL     1      49.756   9.722  12.940  0.00  0.00    +0.000 NA
ATOM     12  C   UNL     1      48.454   9.615  13.631  0.00  0.00    +0.000 C 
ATOM     13  C   UNL     1      47.315   9.107  12.720  0.00  0.00    +0.000 C 
ATOM     14  H   UNL     1      49.636  10.350  12.144  0.00  0.00    +0.000 HD
ENDBRANCH   6   8
BRANCH   1  15
ATOM     15  C   UNL     1      44.506   4.280  10.873  0.00  0.00    +0.000 C 
ATOM     16  C   UNL     1      43.244   3.549  11.348  0.00  0.00    +0.000 C 
ATOM     17  C   UNL     1      43.105   4.875  10.678  0.00  0.00    +0.000 C 
BRANCH  15  21
ATOM     18  C   UNL     1      46.677   2.696   7.430  0.00  0.00    +0.000 A 
ATOM     19  C   UNL     1      46.536   4.075   7.593  0.00  0.00    +0.000 A 
ATOM     20  C   UNL     1      45.814   4.585   8.683  0.00  0.00    +0.000 A 
ATOM     21  C   UNL     1      45.222   3.736   9.636  0.00  0.00    +0.000 A 
ATOM     22  C   UNL     1      45.352   2.352   9.425  0.00  0.00    +0.000 A 
ATOM     23  C   UNL     1      46.074   1.834   8.343  0.00  0.00    +0.000 A 
BRANCH  18  25
ATOM     24  N   UNL     1      48.084   1.744   5.466  0.00  0.00    +0.000 NA
ATOM     25  C   UNL     1      47.452   2.163   6.341  0.00  0.00    +0.000 C 
ENDBRANCH  18  25
ENDBRANCH  15  21
ENDBRANCH   1  15
TORSDOF 4
ENDMDL
MODEL 2
REMARK VINA RESULT:    -7.084      2.887      4.078
REMARK INTER + INTRA:          -9.514
REMARK INTER:                  -9.042
REMARK INTRA:                  -0.473
REMARK UNBOUND:                -0.773
REMARK  Name = 
REMARK  4 active torsions:
REMARK  status: ('A' for Active; 'I' for Inactive)
REMARK    1  A    between atoms: C_2  and  C_3
REMARK    2  A    between atoms: C_6  and  C_7
REMARK    3  A    between atoms: C_7  and  C_8
REMARK    4  A    between atoms: C_13  and  N_14
REMARK                            x       y       z     vdW  Elec       q    Type
REMARK                         _______ _______ _______ _____ _____    ______ ____
ROOT
ATOM      1  C   UNL     1      46.172   4.916  13.037  0.00  0.00    +0.000 A 
ATOM      2  C   UNL     1      46.939   6.076  12.863  0.00  0.00    +0.000 A 
ATOM      3  C   UNL     1      47.783   6.527  13.875  0.00  0.00    +0.000 A 
ATOM      4  C   UNL     1      47.899   5.801  15.059  0.00  0.00    +0.000 A 
ATOM      5  F   UNL     1      48.658   6.322  16.037  0.00  0.00    +0.000 F 
ATOM      6  C   UNL     1      47.253   4.570  15.233  0.00  0.00    +0.000 A 
ATOM      7  C   UNL     1      46.417   4.141  14.187  0.00  0.00    +0.000 A 
ENDROOT
BRANCH   6   8
ATOM      8  N   UNL     1      47.311   3.788  16.383  0.00  0.00    +0.000 N 
ATOM      9  C   UNL     1      47.032   4.363  17.709  0.00  0.00    +0.000 C 
ATOM     10  C   UNL     1      48.302   4.494  18.575  0.00  0.00    +0.000 C 
ATOM     11  N   UNL     1      49.105   3.253  18.641  0.00  0.00    +0.000 NA
ATOM     12  C   UNL     1      49.455   2.861  17.259  0.00  0.00    +0.000 C 
ATOM     13  C   UNL     1      48.223   2.632  16.356  0.00  0.00    +0.000 C 
ATOM     14  H   UNL     1      48.514   2.519  19.033  0.00  0.00    +0.000 HD
ENDBRANCH   6   8
BRANCH   1  15
ATOM     15  C   UNL     1      44.969   4.624  12.138  0.00  0.00    +0.000 C 
ATOM     16  C   UNL     1      43.731   4.029  12.821  0.00  0.00    +0.000 C 
ATOM     17  C   UNL     1      43.727   5.472  12.444  0.00  0.00    +0.000 C 
BRANCH  15  21
ATOM     18  C   UNL     1      45.844   3.493   8.011  0.00  0.00    +0.000 A 
ATOM     19  C   UNL     1      45.989   4.820   8.418  0.00  0.00    +0.000 A 
ATOM     20  C   UNL     1      45.680   5.191   9.735  0.00  0.00    +0.000 A 
ATOM     21  C   UNL     1      45.226   4.249  10.678  0.00  0.00    +0.000 A 
ATOM     22  C   UNL     1      45.059   2.928  10.228  0.00  0.00    +0.000 A 
ATOM     23  C   UNL     1      45.368   2.548   8.917  0.00  0.00    +0.000 A 
BRANCH  18  25
ATOM     24  N   UNL     1      46.496   2.780   5.601  0.00  0.00    +0.000 NA
ATOM     25  C   UNL     1      46.200   3.093   6.676  0.00  0.00    +0.000 C 
ENDBRANCH  18  25
ENDBRANCH  15  21
ENDBRANCH   1  15
TORSDOF 4
ENDMDL
MODEL 3
REMARK VINA RESULT:    -7.054      1.525      2.095
REMARK INTER + INTRA:          -9.477
REMARK INTER:                  -9.004
REMARK INTRA:                  -0.473
REMARK UNBOUND:                -0.773
REMARK  Name = 
REMARK  4 active torsions:
REMARK  status: ('A' for Active; 'I' for Inactive)
REMARK    1  A    between atoms: C_2  and  C_3
REMARK    2  A    between atoms: C_6  and  C_7
REMARK    3  A    between atoms: C_7  and  C_8
REMARK    4  A    between atoms: C_13  and  N_14
REMARK                            x       y       z     vdW  Elec       q    Type
REMARK                         _______ _______ _______ _____ _____    ______ ____
ROOT
ATOM      1  C   UNL     1      45.230   6.024  11.493  0.00  0.00    +0.000 A 
ATOM      2  C   UNL     1      44.560   7.249  11.615  0.00  0.00    +0.000 A 
ATOM      3  C   UNL     1      45.065   8.256  12.433  0.00  0.00    +0.000 A 
ATOM      4  C   UNL     1      46.268   8.064  13.110  0.00  0.00    +0.000 A 
ATOM      5  F   UNL     1      46.669   9.030  13.953  0.00  0.00    +0.000 F 
ATOM      6  C   UNL     1      47.041   6.910  12.924  0.00  0.00    +0.000 A 
ATOM      7  C   UNL     1      46.505   5.919  12.082  0.00  0.00    +0.000 A 
ENDROOT
BRANCH   6   8
ATOM      8  N   UNL     1      48.246   6.639  13.564  0.00  0.00    +0.000 N 
ATOM      9  C   UNL     1      48.288   6.294  14.993  0.00  0.00    +0.000 C 
ATOM     10  C   UNL     1      48.885   7.423  15.858  0.00  0.00    +0.000 C 
ATOM     11  N   UNL     1      50.177   7.938  15.350  0.00  0.00    +0.000 NA
ATOM     12  C   UNL     1      49.971   8.398  13.961  0.00  0.00    +0.000 C 
ATOM     13  C   UNL     1      49.450   7.290  13.018  0.00  0.00    +0.000 C 
ATOM     14  H   UNL     1      50.835   7.158  15.327  0.00  0.00    +0.000 HD
ENDBRANCH   6   8
BRANCH   1  15
ATOM     15  C   UNL     1      44.518   4.786  10.942  0.00  0.00    +0.000 C 
ATOM     16  C   UNL     1      43.708   3.957  11.947  0.00  0.00    +0.000 C 
ATOM     17  C   UNL     1      42.986   4.856  11.001  0.00  0.00    +0.000 C 
BRANCH  15  21
ATOM     18  C   UNL     1      46.442   2.662   7.647  0.00  0.00    +0.000 A 
ATOM     19  C   UNL     1      46.421   4.057   7.661  0.00  0.00    +0.000 A 
ATOM     20  C   UNL     1      45.778   4.742   8.704  0.00  0.00    +0.000 A 
ATOM     21  C   UNL     1      45.147   4.053   9.757  0.00  0.00    +0.000 A 
ATOM     22  C   UNL     1      45.155   2.649   9.696  0.00  0.00    +0.000 A 
ATOM     23  C   UNL     1      45.798   1.958   8.661  0.00  0.00    +0.000 A 
BRANCH  18  25
ATOM     24  N   UNL     1      47.705   1.386   5.770  0.00  0.00    +0.000 NA
ATOM     25  C   UNL     1      47.135   1.951   6.606  0.00  0.00    +0.000 C 
ENDBRANCH  18  25
ENDBRANCH  15  21
ENDBRANCH   1  15
TORSDOF 4
ENDMDL
MODEL 4
REMARK VINA RESULT:    -6.381      2.354      6.745
REMARK INTER + INTRA:          -8.647
REMARK INTER:                  -8.214
REMARK INTRA:                  -0.432
REMARK UNBOUND:                -0.773
REMARK  Name = 
REMARK  4 active torsions:
REMARK  status: ('A' for Active; 'I' for Inactive)
REMARK    1  A    between atoms: C_2  and  C_3
REMARK    2  A    between atoms: C_6  and  C_7
REMARK    3  A    between atoms: C_7  and  C_8
REMARK    4  A    between atoms: C_13  and  N_14
REMARK                            x       y       z     vdW  Elec       q    Type
REMARK                         _______ _______ _______ _____ _____    ______ ____
ROOT
ATOM      1  C   UNL     1      45.399   5.511  12.031  0.00  0.00    +0.000 A 
ATOM      2  C   UNL     1      44.741   4.909  13.112  0.00  0.00    +0.000 A 
ATOM      3  C   UNL     1      43.961   3.770  12.923  0.00  0.00    +0.000 A 
ATOM      4  C   UNL     1      43.863   3.198  11.656  0.00  0.00    +0.000 A 
ATOM      5  F   UNL     1      43.032   2.153  11.508  0.00  0.00    +0.000 F 
ATOM      6  C   UNL     1      44.601   3.685  10.569  0.00  0.00    +0.000 A 
ATOM      7  C   UNL     1      45.385   4.830  10.800  0.00  0.00    +0.000 A 
ENDROOT
BRANCH   6   8
ATOM      8  N   UNL     1      44.555   3.176   9.275  0.00  0.00    +0.000 N 
ATOM      9  C   UNL     1      44.782   1.747   9.010  0.00  0.00    +0.000 C 
ATOM     10  C   UNL     1      46.135   1.481   8.318  0.00  0.00    +0.000 C 
ATOM     11  N   UNL     1      46.371   2.333   7.132  0.00  0.00    +0.000 NA
ATOM     12  C   UNL     1      46.271   3.745   7.555  0.00  0.00    +0.000 C 
ATOM     13  C   UNL     1      44.905   4.102   8.184  0.00  0.00    +0.000 C 
ATOM     14  H   UNL     1      45.620   2.153   6.465  0.00  0.00    +0.000 HD
ENDBRANCH   6   8
BRANCH   1  15
ATOM     15  C   UNL     1      45.916   6.949  12.124  0.00  0.00    +0.000 C 
ATOM     16  C   UNL     1      45.254   7.977  11.197  0.00  0.00    +0.000 C 
ATOM     17  C   UNL     1      44.885   7.962  12.642  0.00  0.00    +0.000 C 
BRANCH  15  21
ATOM     18  C   UNL     1      50.052   7.717  13.295  0.00  0.00    +0.000 A 
ATOM     19  C   UNL     1      49.621   8.032  12.006  0.00  0.00    +0.000 A 
ATOM     20  C   UNL     1      48.301   7.759  11.618  0.00  0.00    +0.000 A 
ATOM     21  C   UNL     1      47.379   7.172  12.506  0.00  0.00    +0.000 A 
ATOM     22  C   UNL     1      47.854   6.835  13.786  0.00  0.00    +0.000 A 
ATOM     23  C   UNL     1      49.168   7.107  14.182  0.00  0.00    +0.000 A 
BRANCH  18  25
ATOM     24  N   UNL     1      52.467   8.279  14.068  0.00  0.00    +0.000 NA
ATOM     25  C   UNL     1      51.391   8.032  13.717  0.00  0.00    +0.000 C 
ENDBRANCH  18  25
ENDBRANCH  15  21
ENDBRANCH   1  15
TORSDOF 4
ENDMDL
MODEL 5
REMARK VINA RESULT:    -6.297      1.944      2.749
REMARK INTER + INTRA:          -8.543
REMARK INTER:                  -8.241
REMARK INTRA:                  -0.302
REMARK UNBOUND:                -0.773
REMARK  Name = 
REMARK  4 active torsions:
REMARK  status: ('A' for Active; 'I' for Inactive)
REMARK    1  A    between atoms: C_2  and  C_3
REMARK    2  A    between atoms: C_6  and  C_7
REMARK    3  A    between atoms: C_7  and  C_8
REMARK    4  A    between atoms: C_13  and  N_14
REMARK                            x       y       z     vdW  Elec       q    Type
REMARK                         _______ _______ _______ _____ _____    ______ ____
ROOT
ATOM      1  C   UNL     1      44.772   7.006  11.242  0.00  0.00    +0.000 A 
ATOM      2  C   UNL     1      43.943   8.095  10.943  0.00  0.00    +0.000 A 
ATOM      3  C   UNL     1      44.305   9.387  11.318  0.00  0.00    +0.000 A 
ATOM      4  C   UNL     1      45.520   9.608  11.964  0.00  0.00    +0.000 A 
ATOM      5  F   UNL     1      45.784  10.857  12.383  0.00  0.00    +0.000 F 
ATOM      6  C   UNL     1      46.442   8.573  12.173  0.00  0.00    +0.000 A 
ATOM      7  C   UNL     1      46.046   7.285  11.772  0.00  0.00    +0.000 A 
ENDROOT
BRANCH   6   8
ATOM      8  N   UNL     1      47.669   8.709  12.814  0.00  0.00    +0.000 N 
ATOM      9  C   UNL     1      48.929   8.697  12.054  0.00  0.00    +0.000 C 
ATOM     10  C   UNL     1      49.743   7.405  12.279  0.00  0.00    +0.000 C 
ATOM     11  N   UNL     1      49.926   7.061  13.706  0.00  0.00    +0.000 NA
ATOM     12  C   UNL     1      48.588   6.948  14.324  0.00  0.00    +0.000 C 
ATOM     13  C   UNL     1      47.747   8.239  14.208  0.00  0.00    +0.000 C 
ATOM     14  H   UNL     1      50.412   7.838  14.155  0.00  0.00    +0.000 HD
ENDBRANCH   6   8
BRANCH   1  15
ATOM     15  C   UNL     1      44.235   5.573  11.208  0.00  0.00    +0.000 C 
ATOM     16  C   UNL     1      43.654   5.027  12.519  0.00  0.00    +0.000 C 
ATOM     17  C   UNL     1      42.722   5.457  11.437  0.00  0.00    +0.000 C 
BRANCH  15  21
ATOM     18  C   UNL     1      45.964   2.750   8.360  0.00  0.00    +0.000 A 
ATOM     19  C   UNL     1      45.285   2.280   9.484  0.00  0.00    +0.000 A 
ATOM     20  C   UNL     1      44.754   3.185  10.416  0.00  0.00    +0.000 A 
ATOM     21  C   UNL     1      44.883   4.576  10.246  0.00  0.00    +0.000 A 
ATOM     22  C   UNL     1      45.602   5.017   9.122  0.00  0.00    +0.000 A 
ATOM     23  C   UNL     1      46.131   4.122   8.185  0.00  0.00    +0.000 A 
BRANCH  18  25
ATOM     24  N   UNL     1      46.886   1.104   6.575  0.00  0.00    +0.000 NA
ATOM     25  C   UNL     1      46.474   1.833   7.376  0.00  0.00    +0.000 C 
ENDBRANCH  18  25
ENDBRANCH  15  21
ENDBRANCH   1  15
TORSDOF 4
ENDMDL
MODEL 6
REMARK VINA RESULT:    -5.917      3.570      5.903
REMARK INTER + INTRA:          -8.074
REMARK INTER:                  -7.620
REMARK INTRA:                  -0.454
REMARK UNBOUND:                -0.773
REMARK  Name = 
REMARK  4 active torsions:
REMARK  status: ('A' for Active; 'I' for Inactive)
REMARK    1  A    between atoms: C_2  and  C_3
REMARK    2  A    between atoms: C_6  and  C_7
REMARK    3  A    between atoms: C_7  and  C_8
REMARK    4  A    between atoms: C_13  and  N_14
REMARK                            x       y       z     vdW  Elec       q    Type
REMARK                         _______ _______ _______ _____ _____    ______ ____
ROOT
ATOM      1  C   UNL     1      48.541   7.499  14.564  0.00  0.00    +0.000 A 
ATOM      2  C   UNL     1      48.477   8.797  15.091  0.00  0.00    +0.000 A 
ATOM      3  C   UNL     1      48.406   9.000  16.467  0.00  0.00    +0.000 A 
ATOM      4  C   UNL     1      48.438   7.909  17.334  0.00  0.00    +0.000 A 
ATOM      5  F   UNL     1      48.280   8.151  18.645  0.00  0.00    +0.000 F 
ATOM      6  C   UNL     1      48.629   6.602  16.865  0.00  0.00    +0.000 A 
ATOM      7  C   UNL     1      48.706   6.436  15.471  0.00  0.00    +0.000 A 
ENDROOT
BRANCH   6   8
ATOM      8  N   UNL     1      48.665   5.461  17.661  0.00  0.00    +0.000 N 
ATOM      9  C   UNL     1      49.934   4.954  18.206  0.00  0.00    +0.000 C 
ATOM     10  C   UNL     1      50.390   3.646  17.526  0.00  0.00    +0.000 C 
ATOM     11  N   UNL     1      49.333   2.612  17.464  0.00  0.00    +0.000 NA
ATOM     12  C   UNL     1      48.169   3.189  16.759  0.00  0.00    +0.000 C 
ATOM     13  C   UNL     1      47.609   4.460  17.436  0.00  0.00    +0.000 C 
ATOM     14  H   UNL     1      49.045   2.403  18.421  0.00  0.00    +0.000 HD
ENDBRANCH   6   8
BRANCH   1  15
ATOM     15  C   UNL     1      48.220   7.230  13.092  0.00  0.00    +0.000 C 
ATOM     16  C   UNL     1      48.518   8.367  12.106  0.00  0.00    +0.000 C 
ATOM     17  C   UNL     1      49.446   7.201  12.169  0.00  0.00    +0.000 C 
BRANCH  15  21
ATOM     18  C   UNL     1      45.020   4.440  12.067  0.00  0.00    +0.000 A 
ATOM     19  C   UNL     1      45.140   5.649  11.380  0.00  0.00    +0.000 A 
ATOM     20  C   UNL     1      46.149   6.560  11.727  0.00  0.00    +0.000 A 
ATOM     21  C   UNL     1      47.064   6.285  12.761  0.00  0.00    +0.000 A 
ATOM     22  C   UNL     1      46.896   5.075  13.456  0.00  0.00    +0.000 A 
ATOM     23  C   UNL     1      45.894   4.159  13.114  0.00  0.00    +0.000 A 
BRANCH  18  25
ATOM     24  N   UNL     1      43.203   2.717  11.380  0.00  0.00    +0.000 NA
ATOM     25  C   UNL     1      44.017   3.480  11.690  0.00  0.00    +0.000 C 
ENDBRANCH  18  25
ENDBRANCH  15  21
ENDBRANCH   1  15
TORSDOF 4
ENDMDL
MODEL 7
REMARK VINA RESULT:    -5.548      4.536      7.736
REMARK INTER + INTRA:          -7.619
REMARK INTER:                  -7.284
REMARK INTRA:                  -0.335
REMARK UNBOUND:                -0.773
REMARK  Name = 
REMARK  4 active torsions:
REMARK  status: ('A' for Active; 'I' for Inactive)
REMARK    1  A    between atoms: C_2  and  C_3
REMARK    2  A    between atoms: C_6  and  C_7
REMARK    3  A    between atoms: C_7  and  C_8
REMARK    4  A    between atoms: C_13  and  N_14
REMARK                            x       y       z     vdW  Elec       q    Type
REMARK                         _______ _______ _______ _____ _____    ______ ____
ROOT
ATOM      1  C   UNL     1      48.544   6.051  15.924  0.00  0.00    +0.000 A 
ATOM      2  C   UNL     1      49.519   7.001  15.588  0.00  0.00    +0.000 A 
ATOM      3  C   UNL     1      49.678   7.418  14.269  0.00  0.00    +0.000 A 
ATOM      4  C   UNL     1      48.837   6.919  13.275  0.00  0.00    +0.000 A 
ATOM      5  F   UNL     1      49.085   7.286  12.008  0.00  0.00    +0.000 F 
ATOM      6  C   UNL     1      47.766   6.066  13.577  0.00  0.00    +0.000 A 
ATOM      7  C   UNL     1      47.631   5.674  14.921  0.00  0.00    +0.000 A 
ENDROOT
BRANCH   6   8
ATOM      8  N   UNL     1      46.887   5.521  12.647  0.00  0.00    +0.000 N 
ATOM      9  C   UNL     1      46.303   6.345  11.577  0.00  0.00    +0.000 C 
ATOM     10  C   UNL     1      44.800   6.620  11.795  0.00  0.00    +0.000 C 
ATOM     11  N   UNL     1      44.011   5.401  12.082  0.00  0.00    +0.000 NA
ATOM     12  C   UNL     1      44.599   4.745  13.269  0.00  0.00    +0.000 C 
ATOM     13  C   UNL     1      46.086   4.366  13.087  0.00  0.00    +0.000 C 
ATOM     14  H   UNL     1      44.118   4.767  11.290  0.00  0.00    +0.000 HD
ENDBRANCH   6   8
BRANCH   1  15
ATOM     15  C   UNL     1      48.609   5.290  17.250  0.00  0.00    +0.000 C 
ATOM     16  C   UNL     1      48.234   6.079  18.512  0.00  0.00    +0.000 C 
ATOM     17  C   UNL     1      47.252   5.110  17.946  0.00  0.00    +0.000 C 
BRANCH  15  21
ATOM     18  C   UNL     1      51.598   2.118  17.522  0.00  0.00    +0.000 A 
ATOM     19  C   UNL     1      50.311   1.828  17.067  0.00  0.00    +0.000 A 
ATOM     20  C   UNL     1      49.340   2.840  17.006  0.00  0.00    +0.000 A 
ATOM     21  C   UNL     1      49.631   4.162  17.392  0.00  0.00    +0.000 A 
ATOM     22  C   UNL     1      50.925   4.414  17.879  0.00  0.00    +0.000 A 
ATOM     23  C   UNL     1      51.901   3.412  17.939  0.00  0.00    +0.000 A 
BRANCH  18  25
ATOM     24  N   UNL     1      53.422   0.270  17.560  0.00  0.00    +0.000 NA
ATOM     25  C   UNL     1      52.613   1.099  17.547  0.00  0.00    +0.000 C 
ENDBRANCH  18  25
ENDBRANCH  15  21
ENDBRANCH   1  15
TORSDOF 4
ENDMDL
MODEL 8
REMARK VINA RESULT:    -5.547      3.591      8.098
REMARK INTER + INTRA:          -7.617
REMARK INTER:                  -7.038
REMARK INTRA:                  -0.579
REMARK UNBOUND:                -0.773
REMARK  Name = 
REMARK  4 active torsions:
REMARK  status: ('A' for Active; 'I' for Inactive)
REMARK    1  A    between atoms: C_2  and  C_3
REMARK    2  A    between atoms: C_6  and  C_7
REMARK    3  A    between atoms: C_7  and  C_8
REMARK    4  A    between atoms: C_13  and  N_14
REMARK                            x       y       z     vdW  Elec       q    Type
REMARK                         _______ _______ _______ _____ _____    ______ ____
ROOT
ATOM      1  C   UNL     1      46.701   7.989  12.928  0.00  0.00    +0.000 A 
ATOM      2  C   UNL     1      46.180   9.245  12.585  0.00  0.00    +0.000 A 
ATOM      3  C   UNL     1      45.005   9.347  11.845  0.00  0.00    +0.000 A 
ATOM      4  C   UNL     1      44.316   8.195  11.471  0.00  0.00    +0.000 A 
ATOM      5  F   UNL     1      43.237   8.342  10.685  0.00  0.00    +0.000 F 
ATOM      6  C   UNL     1      44.724   6.923  11.896  0.00  0.00    +0.000 A 
ATOM      7  C   UNL     1      45.909   6.859  12.651  0.00  0.00    +0.000 A 
ENDROOT
BRANCH   6   8
ATOM      8  N   UNL     1      44.098   5.726  11.563  0.00  0.00    +0.000 N 
ATOM      9  C   UNL     1      42.932   5.241  12.319  0.00  0.00    +0.000 C 
ATOM     10  C   UNL     1      43.264   4.015  13.195  0.00  0.00    +0.000 C 
ATOM     11  N   UNL     1      43.968   2.938  12.464  0.00  0.00    +0.000 NA
ATOM     12  C   UNL     1      45.199   3.510  11.881  0.00  0.00    +0.000 C 
ATOM     13  C   UNL     1      44.933   4.694  10.925  0.00  0.00    +0.000 C 
ATOM     14  H   UNL     1      43.368   2.639  11.695  0.00  0.00    +0.000 HD
ENDBRANCH   6   8
BRANCH   1  15
ATOM     15  C   UNL     1      48.156   7.835  13.376  0.00  0.00    +0.000 C 
ATOM     16  C   UNL     1      49.057   6.965  12.490  0.00  0.00    +0.000 C 
ATOM     17  C   UNL     1      49.184   8.449  12.416  0.00  0.00    +0.000 C 
BRANCH  15  21
ATOM     18  C   UNL     1      48.904   7.915  17.678  0.00  0.00    +0.000 A 
ATOM     19  C   UNL     1      48.468   9.068  17.023  0.00  0.00    +0.000 A 
ATOM     20  C   UNL     1      48.255   9.052  15.636  0.00  0.00    +0.000 A 
ATOM     21  C   UNL     1      48.466   7.889  14.872  0.00  0.00    +0.000 A 
ATOM     22  C   UNL     1      48.939   6.755  15.555  0.00  0.00    +0.000 A 
ATOM     23  C   UNL     1      49.150   6.760  16.939  0.00  0.00    +0.000 A 
BRANCH  18  25
ATOM     24  N   UNL     1      49.215   7.896  20.256  0.00  0.00    +0.000 NA
ATOM     25  C   UNL     1      49.083   7.908  19.105  0.00  0.00    +0.000 C 
ENDBRANCH  18  25
ENDBRANCH  15  21
ENDBRANCH   1  15
TORSDOF 4
ENDMDL
MODEL 9
REMARK VINA RESULT:    -5.514      4.163      8.460
REMARK INTER + INTRA:          -7.577
REMARK INTER:                  -7.102
REMARK INTRA:                  -0.475
REMARK UNBOUND:                -0.773
REMARK  Name = 
REMARK  4 active torsions:
REMARK  status: ('A' for Active; 'I' for Inactive)
REMARK    1  A    between atoms: C_2  and  C_3
REMARK    2  A    between atoms: C_6  and  C_7
REMARK    3  A    between atoms: C_7  and  C_8
REMARK    4  A    between atoms: C_13  and  N_14
REMARK                            x       y       z     vdW  Elec       q    Type
REMARK                         _______ _______ _______ _____ _____    ______ ____
ROOT
ATOM      1  C   UNL     1      47.536   5.173  15.300  0.00  0.00    +0.000 A 
ATOM      2  C   UNL     1      48.322   6.165  14.698  0.00  0.00    +0.000 A 
ATOM      3  C   UNL     1      48.048   6.600  13.404  0.00  0.00    +0.000 A 
ATOM      4  C   UNL     1      46.959   6.075  12.710  0.00  0.00    +0.000 A 
ATOM      5  F   UNL     1      46.787   6.462  11.436  0.00  0.00    +0.000 F 
ATOM      6  C   UNL     1      46.068   5.176  13.312  0.00  0.00    +0.000 A 
ATOM      7  C   UNL     1      46.371   4.767  14.623  0.00  0.00    +0.000 A 
ENDROOT
BRANCH   6   8
ATOM      8  N   UNL     1      44.964   4.601  12.689  0.00  0.00    +0.000 N 
ATOM      9  C   UNL     1      45.125   3.686  11.548  0.00  0.00    +0.000 C 
ATOM     10  C   UNL     1      44.673   4.317  10.214  0.00  0.00    +0.000 C 
ATOM     11  N   UNL     1      43.328   4.932  10.277  0.00  0.00    +0.000 NA
ATOM     12  C   UNL     1      43.337   5.943  11.355  0.00  0.00    +0.000 C 
ATOM     13  C   UNL     1      43.703   5.361  12.739  0.00  0.00    +0.000 C 
ATOM     14  H   UNL     1      42.664   4.203  10.538  0.00  0.00    +0.000 HD
ENDBRANCH   6   8
BRANCH   1  15
ATOM     15  C   UNL     1      48.038   4.405  16.525  0.00  0.00    +0.000 C 
ATOM     16  C   UNL     1      47.078   3.369  17.125  0.00  0.00    +0.000 C 
ATOM     17  C   UNL     1      48.227   2.899  16.297  0.00  0.00    +0.000 C 
BRANCH  15  21
ATOM     18  C   UNL     1      50.802   6.538  19.150  0.00  0.00    +0.000 A 
ATOM     19  C   UNL     1      51.295   5.705  18.144  0.00  0.00    +0.000 A 
ATOM     20  C   UNL     1      50.409   4.997  17.318  0.00  0.00    +0.000 A 
ATOM     21  C   UNL     1      49.014   5.104  17.472  0.00  0.00    +0.000 A 
ATOM     22  C   UNL     1      48.549   5.923  18.516  0.00  0.00    +0.000 A 
ATOM     23  C   UNL     1      49.426   6.637  19.342  0.00  0.00    +0.000 A 
BRANCH  18  25
ATOM     24  N   UNL     1      52.433   7.911  20.632  0.00  0.00    +0.000 NA
ATOM     25  C   UNL     1      51.700   7.303  19.973  0.00  0.00    +0.000 C 
ENDBRANCH  18  25
ENDBRANCH  15  21
ENDBRANCH   1  15
TORSDOF 4
ENDMDL
