MODEL 1
REMARK VINA RESULT:    -7.812      0.000      0.000
REMARK INTER + INTRA:         -12.215
REMARK INTER:                 -11.009
REMARK INTRA:                  -1.206
REMARK UNBOUND:                -1.206
REMARK  Name = 
REMARK  7 active torsions:
REMARK  status: ('A' for Active; 'I' for Inactive)
REMARK    1  A    between atoms: C_2  and  C_4
REMARK    2  A    between atoms: C_8  and  C_9
REMARK    3  A    between atoms: N_11  and  C_12
REMARK    4  A    between atoms: C_12  and  C_13
REMARK    5  A    between atoms: C_16  and  C_17
REMARK    6  A    between atoms: C_17  and  N_18
REMARK    7  A    between atoms: C_19  and  C_21
REMARK                            x       y       z     vdW  Elec       q    Type
REMARK                         _______ _______ _______ _____ _____    ______ ____
ROOT
ATOM      1  C   UNL     1      46.019   7.375  11.800  0.00  0.00    +0.000 A 
ATOM      2  C   UNL     1      45.794   8.413  12.716  0.00  0.00    +0.000 A 
ATOM      3  C   UNL     1      46.815   8.850  13.566  0.00  0.00    +0.000 A 
ATOM      4  C   UNL     1      48.090   8.268  13.509  0.00  0.00    +0.000 A 
ATOM      5  C   UNL     1      48.312   7.226  12.599  0.00  0.00    +0.000 A 
ATOM      6  C   UNL     1      47.291   6.791  11.747  0.00  0.00    +0.000 A 
ENDROOT
BRANCH   1   7
ATOM      7  C   UNL     1      44.926   6.929  10.864  0.00  0.00    +0.000 C 
BRANCH   7  10
ATOM      8  C   UNL     1      44.442   4.738   9.860  0.00  0.00    +0.000 C 
ATOM      9  O   UNL     1      43.263   4.760  10.195  0.00  0.00    +0.000 OA
ATOM     10  N   UNL     1      45.328   5.760  10.117  0.00  0.00    +0.000 N 
ATOM     11  H   UNL     1      46.235   5.775   9.670  0.00  0.00    +0.000 HD
BRANCH   8  16
ATOM     12  C   UNL     1      46.377   2.633   7.354  0.00  0.00    +0.000 A 
ATOM     13  C   UNL     1      46.026   1.340   7.768  0.00  0.00    +0.000 A 
ATOM     14  C   UNL     1      45.161   1.165   8.850  0.00  0.00    +0.000 A 
ATOM     15  C   UNL     1      44.646   2.277   9.521  0.00  0.00    +0.000 A 
ATOM     16  C   UNL     1      44.986   3.571   9.108  0.00  0.00    +0.000 A 
ATOM     17  C   UNL     1      45.863   3.747   8.033  0.00  0.00    +0.000 A 
BRANCH  12  19
ATOM     18  N   UNL     1      48.654   2.716   6.489  0.00  0.00    +0.000 N 
ATOM     19  C   UNL     1      47.321   2.874   6.235  0.00  0.00    +0.000 C 
ATOM     20  O   UNL     1      46.924   3.164   5.114  0.00  0.00    +0.000 OA
ATOM     21  H   UNL     1      49.273   2.789   5.692  0.00  0.00    +0.000 HD
ATOM     22  H   UNL     1      49.004   2.245   7.311  0.00  0.00    +0.000 HD
ENDBRANCH  12  19
ENDBRANCH   8  16
ENDBRANCH   7  10
ENDBRANCH   1   7
BRANCH   4  23
ATOM     23  C   UNL     1      49.193   8.729  14.427  0.00  0.00    +0.000 C 
BRANCH  23  24
ATOM     24  N   UNL     1      49.286   7.898  15.601  0.00  0.00    +0.000 N 
ATOM     25  C   UNL     1      48.668   8.256  16.773  0.00  0.00    +0.000 C 
ATOM     26  O   UNL     1      47.974   9.267  16.858  0.00  0.00    +0.000 OA
ATOM     27  H   UNL     1      50.023   7.200  15.617  0.00  0.00    +0.000 HD
BRANCH  25  28
ATOM     28  C   UNL     1      48.823   7.340  17.910  0.00  0.00    +0.000 A 
ATOM     29  C   UNL     1      49.170   7.843  19.157  0.00  0.00    +0.000 A 
ATOM     30  S   UNL     1      49.257   6.655  20.377  0.00  0.00    +0.000 S 
ATOM     31  C   UNL     1      48.890   5.415  19.271  0.00  0.00    +0.000 A 
ATOM     32  N   UNL     1      48.833   4.117  19.673  0.00  0.00    +0.000 NA
ATOM     33  C   UNL     1      48.583   3.278  18.724  0.00  0.00    +0.000 A 
ATOM     34  N   UNL     1      48.375   3.621  17.414  0.00  0.00    +0.000 N 
ATOM     35  C   UNL     1      48.390   4.921  16.968  0.00  0.00    +0.000 A 
ATOM     36  O   UNL     1      48.153   5.195  15.797  0.00  0.00    +0.000 OA
ATOM     37  C   UNL     1      48.684   5.905  17.993  0.00  0.00    +0.000 A 
ATOM     38  H   UNL     1      48.174   2.915  16.721  0.00  0.00    +0.000 HD
ENDBRANCH  25  28
ENDBRANCH  23  24
ENDBRANCH   4  23
TORSDOF 7
ENDMDL
MODEL 2
REMARK VINA RESULT:    -7.507      3.509      9.318
REMARK INTER + INTRA:         -11.785
REMARK INTER:                 -10.595
REMARK INTRA:                  -1.190
REMARK UNBOUND:                -1.206
REMARK  Name = 
REMARK  7 active torsions:
REMARK  status: ('A' for Active; 'I' for Inactive)
REMARK    1  A    between atoms: C_2  and  C_4
REMARK    2  A    between atoms: C_8  and  C_9
REMARK    3  A    between atoms: N_11  and  C_12
REMARK    4  A    between atoms: C_12  and  C_13
REMARK    5  A    between atoms: C_16  and  C_17
REMARK    6  A    between atoms: C_17  and  N_18
REMARK    7  A    between atoms: C_19  and  C_21
REMARK                            x       y       z     vdW  Elec       q    Type
REMARK                         _______ _______ _______ _____ _____    ______ ____
ROOT
ATOM      1  C   UNL     1      48.928   7.835  16.120  0.00  0.00    +0.000 A 
ATOM      2  C   UNL     1      48.842   6.652  15.373  0.00  0.00    +0.000 A 
ATOM      3  C   UNL     1      48.279   6.654  14.092  0.00  0.00    +0.000 A 
ATOM      4  C   UNL     1      47.804   7.844  13.523  0.00  0.00    +0.000 A 
ATOM      5  C   UNL     1      47.884   9.025  14.272  0.00  0.00    +0.000 A 
ATOM      6  C   UNL     1      48.448   9.023  15.552  0.00  0.00    +0.000 A 
ENDROOT
BRANCH   1   7
ATOM      7  C   UNL     1      49.563   7.835  17.486  0.00  0.00    +0.000 C 
BRANCH   7  10
ATOM      8  C   UNL     1      51.601   6.462  17.529  0.00  0.00    +0.000 C 
ATOM      9  O   UNL     1      52.321   7.383  17.164  0.00  0.00    +0.000 OA
ATOM     10  N   UNL     1      50.246   6.588  17.740  0.00  0.00    +0.000 N 
ATOM     11  H   UNL     1      49.731   5.855  18.208  0.00  0.00    +0.000 HD
BRANCH   8  16
ATOM     12  C   UNL     1      52.053   2.692  17.733  0.00  0.00    +0.000 A 
ATOM     13  C   UNL     1      53.348   2.609  18.264  0.00  0.00    +0.000 A 
ATOM     14  C   UNL     1      54.058   3.775  18.555  0.00  0.00    +0.000 A 
ATOM     15  C   UNL     1      53.479   5.025  18.318  0.00  0.00    +0.000 A 
ATOM     16  C   UNL     1      52.183   5.115  17.796  0.00  0.00    +0.000 A 
ATOM     17  C   UNL     1      51.476   3.946  17.491  0.00  0.00    +0.000 A 
BRANCH  12  19
ATOM     18  N   UNL     1      51.494   0.347  18.092  0.00  0.00    +0.000 N 
ATOM     19  C   UNL     1      51.270   1.484  17.371  0.00  0.00    +0.000 C 
ATOM     20  O   UNL     1      50.424   1.513  16.486  0.00  0.00    +0.000 OA
ATOM     21  H   UNL     1      50.883  -0.436  17.895  0.00  0.00    +0.000 HD
ATOM     22  H   UNL     1      51.988   0.344  18.974  0.00  0.00    +0.000 HD
ENDBRANCH  12  19
ENDBRANCH   8  16
ENDBRANCH   7  10
ENDBRANCH   1   7
BRANCH   4  23
ATOM     23  C   UNL     1      47.191   7.853  12.146  0.00  0.00    +0.000 C 
BRANCH  23  24
ATOM     24  N   UNL     1      46.588   6.583  11.827  0.00  0.00    +0.000 N 
ATOM     25  C   UNL     1      45.226   6.453  11.717  0.00  0.00    +0.000 C 
ATOM     26  O   UNL     1      44.471   7.415  11.834  0.00  0.00    +0.000 OA
ATOM     27  H   UNL     1      47.161   5.754  11.952  0.00  0.00    +0.000 HD
BRANCH  25  28
ATOM     28  C   UNL     1      44.713   5.117  11.387  0.00  0.00    +0.000 A 
ATOM     29  C   UNL     1      43.941   4.428  12.314  0.00  0.00    +0.000 A 
ATOM     30  S   UNL     1      43.383   2.918  11.754  0.00  0.00    +0.000 S 
ATOM     31  C   UNL     1      44.199   3.103  10.273  0.00  0.00    +0.000 A 
ATOM     32  N   UNL     1      44.155   2.129   9.326  0.00  0.00    +0.000 NA
ATOM     33  C   UNL     1      44.849   2.383   8.268  0.00  0.00    +0.000 A 
ATOM     34  N   UNL     1      45.576   3.528   8.069  0.00  0.00    +0.000 N 
ATOM     35  C   UNL     1      45.623   4.554   8.982  0.00  0.00    +0.000 A 
ATOM     36  O   UNL     1      46.246   5.584   8.751  0.00  0.00    +0.000 OA
ATOM     37  C   UNL     1      44.872   4.311  10.199  0.00  0.00    +0.000 A 
ATOM     38  H   UNL     1      46.092   3.670   7.212  0.00  0.00    +0.000 HD
ENDBRANCH  25  28
ENDBRANCH  23  24
ENDBRANCH   4  23
TORSDOF 7
ENDMDL
MODEL 3
REMARK VINA RESULT:    -7.311      5.612     10.133
REMARK INTER + INTRA:         -11.509
REMARK INTER:                 -10.542
REMARK INTRA:                  -0.967
REMARK UNBOUND:                -1.206
REMARK  Name = 
REMARK  7 active torsions:
REMARK  status: ('A' for Active; 'I' for Inactive)
REMARK    1  A    between atoms: C_2  and  C_4
REMARK    2  A    between atoms: C_8  and  C_9
REMARK    3  A    between atoms: N_11  and  C_12
REMARK    4  A    between atoms: C_12  and  C_13
REMARK    5  A    between atoms: C_16  and  C_17
REMARK    6  A    between atoms: C_17  and  N_18
REMARK    7  A    between atoms: C_19  and  C_21
REMARK                            x       y       z     vdW  Elec       q    Type
REMARK                         _______ _______ _______ _____ _____    ______ ____
ROOT
ATOM      1  C   UNL     1      51.438   3.360  17.762  0.00  0.00    +0.000 A 
ATOM      2  C   UNL     1      50.683   4.525  17.957  0.00  0.00    +0.000 A 
ATOM      3  C   UNL     1      49.308   4.538  17.695  0.00  0.00    +0.000 A 
ATOM      4  C   UNL     1      48.656   3.381  17.246  0.00  0.00    +0.000 A 
ATOM      5  C   UNL     1      49.413   2.219  17.044  0.00  0.00    +0.000 A 
ATOM      6  C   UNL     1      50.786   2.206  17.308  0.00  0.00    +0.000 A 
ENDROOT
BRANCH   1   7
ATOM      7  C   UNL     1      52.912   3.341  18.075  0.00  0.00    +0.000 C 
BRANCH   7  10
ATOM      8  C   UNL     1      54.454   1.523  17.478  0.00  0.00    +0.000 C 
ATOM      9  O   UNL     1      55.086   2.215  16.688  0.00  0.00    +0.000 OA
ATOM     10  N   UNL     1      53.393   1.987  18.223  0.00  0.00    +0.000 N 
ATOM     11  H   UNL     1      53.022   1.435  18.984  0.00  0.00    +0.000 HD
BRANCH   8  16
ATOM     12  C   UNL     1      55.075  -2.185  16.907  0.00  0.00    +0.000 A 
ATOM     13  C   UNL     1      55.620  -2.555  18.144  0.00  0.00    +0.000 A 
ATOM     14  C   UNL     1      55.775  -1.601  19.151  0.00  0.00    +0.000 A 
ATOM     15  C   UNL     1      55.387  -0.278  18.928  0.00  0.00    +0.000 A 
ATOM     16  C   UNL     1      54.834   0.097  17.697  0.00  0.00    +0.000 A 
ATOM     17  C   UNL     1      54.692  -0.855  16.683  0.00  0.00    +0.000 A 
BRANCH  12  19
ATOM     18  N   UNL     1      54.077  -2.812  14.774  0.00  0.00    +0.000 N 
ATOM     19  C   UNL     1      54.924  -3.150  15.790  0.00  0.00    +0.000 C 
ATOM     20  O   UNL     1      55.564  -4.193  15.756  0.00  0.00    +0.000 OA
ATOM     21  H   UNL     1      54.062  -3.437  13.977  0.00  0.00    +0.000 HD
ATOM     22  H   UNL     1      53.728  -1.874  14.639  0.00  0.00    +0.000 HD
ENDBRANCH  12  19
ENDBRANCH   8  16
ENDBRANCH   7  10
ENDBRANCH   1   7
BRANCH   4  23
ATOM     23  C   UNL     1      47.177   3.390  16.955  0.00  0.00    +0.000 C 
BRANCH  23  24
ATOM     24  N   UNL     1      46.833   4.407  15.994  0.00  0.00    +0.000 N 
ATOM     25  C   UNL     1      46.942   4.174  14.646  0.00  0.00    +0.000 C 
ATOM     26  O   UNL     1      47.289   3.082  14.202  0.00  0.00    +0.000 OA
ATOM     27  H   UNL     1      46.769   5.362  16.334  0.00  0.00    +0.000 HD
BRANCH  25  28
ATOM     28  C   UNL     1      46.565   5.276  13.751  0.00  0.00    +0.000 A 
ATOM     29  C   UNL     1      47.449   6.327  13.543  0.00  0.00    +0.000 A 
ATOM     30  S   UNL     1      46.879   7.494  12.438  0.00  0.00    +0.000 S 
ATOM     31  C   UNL     1      45.405   6.666  12.241  0.00  0.00    +0.000 A 
ATOM     32  N   UNL     1      44.432   7.159  11.428  0.00  0.00    +0.000 NA
ATOM     33  C   UNL     1      43.353   6.451  11.401  0.00  0.00    +0.000 A 
ATOM     34  N   UNL     1      43.162   5.292  12.107  0.00  0.00    +0.000 N 
ATOM     35  C   UNL     1      44.128   4.739  12.914  0.00  0.00    +0.000 A 
ATOM     36  O   UNL     1      43.940   3.676  13.494  0.00  0.00    +0.000 OA
ATOM     37  C   UNL     1      45.357   5.505  12.993  0.00  0.00    +0.000 A 
ATOM     38  H   UNL     1      42.295   4.781  12.035  0.00  0.00    +0.000 HD
ENDBRANCH  25  28
ENDBRANCH  23  24
ENDBRANCH   4  23
TORSDOF 7
ENDMDL
MODEL 4
REMARK VINA RESULT:    -7.207      2.784      3.716
REMARK INTER + INTRA:         -11.363
REMARK INTER:                 -10.294
REMARK INTRA:                  -1.069
REMARK UNBOUND:                -1.206
REMARK  Name = 
REMARK  7 active torsions:
REMARK  status: ('A' for Active; 'I' for Inactive)
REMARK    1  A    between atoms: C_2  and  C_4
REMARK    2  A    between atoms: C_8  and  C_9
REMARK    3  A    between atoms: N_11  and  C_12
REMARK    4  A    between atoms: C_12  and  C_13
REMARK    5  A    between atoms: C_16  and  C_17
REMARK    6  A    between atoms: C_17  and  N_18
REMARK    7  A    between atoms: C_19  and  C_21
REMARK                            x       y       z     vdW  Elec       q    Type
REMARK                         _______ _______ _______ _____ _____    ______ ____
ROOT
ATOM      1  C   UNL     1      48.229   7.999  13.395  0.00  0.00    +0.000 A 
ATOM      2  C   UNL     1      47.989   9.103  14.226  0.00  0.00    +0.000 A 
ATOM      3  C   UNL     1      48.502   9.143  15.527  0.00  0.00    +0.000 A 
ATOM      4  C   UNL     1      49.281   8.087  16.020  0.00  0.00    +0.000 A 
ATOM      5  C   UNL     1      49.514   6.981  15.192  0.00  0.00    +0.000 A 
ATOM      6  C   UNL     1      49.003   6.941  13.890  0.00  0.00    +0.000 A 
ENDROOT
BRANCH   1   7
ATOM      7  C   UNL     1      47.701   7.973  11.984  0.00  0.00    +0.000 C 
BRANCH   7  10
ATOM      8  C   UNL     1      45.598   6.713  12.153  0.00  0.00    +0.000 C 
ATOM      9  O   UNL     1      44.998   7.638  12.690  0.00  0.00    +0.000 OA
ATOM     10  N   UNL     1      46.911   6.788  11.747  0.00  0.00    +0.000 N 
ATOM     11  H   UNL     1      47.305   6.069  11.154  0.00  0.00    +0.000 HD
BRANCH   8  16
ATOM     12  C   UNL     1      44.394   3.544  10.432  0.00  0.00    +0.000 A 
ATOM     13  C   UNL     1      43.611   2.974  11.445  0.00  0.00    +0.000 A 
ATOM     14  C   UNL     1      43.477   3.625  12.672  0.00  0.00    +0.000 A 
ATOM     15  C   UNL     1      44.122   4.844  12.892  0.00  0.00    +0.000 A 
ATOM     16  C   UNL     1      44.900   5.424  11.881  0.00  0.00    +0.000 A 
ATOM     17  C   UNL     1      45.045   4.764  10.656  0.00  0.00    +0.000 A 
BRANCH  12  19
ATOM     18  N   UNL     1      44.360   3.606   7.995  0.00  0.00    +0.000 N 
ATOM     19  C   UNL     1      44.601   2.875   9.123  0.00  0.00    +0.000 C 
ATOM     20  O   UNL     1      45.011   1.723   9.052  0.00  0.00    +0.000 OA
ATOM     21  H   UNL     1      44.601   3.165   7.117  0.00  0.00    +0.000 HD
ATOM     22  H   UNL     1      44.265   4.612   8.003  0.00  0.00    +0.000 HD
ENDBRANCH  12  19
ENDBRANCH   8  16
ENDBRANCH   7  10
ENDBRANCH   1   7
BRANCH   4  23
ATOM     23  C   UNL     1      49.831   8.120  17.423  0.00  0.00    +0.000 C 
BRANCH  23  24
ATOM     24  N   UNL     1      50.754   7.037  17.655  0.00  0.00    +0.000 N 
ATOM     25  C   UNL     1      50.424   5.989  18.477  0.00  0.00    +0.000 C 
ATOM     26  O   UNL     1      49.318   5.904  19.008  0.00  0.00    +0.000 OA
ATOM     27  H   UNL     1      51.728   7.199  17.418  0.00  0.00    +0.000 HD
BRANCH  25  28
ATOM     28  C   UNL     1      51.433   4.936  18.646  0.00  0.00    +0.000 A 
ATOM     29  C   UNL     1      52.591   5.201  19.366  0.00  0.00    +0.000 A 
ATOM     30  S   UNL     1      53.632   3.859  19.511  0.00  0.00    +0.000 S 
ATOM     31  C   UNL     1      52.600   2.888  18.568  0.00  0.00    +0.000 A 
ATOM     32  N   UNL     1      52.926   1.600  18.280  0.00  0.00    +0.000 NA
ATOM     33  C   UNL     1      52.073   0.992  17.525  0.00  0.00    +0.000 A 
ATOM     34  N   UNL     1      50.921   1.554  17.040  0.00  0.00    +0.000 N 
ATOM     35  C   UNL     1      50.534   2.840  17.332  0.00  0.00    +0.000 A 
ATOM     36  O   UNL     1      49.473   3.294  16.919  0.00  0.00    +0.000 OA
ATOM     37  C   UNL     1      51.467   3.574  18.165  0.00  0.00    +0.000 A 
ATOM     38  H   UNL     1      50.291   1.019  16.460  0.00  0.00    +0.000 HD
ENDBRANCH  25  28
ENDBRANCH  23  24
ENDBRANCH   4  23
TORSDOF 7
ENDMDL
MODEL 5
REMARK VINA RESULT:    -7.157      1.976      2.167
REMARK INTER + INTRA:         -11.292
REMARK INTER:                 -10.179
REMARK INTRA:                  -1.113
REMARK UNBOUND:                -1.206
REMARK  Name = 
REMARK  7 active torsions:
REMARK  status: ('A' for Active; 'I' for Inactive)
REMARK    1  A    between atoms: C_2  and  C_4
REMARK    2  A    between atoms: C_8  and  C_9
REMARK    3  A    between atoms: N_11  and  C_12
REMARK    4  A    between atoms: C_12  and  C_13
REMARK    5  A    between atoms: C_16  and  C_17
REMARK    6  A    between atoms: C_17  and  N_18
REMARK    7  A    between atoms: C_19  and  C_21
REMARK                            x       y       z     vdW  Elec       q    Type
REMARK                         _______ _______ _______ _____ _____    ______ ____
ROOT
ATOM      1  C   UNL     1      45.557   6.750  12.611  0.00  0.00    +0.000 A 
ATOM      2  C   UNL     1      46.507   5.843  13.101  0.00  0.00    +0.000 A 
ATOM      3  C   UNL     1      47.628   6.293  13.807  0.00  0.00    +0.000 A 
ATOM      4  C   UNL     1      47.815   7.660  14.053  0.00  0.00    +0.000 A 
ATOM      5  C   UNL     1      46.870   8.567  13.558  0.00  0.00    +0.000 A 
ATOM      6  C   UNL     1      45.748   8.117  12.853  0.00  0.00    +0.000 A 
ENDROOT
BRANCH   1   7
ATOM      7  C   UNL     1      44.335   6.260  11.879  0.00  0.00    +0.000 C 
BRANCH   7  10
ATOM      8  C   UNL     1      45.255   5.198   9.862  0.00  0.00    +0.000 C 
ATOM      9  O   UNL     1      45.628   6.261   9.379  0.00  0.00    +0.000 OA
ATOM     10  N   UNL     1      44.639   5.090  11.089  0.00  0.00    +0.000 N 
ATOM     11  H   UNL     1      44.512   4.184  11.520  0.00  0.00    +0.000 HD
BRANCH   8  16
ATOM     12  C   UNL     1      46.493   2.660   7.316  0.00  0.00    +0.000 A 
ATOM     13  C   UNL     1      45.927   1.481   7.821  0.00  0.00    +0.000 A 
ATOM     14  C   UNL     1      45.147   1.522   8.978  0.00  0.00    +0.000 A 
ATOM     15  C   UNL     1      44.928   2.736   9.632  0.00  0.00    +0.000 A 
ATOM     16  C   UNL     1      45.483   3.920   9.129  0.00  0.00    +0.000 A 
ATOM     17  C   UNL     1      46.277   3.877   7.977  0.00  0.00    +0.000 A 
BRANCH  12  19
ATOM     18  N   UNL     1      48.684   2.376   6.288  0.00  0.00    +0.000 N 
ATOM     19  C   UNL     1      47.361   2.666   6.113  0.00  0.00    +0.000 C 
ATOM     20  O   UNL     1      46.906   2.882   4.997  0.00  0.00    +0.000 OA
ATOM     21  H   UNL     1      49.239   2.289   5.446  0.00  0.00    +0.000 HD
ATOM     22  H   UNL     1      49.047   1.955   7.132  0.00  0.00    +0.000 HD
ENDBRANCH  12  19
ENDBRANCH   8  16
ENDBRANCH   7  10
ENDBRANCH   1   7
BRANCH   4  23
ATOM     23  C   UNL     1      49.024   8.152  14.807  0.00  0.00    +0.000 C 
BRANCH  23  24
ATOM     24  N   UNL     1      49.806   7.059  15.326  0.00  0.00    +0.000 N 
ATOM     25  C   UNL     1      50.414   7.142  16.553  0.00  0.00    +0.000 C 
ATOM     26  O   UNL     1      50.279   8.124  17.279  0.00  0.00    +0.000 OA
ATOM     27  H   UNL     1      50.112   6.352  14.663  0.00  0.00    +0.000 HD
BRANCH  25  28
ATOM     28  C   UNL     1      51.187   5.972  16.990  0.00  0.00    +0.000 A 
ATOM     29  C   UNL     1      52.534   6.113  17.300  0.00  0.00    +0.000 A 
ATOM     30  S   UNL     1      53.268   4.672  17.840  0.00  0.00    +0.000 S 
ATOM     31  C   UNL     1      51.827   3.793  17.625  0.00  0.00    +0.000 A 
ATOM     32  N   UNL     1      51.779   2.459  17.886  0.00  0.00    +0.000 NA
ATOM     33  C   UNL     1      50.636   1.911  17.643  0.00  0.00    +0.000 A 
ATOM     34  N   UNL     1      49.535   2.578  17.171  0.00  0.00    +0.000 N 
ATOM     35  C   UNL     1      49.527   3.930  16.925  0.00  0.00    +0.000 A 
ATOM     36  O   UNL     1      48.511   4.502  16.548  0.00  0.00    +0.000 OA
ATOM     37  C   UNL     1      50.795   4.593  17.166  0.00  0.00    +0.000 A 
ATOM     38  H   UNL     1      48.666   2.090  17.010  0.00  0.00    +0.000 HD
ENDBRANCH  25  28
ENDBRANCH  23  24
ENDBRANCH   4  23
TORSDOF 7
ENDMDL
MODEL 6
REMARK VINA RESULT:    -6.808      5.816     10.362
REMARK INTER + INTRA:         -10.800
REMARK INTER:                  -9.564
REMARK INTRA:                  -1.237
REMARK UNBOUND:                -1.206
REMARK  Name = 
REMARK  7 active torsions:
REMARK  status: ('A' for Active; 'I' for Inactive)
REMARK    1  A    between atoms: C_2  and  C_4
REMARK    2  A    between atoms: C_8  and  C_9
REMARK    3  A    between atoms: N_11  and  C_12
REMARK    4  A    between atoms: C_12  and  C_13
REMARK    5  A    between atoms: C_16  and  C_17
REMARK    6  A    between atoms: C_17  and  N_18
REMARK    7  A    between atoms: C_19  and  C_21
REMARK                            x       y       z     vdW  Elec       q    Type
REMARK                         _______ _______ _______ _____ _____    ______ ____
ROOT
ATOM      1  C   UNL     1      51.552   3.147  17.724  0.00  0.00    +0.000 A 
ATOM      2  C   UNL     1      50.934   4.379  17.975  0.00  0.00    +0.000 A 
ATOM      3  C   UNL     1      49.564   4.551  17.748  0.00  0.00    +0.000 A 
ATOM      4  C   UNL     1      48.779   3.488  17.279  0.00  0.00    +0.000 A 
ATOM      5  C   UNL     1      49.399   2.258  17.021  0.00  0.00    +0.000 A 
ATOM      6  C   UNL     1      50.769   2.086  17.250  0.00  0.00    +0.000 A 
ENDROOT
BRANCH   1   7
ATOM      7  C   UNL     1      53.021   2.956  18.000  0.00  0.00    +0.000 C 
BRANCH   7  10
ATOM      8  C   UNL     1      54.135   0.797  18.366  0.00  0.00    +0.000 C 
ATOM      9  O   UNL     1      54.342   1.018  19.554  0.00  0.00    +0.000 OA
ATOM     10  N   UNL     1      53.475   1.668  17.530  0.00  0.00    +0.000 N 
ATOM     11  H   UNL     1      53.174   1.368  16.613  0.00  0.00    +0.000 HD
BRANCH   8  16
ATOM     12  C   UNL     1      54.925  -2.888  17.859  0.00  0.00    +0.000 A 
ATOM     13  C   UNL     1      55.384  -2.880  16.535  0.00  0.00    +0.000 A 
ATOM     14  C   UNL     1      55.438  -1.681  15.822  0.00  0.00    +0.000 A 
ATOM     15  C   UNL     1      55.035  -0.488  16.428  0.00  0.00    +0.000 A 
ATOM     16  C   UNL     1      54.583  -0.487  17.754  0.00  0.00    +0.000 A 
ATOM     17  C   UNL     1      54.516  -1.691  18.463  0.00  0.00    +0.000 A 
BRANCH  12  19
ATOM     18  N   UNL     1      54.353  -4.039  19.930  0.00  0.00    +0.000 N 
ATOM     19  C   UNL     1      54.812  -4.140  18.648  0.00  0.00    +0.000 C 
ATOM     20  O   UNL     1      55.079  -5.230  18.158  0.00  0.00    +0.000 OA
ATOM     21  H   UNL     1      54.190  -4.911  20.417  0.00  0.00    +0.000 HD
ATOM     22  H   UNL     1      53.894  -3.212  20.285  0.00  0.00    +0.000 HD
ENDBRANCH  12  19
ENDBRANCH   8  16
ENDBRANCH   7  10
ENDBRANCH   1   7
BRANCH   4  23
ATOM     23  C   UNL     1      47.304   3.667  17.025  0.00  0.00    +0.000 C 
BRANCH  23  24
ATOM     24  N   UNL     1      47.060   4.640  15.991  0.00  0.00    +0.000 N 
ATOM     25  C   UNL     1      47.089   4.288  14.664  0.00  0.00    +0.000 C 
ATOM     26  O   UNL     1      47.274   3.127  14.306  0.00  0.00    +0.000 OA
ATOM     27  H   UNL     1      47.133   5.620  16.250  0.00  0.00    +0.000 HD
BRANCH  25  28
ATOM     28  C   UNL     1      46.825   5.355  13.690  0.00  0.00    +0.000 A 
ATOM     29  C   UNL     1      45.709   5.273  12.866  0.00  0.00    +0.000 A 
ATOM     30  S   UNL     1      45.521   6.615  11.832  0.00  0.00    +0.000 S 
ATOM     31  C   UNL     1      46.956   7.328  12.406  0.00  0.00    +0.000 A 
ATOM     32  N   UNL     1      47.397   8.511  11.900  0.00  0.00    +0.000 NA
ATOM     33  C   UNL     1      48.517   8.917  12.398  0.00  0.00    +0.000 A 
ATOM     34  N   UNL     1      49.230   8.251  13.361  0.00  0.00    +0.000 N 
ATOM     35  C   UNL     1      48.806   7.071  13.925  0.00  0.00    +0.000 A 
ATOM     36  O   UNL     1      49.446   6.527  14.818  0.00  0.00    +0.000 OA
ATOM     37  C   UNL     1      47.559   6.561  13.388  0.00  0.00    +0.000 A 
ATOM     38  H   UNL     1      50.096   8.629  13.716  0.00  0.00    +0.000 HD
ENDBRANCH  25  28
ENDBRANCH  23  24
ENDBRANCH   4  23
TORSDOF 7
ENDMDL
MODEL 7
REMARK VINA RESULT:    -6.611      4.512      9.339
REMARK INTER + INTRA:         -10.522
REMARK INTER:                  -9.512
REMARK INTRA:                  -1.010
REMARK UNBOUND:                -1.206
REMARK  Name = 
REMARK  7 active torsions:
REMARK  status: ('A' for Active; 'I' for Inactive)
REMARK    1  A    between atoms: C_2  and  C_4
REMARK    2  A    between atoms: C_8  and  C_9
REMARK    3  A    between atoms: N_11  and  C_12
REMARK    4  A    between atoms: C_12  and  C_13
REMARK    5  A    between atoms: C_16  and  C_17
REMARK    6  A    between atoms: C_17  and  N_18
REMARK    7  A    between atoms: C_19  and  C_21
REMARK                            x       y       z     vdW  Elec       q    Type
REMARK                         _______ _______ _______ _____ _____    ______ ____
ROOT
ATOM      1  C   UNL     1      51.393   4.439  17.653  0.00  0.00    +0.000 A 
ATOM      2  C   UNL     1      50.471   5.462  17.387  0.00  0.00    +0.000 A 
ATOM      3  C   UNL     1      49.144   5.162  17.064  0.00  0.00    +0.000 A 
ATOM      4  C   UNL     1      48.704   3.832  17.016  0.00  0.00    +0.000 A 
ATOM      5  C   UNL     1      49.626   2.809  17.275  0.00  0.00    +0.000 A 
ATOM      6  C   UNL     1      50.953   3.110  17.599  0.00  0.00    +0.000 A 
ENDROOT
BRANCH   1   7
ATOM      7  C   UNL     1      52.814   4.767  18.031  0.00  0.00    +0.000 C 
BRANCH   7  10
ATOM      8  C   UNL     1      53.656   6.885  17.113  0.00  0.00    +0.000 C 
ATOM      9  O   UNL     1      53.341   7.530  18.106  0.00  0.00    +0.000 OA
ATOM     10  N   UNL     1      53.466   5.527  16.991  0.00  0.00    +0.000 N 
ATOM     11  H   UNL     1      53.900   5.015  16.234  0.00  0.00    +0.000 HD
BRANCH   8  16
ATOM     12  C   UNL     1      55.012   7.598  13.633  0.00  0.00    +0.000 A 
ATOM     13  C   UNL     1      55.498   8.903  13.800  0.00  0.00    +0.000 A 
ATOM     14  C   UNL     1      55.386   9.534  15.040  0.00  0.00    +0.000 A 
ATOM     15  C   UNL     1      54.791   8.868  16.114  0.00  0.00    +0.000 A 
ATOM     16  C   UNL     1      54.310   7.562  15.956  0.00  0.00    +0.000 A 
ATOM     17  C   UNL     1      54.410   6.934  14.710  0.00  0.00    +0.000 A 
BRANCH  12  19
ATOM     18  N   UNL     1      55.023   5.531  12.341  0.00  0.00    +0.000 N 
ATOM     19  C   UNL     1      55.072   6.896  12.327  0.00  0.00    +0.000 C 
ATOM     20  O   UNL     1      55.122   7.513  11.271  0.00  0.00    +0.000 OA
ATOM     21  H   UNL     1      54.965   5.076  11.439  0.00  0.00    +0.000 HD
ATOM     22  H   UNL     1      54.735   5.001  13.152  0.00  0.00    +0.000 HD
ENDBRANCH  12  19
ENDBRANCH   8  16
ENDBRANCH   7  10
ENDBRANCH   1   7
BRANCH   4  23
ATOM     23  C   UNL     1      47.276   3.501  16.662  0.00  0.00    +0.000 C 
BRANCH  23  24
ATOM     24  N   UNL     1      46.732   4.445  15.720  0.00  0.00    +0.000 N 
ATOM     25  C   UNL     1      46.763   4.199  14.370  0.00  0.00    +0.000 C 
ATOM     26  O   UNL     1      47.208   3.148  13.913  0.00  0.00    +0.000 OA
ATOM     27  H   UNL     1      46.575   5.393  16.052  0.00  0.00    +0.000 HD
BRANCH  25  28
ATOM     28  C   UNL     1      46.180   5.225  13.496  0.00  0.00    +0.000 A 
ATOM     29  C   UNL     1      46.903   6.375  13.208  0.00  0.00    +0.000 A 
ATOM     30  S   UNL     1      46.106   7.437  12.138  0.00  0.00    +0.000 S 
ATOM     31  C   UNL     1      44.740   6.424  12.065  0.00  0.00    +0.000 A 
ATOM     32  N   UNL     1      43.653   6.772  11.325  0.00  0.00    +0.000 NA
ATOM     33  C   UNL     1      42.675   5.933  11.390  0.00  0.00    +0.000 A 
ATOM     34  N   UNL     1      42.689   4.773  12.121  0.00  0.00    +0.000 N 
ATOM     35  C   UNL     1      43.776   4.365  12.856  0.00  0.00    +0.000 A 
ATOM     36  O   UNL     1      43.771   3.298  13.460  0.00  0.00    +0.000 OA
ATOM     37  C   UNL     1      44.899   5.283  12.831  0.00  0.00    +0.000 A 
ATOM     38  H   UNL     1      41.892   4.154  12.122  0.00  0.00    +0.000 HD
ENDBRANCH  25  28
ENDBRANCH  23  24
ENDBRANCH   4  23
TORSDOF 7
ENDMDL
MODEL 8
REMARK VINA RESULT:    -6.384      4.307      8.682
REMARK INTER + INTRA:         -10.203
REMARK INTER:                  -8.753
REMARK INTRA:                  -1.450
REMARK UNBOUND:                -1.206
REMARK  Name = 
REMARK  7 active torsions:
REMARK  status: ('A' for Active; 'I' for Inactive)
REMARK    1  A    between atoms: C_2  and  C_4
REMARK    2  A    between atoms: C_8  and  C_9
REMARK    3  A    between atoms: N_11  and  C_12
REMARK    4  A    between atoms: C_12  and  C_13
REMARK    5  A    between atoms: C_16  and  C_17
REMARK    6  A    between atoms: C_17  and  N_18
REMARK    7  A    between atoms: C_19  and  C_21
REMARK                            x       y       z     vdW  Elec       q    Type
REMARK                         _______ _______ _______ _____ _____    ______ ____
ROOT
ATOM      1  C   UNL     1      50.942   8.851  15.980  0.00  0.00    +0.000 A 
ATOM      2  C   UNL     1      51.270   8.230  14.766  0.00  0.00    +0.000 A 
ATOM      3  C   UNL     1      50.469   8.409  13.633  0.00  0.00    +0.000 A 
ATOM      4  C   UNL     1      49.331   9.226  13.684  0.00  0.00    +0.000 A 
ATOM      5  C   UNL     1      48.999   9.840  14.899  0.00  0.00    +0.000 A 
ATOM      6  C   UNL     1      49.801   9.663  16.032  0.00  0.00    +0.000 A 
ENDROOT
BRANCH   1   7
ATOM      7  C   UNL     1      51.823   8.681  17.190  0.00  0.00    +0.000 C 
BRANCH   7  10
ATOM      8  C   UNL     1      51.601   6.368  17.990  0.00  0.00    +0.000 C 
ATOM      9  O   UNL     1      50.515   6.575  18.520  0.00  0.00    +0.000 OA
ATOM     10  N   UNL     1      52.306   7.324  17.294  0.00  0.00    +0.000 N 
ATOM     11  H   UNL     1      53.102   7.062  16.728  0.00  0.00    +0.000 HD
BRANCH   8  16
ATOM     12  C   UNL     1      52.098   2.604  17.782  0.00  0.00    +0.000 A 
ATOM     13  C   UNL     1      53.451   2.496  18.134  0.00  0.00    +0.000 A 
ATOM     14  C   UNL     1      54.185   3.643  18.441  0.00  0.00    +0.000 A 
ATOM     15  C   UNL     1      53.574   4.898  18.397  0.00  0.00    +0.000 A 
ATOM     16  C   UNL     1      52.221   5.013  18.053  0.00  0.00    +0.000 A 
ATOM     17  C   UNL     1      51.488   3.865  17.733  0.00  0.00    +0.000 A 
BRANCH  12  19
ATOM     18  N   UNL     1      51.507   0.260  18.092  0.00  0.00    +0.000 N 
ATOM     19  C   UNL     1      51.283   1.421  17.410  0.00  0.00    +0.000 C 
ATOM     20  O   UNL     1      50.412   1.490  16.552  0.00  0.00    +0.000 OA
ATOM     21  H   UNL     1      50.876  -0.506  17.892  0.00  0.00    +0.000 HD
ATOM     22  H   UNL     1      52.027   0.224  18.958  0.00  0.00    +0.000 HD
ENDBRANCH  12  19
ENDBRANCH   8  16
ENDBRANCH   7  10
ENDBRANCH   1   7
BRANCH   4  23
ATOM     23  C   UNL     1      48.460   9.418  12.469  0.00  0.00    +0.000 C 
BRANCH  23  24
ATOM     24  N   UNL     1      47.649   8.254  12.210  0.00  0.00    +0.000 N 
ATOM     25  C   UNL     1      46.309   8.244  12.507  0.00  0.00    +0.000 C 
ATOM     26  O   UNL     1      45.737   9.234  12.957  0.00  0.00    +0.000 OA
ATOM     27  H   UNL     1      48.135   7.375  12.059  0.00  0.00    +0.000 HD
BRANCH  25  28
ATOM     28  C   UNL     1      45.573   7.010  12.203  0.00  0.00    +0.000 A 
ATOM     29  C   UNL     1      44.409   7.072  11.448  0.00  0.00    +0.000 A 
ATOM     30  S   UNL     1      43.708   5.548  11.142  0.00  0.00    +0.000 S 
ATOM     31  C   UNL     1      44.904   4.754  12.056  0.00  0.00    +0.000 A 
ATOM     32  N   UNL     1      44.872   3.405  12.223  0.00  0.00    +0.000 NA
ATOM     33  C   UNL     1      45.816   2.939  12.969  0.00  0.00    +0.000 A 
ATOM     34  N   UNL     1      46.793   3.700  13.557  0.00  0.00    +0.000 N 
ATOM     35  C   UNL     1      46.885   5.061  13.389  0.00  0.00    +0.000 A 
ATOM     36  O   UNL     1      47.800   5.703  13.891  0.00  0.00    +0.000 OA
ATOM     37  C   UNL     1      45.836   5.638  12.570  0.00  0.00    +0.000 A 
ATOM     38  H   UNL     1      47.510   3.271  14.123  0.00  0.00    +0.000 HD
ENDBRANCH  25  28
ENDBRANCH  23  24
ENDBRANCH   4  23
TORSDOF 7
ENDMDL
MODEL 9
REMARK VINA RESULT:    -6.375      2.936      3.388
REMARK INTER + INTRA:         -10.190
REMARK INTER:                  -9.263
REMARK INTRA:                  -0.927
REMARK UNBOUND:                -1.206
REMARK  Name = 
REMARK  7 active torsions:
REMARK  status: ('A' for Active; 'I' for Inactive)
REMARK    1  A    between atoms: C_2  and  C_4
REMARK    2  A    between atoms: C_8  and  C_9
REMARK    3  A    between atoms: N_11  and  C_12
REMARK    4  A    between atoms: C_12  and  C_13
REMARK    5  A    between atoms: C_16  and  C_17
REMARK    6  A    between atoms: C_17  and  N_18
REMARK    7  A    between atoms: C_19  and  C_21
REMARK                            x       y       z     vdW  Elec       q    Type
REMARK                         _______ _______ _______ _____ _____    ______ ____
ROOT
ATOM      1  C   UNL     1      46.216   6.586  13.082  0.00  0.00    +0.000 A 
ATOM      2  C   UNL     1      46.695   5.488  13.812  0.00  0.00    +0.000 A 
ATOM      3  C   UNL     1      47.753   5.638  14.716  0.00  0.00    +0.000 A 
ATOM      4  C   UNL     1      48.344   6.892  14.922  0.00  0.00    +0.000 A 
ATOM      5  C   UNL     1      47.870   7.987  14.187  0.00  0.00    +0.000 A 
ATOM      6  C   UNL     1      46.811   7.838  13.285  0.00  0.00    +0.000 A 
ENDROOT
BRANCH   1   7
ATOM      7  C   UNL     1      45.057   6.427  12.133  0.00  0.00    +0.000 C 
BRANCH   7  10
ATOM      8  C   UNL     1      45.506   5.351   9.970  0.00  0.00    +0.000 C 
ATOM      9  O   UNL     1      45.694   6.415   9.393  0.00  0.00    +0.000 OA
ATOM     10  N   UNL     1      45.216   5.250  11.312  0.00  0.00    +0.000 N 
ATOM     11  H   UNL     1      45.245   4.352  11.776  0.00  0.00    +0.000 HD
BRANCH   8  16
ATOM     12  C   UNL     1      46.463   2.742   7.375  0.00  0.00    +0.000 A 
ATOM     13  C   UNL     1      45.823   1.607   7.891  0.00  0.00    +0.000 A 
ATOM     14  C   UNL     1      45.084   1.701   9.072  0.00  0.00    +0.000 A 
ATOM     15  C   UNL     1      44.980   2.924   9.738  0.00  0.00    +0.000 A 
ATOM     16  C   UNL     1      45.611   4.064   9.223  0.00  0.00    +0.000 A 
ATOM     17  C   UNL     1      46.364   3.968   8.048  0.00  0.00    +0.000 A 
BRANCH  12  19
ATOM     18  N   UNL     1      48.629   2.449   6.296  0.00  0.00    +0.000 N 
ATOM     19  C   UNL     1      47.293   2.689   6.145  0.00  0.00    +0.000 C 
ATOM     20  O   UNL     1      46.797   2.815   5.033  0.00  0.00    +0.000 OA
ATOM     21  H   UNL     1      49.159   2.319   5.443  0.00  0.00    +0.000 HD
ATOM     22  H   UNL     1      49.031   2.098   7.154  0.00  0.00    +0.000 HD
ENDBRANCH  12  19
ENDBRANCH   8  16
ENDBRANCH   7  10
ENDBRANCH   1   7
BRANCH   4  23
ATOM     23  C   UNL     1      49.488   7.060  15.889  0.00  0.00    +0.000 C 
BRANCH  23  24
ATOM     24  N   UNL     1      50.133   5.802  16.168  0.00  0.00    +0.000 N 
ATOM     25  C   UNL     1      50.187   5.301  17.445  0.00  0.00    +0.000 C 
ATOM     26  O   UNL     1      49.649   5.873  18.390  0.00  0.00    +0.000 OA
ATOM     27  H   UNL     1      50.766   5.439  15.461  0.00  0.00    +0.000 HD
BRANCH  25  28
ATOM     28  C   UNL     1      50.866   4.011  17.622  0.00  0.00    +0.000 A 
ATOM     29  C   UNL     1      50.256   2.845  17.176  0.00  0.00    +0.000 A 
ATOM     30  S   UNL     1      51.199   1.444  17.411  0.00  0.00    +0.000 S 
ATOM     31  C   UNL     1      52.435   2.337  18.169  0.00  0.00    +0.000 A 
ATOM     32  N   UNL     1      53.547   1.719  18.647  0.00  0.00    +0.000 NA
ATOM     33  C   UNL     1      54.384   2.509  19.232  0.00  0.00    +0.000 A 
ATOM     34  N   UNL     1      54.212   3.862  19.373  0.00  0.00    +0.000 N 
ATOM     35  C   UNL     1      53.120   4.533  18.877  0.00  0.00    +0.000 A 
ATOM     36  O   UNL     1      53.022   5.751  18.980  0.00  0.00    +0.000 OA
ATOM     37  C   UNL     1      52.139   3.688  18.224  0.00  0.00    +0.000 A 
ATOM     38  H   UNL     1      54.910   4.426  19.834  0.00  0.00    +0.000 HD
ENDBRANCH  25  28
ENDBRANCH  23  24
ENDBRANCH   4  23
TORSDOF 7
ENDMDL
