MODEL 1
REMARK VINA RESULT:    -8.317      0.000      0.000
REMARK INTER + INTRA:         -12.616
REMARK INTER:                 -11.478
REMARK INTRA:                  -1.138
REMARK UNBOUND:                -1.138
REMARK  Name = 
REMARK  7 active torsions:
REMARK  status: ('A' for Active; 'I' for Inactive)
REMARK    1  A    between atoms: C_2  and  C_19
REMARK    2  A    between atoms: N_3  and  C_4
REMARK    3  A    between atoms: C_4  and  C_5
REMARK    4  A    between atoms: C_8  and  C_9
REMARK    5  A    between atoms: C_9  and  N_10
REMARK    6  A    between atoms: N_10  and  C_11
REMARK    7  A    between atoms: C_14  and  O_15
REMARK                            x       y       z     vdW  Elec       q    Type
REMARK                         _______ _______ _______ _____ _____    ______ ____
ROOT
ATOM      1  C   UNL     1      46.385   7.599  12.943  0.00  0.00    +0.000 C 
ENDROOT
BRANCH   1   2
ATOM      2  C   UNL     1      45.810   6.449  12.160  0.00  0.00    +0.000 A 
ATOM      3  C   UNL     1      46.137   6.279  10.809  0.00  0.00    +0.000 A 
ATOM      4  C   UNL     1      45.639   5.191  10.090  0.00  0.00    +0.000 A 
ATOM      5  C   UNL     1      44.799   4.250  10.705  0.00  0.00    +0.000 A 
ATOM      6  C   UNL     1      44.444   4.441  12.046  0.00  0.00    +0.000 A 
ATOM      7  C   UNL     1      44.939   5.533  12.765  0.00  0.00    +0.000 A 
BRANCH   5   8
ATOM      8  C   UNL     1      44.248   3.080   9.923  0.00  0.00    +0.000 C 
BRANCH   8   9
ATOM      9  N   UNL     1      45.317   2.184   9.475  0.00  0.00    +0.000 NA
ATOM     10  H   UNL     1      45.198   1.290   9.955  0.00  0.00    +0.000 HD
BRANCH   9  11
ATOM     11  C   UNL     1      45.318   1.964   8.026  0.00  0.00    +0.000 C 
ATOM     12  C   UNL     1      45.350   3.281   7.220  0.00  0.00    +0.000 C 
ATOM     13  C   UNL     1      46.623   3.248   6.383  0.00  0.00    +0.000 C 
ATOM     14  C   UNL     1      47.546   2.335   7.174  0.00  0.00    +0.000 C 
ATOM     15  C   UNL     1      46.602   1.225   7.612  0.00  0.00    +0.000 C 
BRANCH  14  16
ATOM     16  O   UNL     1      48.614   1.850   6.383  0.00  0.00    +0.000 OA
ATOM     17  H   UNL     1      48.525   0.886   6.305  0.00  0.00    +0.000 HD
ENDBRANCH  14  16
ENDBRANCH   9  11
ENDBRANCH   8   9
ENDBRANCH   5   8
ENDBRANCH   1   2
BRANCH   1  20
ATOM     18  O   UNL     1      49.001   6.620  13.193  0.00  0.00    +0.000 OA
ATOM     19  C   UNL     1      48.305   6.706  14.200  0.00  0.00    +0.000 C 
ATOM     20  N   UNL     1      47.013   7.161  14.163  0.00  0.00    +0.000 N 
ATOM     21  H   UNL     1      46.533   7.382  15.029  0.00  0.00    +0.000 HD
BRANCH  19  22
ATOM     22  C   UNL     1      48.803   6.257  15.507  0.00  0.00    +0.000 A 
ATOM     23  C   UNL     1      49.832   6.959  16.122  0.00  0.00    +0.000 A 
ATOM     24  S   UNL     1      50.306   6.304  17.622  0.00  0.00    +0.000 S 
ATOM     25  C   UNL     1      49.121   5.088  17.527  0.00  0.00    +0.000 A 
ATOM     26  N   UNL     1      48.958   4.190  18.535  0.00  0.00    +0.000 NA
ATOM     27  C   UNL     1      47.994   3.350  18.353  0.00  0.00    +0.000 A 
ATOM     28  N   UNL     1      47.187   3.317  17.245  0.00  0.00    +0.000 N 
ATOM     29  C   UNL     1      47.372   4.148  16.167  0.00  0.00    +0.000 A 
ATOM     30  O   UNL     1      46.730   3.994  15.131  0.00  0.00    +0.000 OA
ATOM     31  C   UNL     1      48.399   5.155  16.348  0.00  0.00    +0.000 A 
ATOM     32  H   UNL     1      46.475   2.609  17.148  0.00  0.00    +0.000 HD
ENDBRANCH  19  22
ENDBRANCH   1  20
TORSDOF 7
ENDMDL
MODEL 2
REMARK VINA RESULT:    -7.713      2.198      2.611
REMARK INTER + INTRA:         -11.781
REMARK INTER:                 -10.703
REMARK INTRA:                  -1.078
REMARK UNBOUND:                -1.138
REMARK  Name = 
REMARK  7 active torsions:
REMARK  status: ('A' for Active; 'I' for Inactive)
REMARK    1  A    between atoms: C_2  and  C_19
REMARK    2  A    between atoms: N_3  and  C_4
REMARK    3  A    between atoms: C_4  and  C_5
REMARK    4  A    between atoms: C_8  and  C_9
REMARK    5  A    between atoms: C_9  and  N_10
REMARK    6  A    between atoms: N_10  and  C_11
REMARK    7  A    between atoms: C_14  and  O_15
REMARK                            x       y       z     vdW  Elec       q    Type
REMARK                         _______ _______ _______ _____ _____    ______ ____
ROOT
ATOM      1  C   UNL     1      47.885   7.232  13.645  0.00  0.00    +0.000 C 
ENDROOT
BRANCH   1   2
ATOM      2  C   UNL     1      46.972   6.327  12.861  0.00  0.00    +0.000 A 
ATOM      3  C   UNL     1      46.590   6.666  11.556  0.00  0.00    +0.000 A 
ATOM      4  C   UNL     1      45.777   5.811  10.811  0.00  0.00    +0.000 A 
ATOM      5  C   UNL     1      45.324   4.599  11.354  0.00  0.00    +0.000 A 
ATOM      6  C   UNL     1      45.677   4.279  12.671  0.00  0.00    +0.000 A 
ATOM      7  C   UNL     1      46.487   5.137  13.419  0.00  0.00    +0.000 A 
BRANCH   5   8
ATOM      8  C   UNL     1      44.431   3.680  10.552  0.00  0.00    +0.000 C 
BRANCH   8   9
ATOM      9  N   UNL     1      45.172   2.521  10.047  0.00  0.00    +0.000 NA
ATOM     10  H   UNL     1      44.847   1.695  10.553  0.00  0.00    +0.000 HD
BRANCH   9  11
ATOM     11  C   UNL     1      45.001   2.308   8.606  0.00  0.00    +0.000 C 
ATOM     12  C   UNL     1      45.263   3.586   7.777  0.00  0.00    +0.000 C 
ATOM     13  C   UNL     1      46.421   3.264   6.839  0.00  0.00    +0.000 C 
ATOM     14  C   UNL     1      47.175   2.164   7.567  0.00  0.00    +0.000 C 
ATOM     15  C   UNL     1      46.044   1.298   8.101  0.00  0.00    +0.000 C 
BRANCH  14  16
ATOM     16  O   UNL     1      48.035   1.450   6.700  0.00  0.00    +0.000 OA
ATOM     17  H   UNL     1      48.799   2.014   6.493  0.00  0.00    +0.000 HD
ENDBRANCH  14  16
ENDBRANCH   9  11
ENDBRANCH   8   9
ENDBRANCH   5   8
ENDBRANCH   1   2
BRANCH   1  20
ATOM     18  O   UNL     1      50.134   6.631  15.208  0.00  0.00    +0.000 OA
ATOM     19  C   UNL     1      49.030   6.645  15.745  0.00  0.00    +0.000 C 
ATOM     20  N   UNL     1      47.880   6.915  15.050  0.00  0.00    +0.000 N 
ATOM     21  H   UNL     1      47.017   7.089  15.555  0.00  0.00    +0.000 HD
BRANCH  19  22
ATOM     22  C   UNL     1      48.872   6.302  17.164  0.00  0.00    +0.000 A 
ATOM     23  C   UNL     1      49.203   5.025  17.598  0.00  0.00    +0.000 A 
ATOM     24  S   UNL     1      48.949   4.780  19.265  0.00  0.00    +0.000 S 
ATOM     25  C   UNL     1      48.433   6.388  19.477  0.00  0.00    +0.000 A 
ATOM     26  N   UNL     1      48.096   6.857  20.707  0.00  0.00    +0.000 NA
ATOM     27  C   UNL     1      47.765   8.104  20.732  0.00  0.00    +0.000 A 
ATOM     28  N   UNL     1      47.727   8.923  19.633  0.00  0.00    +0.000 N 
ATOM     29  C   UNL     1      47.975   8.470  18.360  0.00  0.00    +0.000 A 
ATOM     30  O   UNL     1      47.786   9.189  17.383  0.00  0.00    +0.000 OA
ATOM     31  C   UNL     1      48.416   7.091  18.285  0.00  0.00    +0.000 A 
ATOM     32  H   UNL     1      47.421   9.881  19.715  0.00  0.00    +0.000 HD
ENDBRANCH  19  22
ENDBRANCH   1  20
TORSDOF 7
ENDMDL
MODEL 3
REMARK VINA RESULT:    -7.628      1.680      1.934
REMARK INTER + INTRA:         -11.665
REMARK INTER:                 -10.716
REMARK INTRA:                  -0.949
REMARK UNBOUND:                -1.138
REMARK  Name = 
REMARK  7 active torsions:
REMARK  status: ('A' for Active; 'I' for Inactive)
REMARK    1  A    between atoms: C_2  and  C_19
REMARK    2  A    between atoms: N_3  and  C_4
REMARK    3  A    between atoms: C_4  and  C_5
REMARK    4  A    between atoms: C_8  and  C_9
REMARK    5  A    between atoms: C_9  and  N_10
REMARK    6  A    between atoms: N_10  and  C_11
REMARK    7  A    between atoms: C_14  and  O_15
REMARK                            x       y       z     vdW  Elec       q    Type
REMARK                         _______ _______ _______ _____ _____    ______ ____
ROOT
ATOM      1  C   UNL     1      48.209   6.891  13.495  0.00  0.00    +0.000 C 
ENDROOT
BRANCH   1   2
ATOM      2  C   UNL     1      47.146   6.075  12.810  0.00  0.00    +0.000 A 
ATOM      3  C   UNL     1      46.615   6.493  11.583  0.00  0.00    +0.000 A 
ATOM      4  C   UNL     1      45.658   5.719  10.925  0.00  0.00    +0.000 A 
ATOM      5  C   UNL     1      45.206   4.512  11.480  0.00  0.00    +0.000 A 
ATOM      6  C   UNL     1      45.711   4.115  12.725  0.00  0.00    +0.000 A 
ATOM      7  C   UNL     1      46.666   4.892  13.386  0.00  0.00    +0.000 A 
BRANCH   5   8
ATOM      8  C   UNL     1      44.159   3.681  10.774  0.00  0.00    +0.000 C 
BRANCH   8   9
ATOM      9  N   UNL     1      44.712   2.407  10.306  0.00  0.00    +0.000 NA
ATOM     10  H   UNL     1      44.226   1.655  10.797  0.00  0.00    +0.000 HD
BRANCH   9  11
ATOM     11  C   UNL     1      44.576   2.215   8.859  0.00  0.00    +0.000 C 
ATOM     12  C   UNL     1      44.773   3.523   8.060  0.00  0.00    +0.000 C 
ATOM     13  C   UNL     1      45.962   3.291   7.135  0.00  0.00    +0.000 C 
ATOM     14  C   UNL     1      46.770   2.223   7.854  0.00  0.00    +0.000 C 
ATOM     15  C   UNL     1      45.686   1.280   8.351  0.00  0.00    +0.000 C 
BRANCH  14  16
ATOM     16  O   UNL     1      47.685   1.580   6.986  0.00  0.00    +0.000 OA
ATOM     17  H   UNL     1      47.331   1.623   6.082  0.00  0.00    +0.000 HD
ENDBRANCH  14  16
ENDBRANCH   9  11
ENDBRANCH   8   9
ENDBRANCH   5   8
ENDBRANCH   1   2
BRANCH   1  20
ATOM     18  O   UNL     1      50.275   7.057  15.385  0.00  0.00    +0.000 OA
ATOM     19  C   UNL     1      49.115   6.989  15.784  0.00  0.00    +0.000 C 
ATOM     20  N   UNL     1      48.050   6.892  14.927  0.00  0.00    +0.000 N 
ATOM     21  H   UNL     1      47.107   7.014  15.282  0.00  0.00    +0.000 HD
BRANCH  19  22
ATOM     22  C   UNL     1      48.808   6.940  17.218  0.00  0.00    +0.000 A 
ATOM     23  C   UNL     1      48.347   8.084  17.857  0.00  0.00    +0.000 A 
ATOM     24  S   UNL     1      48.051   7.868  19.521  0.00  0.00    +0.000 S 
ATOM     25  C   UNL     1      48.482   6.225  19.439  0.00  0.00    +0.000 A 
ATOM     26  N   UNL     1      48.410   5.427  20.538  0.00  0.00    +0.000 NA
ATOM     27  C   UNL     1      48.723   4.193  20.325  0.00  0.00    +0.000 A 
ATOM     28  N   UNL     1      49.117   3.686  19.114  0.00  0.00    +0.000 N 
ATOM     29  C   UNL     1      49.287   4.472  18.000  0.00  0.00    +0.000 A 
ATOM     30  O   UNL     1      49.785   4.016  16.973  0.00  0.00    +0.000 OA
ATOM     31  C   UNL     1      48.885   5.854  18.168  0.00  0.00    +0.000 A 
ATOM     32  H   UNL     1      49.386   2.718  19.025  0.00  0.00    +0.000 HD
ENDBRANCH  19  22
ENDBRANCH   1  20
TORSDOF 7
ENDMDL
MODEL 4
REMARK VINA RESULT:    -7.482      1.998      3.538
REMARK INTER + INTRA:         -11.463
REMARK INTER:                 -10.466
REMARK INTRA:                  -0.997
REMARK UNBOUND:                -1.138
REMARK  Name = 
REMARK  7 active torsions:
REMARK  status: ('A' for Active; 'I' for Inactive)
REMARK    1  A    between atoms: C_2  and  C_19
REMARK    2  A    between atoms: N_3  and  C_4
REMARK    3  A    between atoms: C_4  and  C_5
REMARK    4  A    between atoms: C_8  and  C_9
REMARK    5  A    between atoms: C_9  and  N_10
REMARK    6  A    between atoms: N_10  and  C_11
REMARK    7  A    between atoms: C_14  and  O_15
REMARK                            x       y       z     vdW  Elec       q    Type
REMARK                         _______ _______ _______ _____ _____    ______ ____
ROOT
ATOM      1  C   UNL     1      46.424   4.481  14.274  0.00  0.00    +0.000 C 
ENDROOT
BRANCH   1   2
ATOM      2  C   UNL     1      45.833   4.464  12.890  0.00  0.00    +0.000 A 
ATOM      3  C   UNL     1      46.007   5.559  12.033  0.00  0.00    +0.000 A 
ATOM      4  C   UNL     1      45.495   5.531  10.735  0.00  0.00    +0.000 A 
ATOM      5  C   UNL     1      44.796   4.410  10.264  0.00  0.00    +0.000 A 
ATOM      6  C   UNL     1      44.591   3.331  11.133  0.00  0.00    +0.000 A 
ATOM      7  C   UNL     1      45.100   3.360  12.436  0.00  0.00    +0.000 A 
BRANCH   5   8
ATOM      8  C   UNL     1      44.230   4.385   8.863  0.00  0.00    +0.000 C 
BRANCH   8   9
ATOM      9  N   UNL     1      44.622   3.168   8.147  0.00  0.00    +0.000 NA
ATOM     10  H   UNL     1      44.375   3.289   7.163  0.00  0.00    +0.000 HD
BRANCH   9  11
ATOM     11  C   UNL     1      46.053   2.869   8.258  0.00  0.00    +0.000 C 
ATOM     12  C   UNL     1      46.370   1.372   8.046  0.00  0.00    +0.000 C 
ATOM     13  C   UNL     1      47.300   1.292   6.841  0.00  0.00    +0.000 C 
ATOM     14  C   UNL     1      46.963   2.542   6.046  0.00  0.00    +0.000 C 
ATOM     15  C   UNL     1      46.824   3.591   7.139  0.00  0.00    +0.000 C 
BRANCH  14  16
ATOM     16  O   UNL     1      47.980   2.867   5.117  0.00  0.00    +0.000 OA
ATOM     17  H   UNL     1      48.839   2.799   5.566  0.00  0.00    +0.000 HD
ENDBRANCH  14  16
ENDBRANCH   9  11
ENDBRANCH   8   9
ENDBRANCH   5   8
ENDBRANCH   1   2
BRANCH   1  20
ATOM     18  O   UNL     1      48.470   4.753  16.173  0.00  0.00    +0.000 OA
ATOM     19  C   UNL     1      48.202   5.711  15.454  0.00  0.00    +0.000 C 
ATOM     20  N   UNL     1      47.208   5.666  14.511  0.00  0.00    +0.000 N 
ATOM     21  H   UNL     1      47.134   6.408  13.823  0.00  0.00    +0.000 HD
BRANCH  19  22
ATOM     22  C   UNL     1      48.894   6.996  15.612  0.00  0.00    +0.000 A 
ATOM     23  C   UNL     1      48.976   7.577  16.872  0.00  0.00    +0.000 A 
ATOM     24  S   UNL     1      49.796   9.070  16.886  0.00  0.00    +0.000 S 
ATOM     25  C   UNL     1      50.114   8.972  15.218  0.00  0.00    +0.000 A 
ATOM     26  N   UNL     1      50.833   9.938  14.586  0.00  0.00    +0.000 NA
ATOM     27  C   UNL     1      51.039   9.717  13.331  0.00  0.00    +0.000 A 
ATOM     28  N   UNL     1      50.576   8.624  12.645  0.00  0.00    +0.000 N 
ATOM     29  C   UNL     1      49.774   7.669  13.224  0.00  0.00    +0.000 A 
ATOM     30  O   UNL     1      49.254   6.785  12.548  0.00  0.00    +0.000 OA
ATOM     31  C   UNL     1      49.568   7.836  14.649  0.00  0.00    +0.000 A 
ATOM     32  H   UNL     1      50.740   8.530  11.654  0.00  0.00    +0.000 HD
ENDBRANCH  19  22
ENDBRANCH   1  20
TORSDOF 7
ENDMDL
MODEL 5
REMARK VINA RESULT:    -7.196      4.256      8.920
REMARK INTER + INTRA:         -11.068
REMARK INTER:                 -10.086
REMARK INTRA:                  -0.982
REMARK UNBOUND:                -1.138
REMARK  Name = 
REMARK  7 active torsions:
REMARK  status: ('A' for Active; 'I' for Inactive)
REMARK    1  A    between atoms: C_2  and  C_19
REMARK    2  A    between atoms: N_3  and  C_4
REMARK    3  A    between atoms: C_4  and  C_5
REMARK    4  A    between atoms: C_8  and  C_9
REMARK    5  A    between atoms: C_9  and  N_10
REMARK    6  A    between atoms: N_10  and  C_11
REMARK    7  A    between atoms: C_14  and  O_15
REMARK                            x       y       z     vdW  Elec       q    Type
REMARK                         _______ _______ _______ _____ _____    ______ ____
ROOT
ATOM      1  C   UNL     1      47.185   3.300  16.883  0.00  0.00    +0.000 C 
ENDROOT
BRANCH   1   2
ATOM      2  C   UNL     1      48.659   3.353  17.183  0.00  0.00    +0.000 A 
ATOM      3  C   UNL     1      49.248   4.543  17.630  0.00  0.00    +0.000 A 
ATOM      4  C   UNL     1      50.606   4.587  17.947  0.00  0.00    +0.000 A 
ATOM      5  C   UNL     1      51.408   3.442  17.822  0.00  0.00    +0.000 A 
ATOM      6  C   UNL     1      50.826   2.263  17.341  0.00  0.00    +0.000 A 
ATOM      7  C   UNL     1      49.466   2.220  17.019  0.00  0.00    +0.000 A 
BRANCH   5   8
ATOM      8  C   UNL     1      52.882   3.493  18.153  0.00  0.00    +0.000 C 
BRANCH   8   9
ATOM      9  N   UNL     1      53.289   2.342  18.964  0.00  0.00    +0.000 NA
ATOM     10  H   UNL     1      52.531   1.658  18.941  0.00  0.00    +0.000 HD
BRANCH   9  11
ATOM     11  C   UNL     1      54.529   1.715  18.496  0.00  0.00    +0.000 C 
ATOM     12  C   UNL     1      54.840   0.388  19.223  0.00  0.00    +0.000 C 
ATOM     13  C   UNL     1      54.873  -0.696  18.153  0.00  0.00    +0.000 C 
ATOM     14  C   UNL     1      53.978  -0.142  17.056  0.00  0.00    +0.000 C 
ATOM     15  C   UNL     1      54.388   1.322  17.016  0.00  0.00    +0.000 C 
BRANCH  14  16
ATOM     16  O   UNL     1      54.193  -0.794  15.819  0.00  0.00    +0.000 OA
ATOM     17  H   UNL     1      54.962  -1.381  15.912  0.00  0.00    +0.000 HD
ENDBRANCH  14  16
ENDBRANCH   9  11
ENDBRANCH   8   9
ENDBRANCH   5   8
ENDBRANCH   1   2
BRANCH   1  20
ATOM     18  O   UNL     1      47.296   3.050  14.092  0.00  0.00    +0.000 OA
ATOM     19  C   UNL     1      46.867   4.095  14.574  0.00  0.00    +0.000 C 
ATOM     20  N   UNL     1      46.793   4.303  15.926  0.00  0.00    +0.000 N 
ATOM     21  H   UNL     1      46.275   5.099  16.284  0.00  0.00    +0.000 HD
BRANCH  19  22
ATOM     22  C   UNL     1      46.469   5.218  13.716  0.00  0.00    +0.000 A 
ATOM     23  C   UNL     1      47.351   6.273  13.520  0.00  0.00    +0.000 A 
ATOM     24  S   UNL     1      46.736   7.503  12.514  0.00  0.00    +0.000 S 
ATOM     25  C   UNL     1      45.286   6.648  12.265  0.00  0.00    +0.000 A 
ATOM     26  N   UNL     1      44.316   7.140  11.449  0.00  0.00    +0.000 NA
ATOM     27  C   UNL     1      43.289   6.370  11.315  0.00  0.00    +0.000 A 
ATOM     28  N   UNL     1      43.136   5.158  11.936  0.00  0.00    +0.000 N 
ATOM     29  C   UNL     1      44.050   4.664  12.836  0.00  0.00    +0.000 A 
ATOM     30  O   UNL     1      43.813   3.650  13.488  0.00  0.00    +0.000 OA
ATOM     31  C   UNL     1      45.254   5.459  12.972  0.00  0.00    +0.000 A 
ATOM     32  H   UNL     1      42.289   4.622  11.819  0.00  0.00    +0.000 HD
ENDBRANCH  19  22
ENDBRANCH   1  20
TORSDOF 7
ENDMDL
MODEL 6
REMARK VINA RESULT:    -7.075      3.428      8.063
REMARK INTER + INTRA:         -10.901
REMARK INTER:                  -9.729
REMARK INTRA:                  -1.172
REMARK UNBOUND:                -1.138
REMARK  Name = 
REMARK  7 active torsions:
REMARK  status: ('A' for Active; 'I' for Inactive)
REMARK    1  A    between atoms: C_2  and  C_19
REMARK    2  A    between atoms: N_3  and  C_4
REMARK    3  A    between atoms: C_4  and  C_5
REMARK    4  A    between atoms: C_8  and  C_9
REMARK    5  A    between atoms: C_9  and  N_10
REMARK    6  A    between atoms: N_10  and  C_11
REMARK    7  A    between atoms: C_14  and  O_15
REMARK                            x       y       z     vdW  Elec       q    Type
REMARK                         _______ _______ _______ _____ _____    ______ ____
ROOT
ATOM      1  C   UNL     1      48.176   8.016  12.115  0.00  0.00    +0.000 C 
ENDROOT
BRANCH   1   2
ATOM      2  C   UNL     1      48.828   7.603  13.407  0.00  0.00    +0.000 A 
ATOM      3  C   UNL     1      48.175   6.720  14.278  0.00  0.00    +0.000 A 
ATOM      4  C   UNL     1      48.793   6.303  15.458  0.00  0.00    +0.000 A 
ATOM      5  C   UNL     1      50.075   6.760  15.796  0.00  0.00    +0.000 A 
ATOM      6  C   UNL     1      50.711   7.671  14.943  0.00  0.00    +0.000 A 
ATOM      7  C   UNL     1      50.091   8.093  13.763  0.00  0.00    +0.000 A 
BRANCH   5   8
ATOM      8  C   UNL     1      50.738   6.319  17.081  0.00  0.00    +0.000 C 
BRANCH   8   9
ATOM      9  N   UNL     1      50.688   4.863  17.237  0.00  0.00    +0.000 NA
ATOM     10  H   UNL     1      51.646   4.525  17.342  0.00  0.00    +0.000 HD
BRANCH   9  11
ATOM     11  C   UNL     1      49.889   4.432  18.388  0.00  0.00    +0.000 C 
ATOM     12  C   UNL     1      48.965   5.547  18.927  0.00  0.00    +0.000 C 
ATOM     13  C   UNL     1      47.538   5.026  18.802  0.00  0.00    +0.000 C 
ATOM     14  C   UNL     1      47.623   4.022  17.665  0.00  0.00    +0.000 C 
ATOM     15  C   UNL     1      48.931   3.306  17.966  0.00  0.00    +0.000 C 
BRANCH  14  16
ATOM     16  O   UNL     1      46.517   3.138  17.657  0.00  0.00    +0.000 OA
ATOM     17  H   UNL     1      46.715   2.394  18.249  0.00  0.00    +0.000 HD
ENDBRANCH  14  16
ENDBRANCH   9  11
ENDBRANCH   8   9
ENDBRANCH   5   8
ENDBRANCH   1   2
BRANCH   1  20
ATOM     18  O   UNL     1      45.398   7.845  11.771  0.00  0.00    +0.000 OA
ATOM     19  C   UNL     1      46.101   6.927  11.357  0.00  0.00    +0.000 C 
ATOM     20  N   UNL     1      47.464   6.926  11.497  0.00  0.00    +0.000 N 
ATOM     21  H   UNL     1      48.020   6.244  10.993  0.00  0.00    +0.000 HD
BRANCH  19  22
ATOM     22  C   UNL     1      45.506   5.734  10.742  0.00  0.00    +0.000 A 
ATOM     23  C   UNL     1      45.705   5.493   9.388  0.00  0.00    +0.000 A 
ATOM     24  S   UNL     1      44.938   4.080   8.824  0.00  0.00    +0.000 S 
ATOM     25  C   UNL     1      44.353   3.712  10.379  0.00  0.00    +0.000 A 
ATOM     26  N   UNL     1      43.633   2.581  10.605  0.00  0.00    +0.000 NA
ATOM     27  C   UNL     1      43.290   2.403  11.836  0.00  0.00    +0.000 A 
ATOM     28  N   UNL     1      43.588   3.262  12.862  0.00  0.00    +0.000 N 
ATOM     29  C   UNL     1      44.237   4.458  12.664  0.00  0.00    +0.000 A 
ATOM     30  O   UNL     1      44.355   5.273  13.575  0.00  0.00    +0.000 OA
ATOM     31  C   UNL     1      44.703   4.675  11.309  0.00  0.00    +0.000 A 
ATOM     32  H   UNL     1      43.256   3.083  13.797  0.00  0.00    +0.000 HD
ENDBRANCH  19  22
ENDBRANCH   1  20
TORSDOF 7
ENDMDL
MODEL 7
REMARK VINA RESULT:    -7.021      3.030      3.895
REMARK INTER + INTRA:         -10.827
REMARK INTER:                  -9.797
REMARK INTRA:                  -1.030
REMARK UNBOUND:                -1.138
REMARK  Name = 
REMARK  7 active torsions:
REMARK  status: ('A' for Active; 'I' for Inactive)
REMARK    1  A    between atoms: C_2  and  C_19
REMARK    2  A    between atoms: N_3  and  C_4
REMARK    3  A    between atoms: C_4  and  C_5
REMARK    4  A    between atoms: C_8  and  C_9
REMARK    5  A    between atoms: C_9  and  N_10
REMARK    6  A    between atoms: N_10  and  C_11
REMARK    7  A    between atoms: C_14  and  O_15
REMARK                            x       y       z     vdW  Elec       q    Type
REMARK                         _______ _______ _______ _____ _____    ______ ____
ROOT
ATOM      1  C   UNL     1      46.339   7.202  13.252  0.00  0.00    +0.000 C 
ENDROOT
BRANCH   1   2
ATOM      2  C   UNL     1      45.865   6.043  12.415  0.00  0.00    +0.000 A 
ATOM      3  C   UNL     1      45.677   6.198  11.036  0.00  0.00    +0.000 A 
ATOM      4  C   UNL     1      45.277   5.116  10.250  0.00  0.00    +0.000 A 
ATOM      5  C   UNL     1      45.053   3.856  10.825  0.00  0.00    +0.000 A 
ATOM      6  C   UNL     1      45.206   3.712  12.210  0.00  0.00    +0.000 A 
ATOM      7  C   UNL     1      45.603   4.797  12.998  0.00  0.00    +0.000 A 
BRANCH   5   8
ATOM      8  C   UNL     1      44.606   2.688   9.976  0.00  0.00    +0.000 C 
BRANCH   8   9
ATOM      9  N   UNL     1      45.747   2.008   9.357  0.00  0.00    +0.000 NA
ATOM     10  H   UNL     1      45.842   1.091   9.797  0.00  0.00    +0.000 HD
BRANCH   9  11
ATOM     11  C   UNL     1      45.604   1.843   7.907  0.00  0.00    +0.000 C 
ATOM     12  C   UNL     1      45.566   3.190   7.152  0.00  0.00    +0.000 C 
ATOM     13  C   UNL     1      46.751   3.183   6.194  0.00  0.00    +0.000 C 
ATOM     14  C   UNL     1      47.741   2.238   6.856  0.00  0.00    +0.000 C 
ATOM     15  C   UNL     1      46.836   1.116   7.342  0.00  0.00    +0.000 C 
BRANCH  14  16
ATOM     16  O   UNL     1      48.723   1.780   5.946  0.00  0.00    +0.000 OA
ATOM     17  H   UNL     1      48.285   1.235   5.271  0.00  0.00    +0.000 HD
ENDBRANCH  14  16
ENDBRANCH   9  11
ENDBRANCH   8   9
ENDBRANCH   5   8
ENDBRANCH   1   2
BRANCH   1  20
ATOM     18  O   UNL     1      47.406   9.706  12.577  0.00  0.00    +0.000 OA
ATOM     19  C   UNL     1      48.172   8.755  12.711  0.00  0.00    +0.000 C 
ATOM     20  N   UNL     1      47.731   7.497  13.026  0.00  0.00    +0.000 N 
ATOM     21  H   UNL     1      48.399   6.784  13.298  0.00  0.00    +0.000 HD
BRANCH  19  22
ATOM     22  C   UNL     1      49.613   8.903  12.471  0.00  0.00    +0.000 A 
ATOM     23  C   UNL     1      50.051   9.582  11.341  0.00  0.00    +0.000 A 
ATOM     24  S   UNL     1      51.747   9.653  11.199  0.00  0.00    +0.000 S 
ATOM     25  C   UNL     1      51.959   8.821  12.668  0.00  0.00    +0.000 A 
ATOM     26  N   UNL     1      53.203   8.579  13.161  0.00  0.00    +0.000 NA
ATOM     27  C   UNL     1      53.217   7.978  14.304  0.00  0.00    +0.000 A 
ATOM     28  N   UNL     1      52.100   7.583  14.992  0.00  0.00    +0.000 N 
ATOM     29  C   UNL     1      50.829   7.728  14.490  0.00  0.00    +0.000 A 
ATOM     30  O   UNL     1      49.862   7.229  15.060  0.00  0.00    +0.000 OA
ATOM     31  C   UNL     1      50.752   8.457  13.239  0.00  0.00    +0.000 A 
ATOM     32  H   UNL     1      52.182   7.082  15.864  0.00  0.00    +0.000 HD
ENDBRANCH  19  22
ENDBRANCH   1  20
TORSDOF 7
ENDMDL
MODEL 8
REMARK VINA RESULT:    -7.020      2.809      8.495
REMARK INTER + INTRA:         -10.825
REMARK INTER:                  -9.366
REMARK INTRA:                  -1.459
REMARK UNBOUND:                -1.138
REMARK  Name = 
REMARK  7 active torsions:
REMARK  status: ('A' for Active; 'I' for Inactive)
REMARK    1  A    between atoms: C_2  and  C_19
REMARK    2  A    between atoms: N_3  and  C_4
REMARK    3  A    between atoms: C_4  and  C_5
REMARK    4  A    between atoms: C_8  and  C_9
REMARK    5  A    between atoms: C_9  and  N_10
REMARK    6  A    between atoms: N_10  and  C_11
REMARK    7  A    between atoms: C_14  and  O_15
REMARK                            x       y       z     vdW  Elec       q    Type
REMARK                         _______ _______ _______ _____ _____    ______ ____
ROOT
ATOM      1  C   UNL     1      47.295   7.852  12.047  0.00  0.00    +0.000 C 
ENDROOT
BRANCH   1   2
ATOM      2  C   UNL     1      47.885   7.826  13.431  0.00  0.00    +0.000 A 
ATOM      3  C   UNL     1      47.908   8.989  14.212  0.00  0.00    +0.000 A 
ATOM      4  C   UNL     1      48.418   8.960  15.512  0.00  0.00    +0.000 A 
ATOM      5  C   UNL     1      48.919   7.769  16.058  0.00  0.00    +0.000 A 
ATOM      6  C   UNL     1      48.928   6.616  15.264  0.00  0.00    +0.000 A 
ATOM      7  C   UNL     1      48.423   6.646  13.961  0.00  0.00    +0.000 A 
BRANCH   5   8
ATOM      8  C   UNL     1      49.483   7.741  17.460  0.00  0.00    +0.000 C 
BRANCH   8   9
ATOM      9  N   UNL     1      49.977   6.407  17.813  0.00  0.00    +0.000 NA
ATOM     10  H   UNL     1      50.939   6.505  18.142  0.00  0.00    +0.000 HD
BRANCH   9  11
ATOM     11  C   UNL     1      49.172   5.747  18.845  0.00  0.00    +0.000 C 
ATOM     12  C   UNL     1      47.856   6.498  19.149  0.00  0.00    +0.000 C 
ATOM     13  C   UNL     1      46.722   5.531  18.830  0.00  0.00    +0.000 C 
ATOM     14  C   UNL     1      47.327   4.601  17.792  0.00  0.00    +0.000 C 
ATOM     15  C   UNL     1      48.723   4.363  18.349  0.00  0.00    +0.000 C 
BRANCH  14  16
ATOM     16  O   UNL     1      46.588   3.401  17.664  0.00  0.00    +0.000 OA
ATOM     17  H   UNL     1      46.877   2.787  18.360  0.00  0.00    +0.000 HD
ENDBRANCH  14  16
ENDBRANCH   9  11
ENDBRANCH   8   9
ENDBRANCH   5   8
ENDBRANCH   1   2
BRANCH   1  20
ATOM     18  O   UNL     1      44.530   7.385  12.047  0.00  0.00    +0.000 OA
ATOM     19  C   UNL     1      45.282   6.469  11.727  0.00  0.00    +0.000 C 
ATOM     20  N   UNL     1      46.645   6.610  11.714  0.00  0.00    +0.000 N 
ATOM     21  H   UNL     1      47.220   5.896  11.280  0.00  0.00    +0.000 HD
BRANCH  19  22
ATOM     22  C   UNL     1      44.760   5.136  11.402  0.00  0.00    +0.000 A 
ATOM     23  C   UNL     1      43.977   4.464  12.333  0.00  0.00    +0.000 A 
ATOM     24  S   UNL     1      43.462   2.926  11.812  0.00  0.00    +0.000 S 
ATOM     25  C   UNL     1      44.226   3.121  10.304  0.00  0.00    +0.000 A 
ATOM     26  N   UNL     1      44.138   2.160   9.347  0.00  0.00    +0.000 NA
ATOM     27  C   UNL     1      44.726   2.456   8.237  0.00  0.00    +0.000 A 
ATOM     28  N   UNL     1      45.409   3.621   8.001  0.00  0.00    +0.000 N 
ATOM     29  C   UNL     1      45.596   4.579   8.968  0.00  0.00    +0.000 A 
ATOM     30  O   UNL     1      46.338   5.539   8.773  0.00  0.00    +0.000 OA
ATOM     31  C   UNL     1      44.900   4.327  10.214  0.00  0.00    +0.000 A 
ATOM     32  H   UNL     1      45.880   3.773   7.123  0.00  0.00    +0.000 HD
ENDBRANCH  19  22
ENDBRANCH   1  20
TORSDOF 7
ENDMDL
MODEL 9
REMARK VINA RESULT:    -6.942      3.372      5.053
REMARK INTER + INTRA:         -10.718
REMARK INTER:                  -9.841
REMARK INTRA:                  -0.877
REMARK UNBOUND:                -1.138
REMARK  Name = 
REMARK  7 active torsions:
REMARK  status: ('A' for Active; 'I' for Inactive)
REMARK    1  A    between atoms: C_2  and  C_19
REMARK    2  A    between atoms: N_3  and  C_4
REMARK    3  A    between atoms: C_4  and  C_5
REMARK    4  A    between atoms: C_8  and  C_9
REMARK    5  A    between atoms: C_9  and  N_10
REMARK    6  A    between atoms: N_10  and  C_11
REMARK    7  A    between atoms: C_14  and  O_15
REMARK                            x       y       z     vdW  Elec       q    Type
REMARK                         _______ _______ _______ _____ _____    ______ ____
ROOT
ATOM      1  C   UNL     1      49.266   6.303  17.566  0.00  0.00    +0.000 C 
ENDROOT
BRANCH   1   2
ATOM      2  C   UNL     1      48.514   5.895  16.327  0.00  0.00    +0.000 A 
ATOM      3  C   UNL     1      47.735   4.731  16.323  0.00  0.00    +0.000 A 
ATOM      4  C   UNL     1      47.004   4.371  15.189  0.00  0.00    +0.000 A 
ATOM      5  C   UNL     1      47.039   5.164  14.033  0.00  0.00    +0.000 A 
ATOM      6  C   UNL     1      47.847   6.308  14.026  0.00  0.00    +0.000 A 
ATOM      7  C   UNL     1      48.582   6.667  15.159  0.00  0.00    +0.000 A 
BRANCH   5   8
ATOM      8  C   UNL     1      46.259   4.767  12.801  0.00  0.00    +0.000 C 
BRANCH   8   9
ATOM      9  N   UNL     1      45.655   3.440  12.954  0.00  0.00    +0.000 NA
ATOM     10  H   UNL     1      45.691   3.191  13.944  0.00  0.00    +0.000 HD
BRANCH   9  11
ATOM     11  C   UNL     1      44.268   3.379  12.484  0.00  0.00    +0.000 C 
ATOM     12  C   UNL     1      43.499   4.699  12.714  0.00  0.00    +0.000 C 
ATOM     13  C   UNL     1      43.062   5.191  11.339  0.00  0.00    +0.000 C 
ATOM     14  C   UNL     1      44.087   4.581  10.399  0.00  0.00    +0.000 C 
ATOM     15  C   UNL     1      44.241   3.175  10.960  0.00  0.00    +0.000 C 
BRANCH  14  16
ATOM     16  O   UNL     1      43.637   4.577   9.057  0.00  0.00    +0.000 OA
ATOM     17  H   UNL     1      42.688   4.786   9.052  0.00  0.00    +0.000 HD
ENDBRANCH  14  16
ENDBRANCH   9  11
ENDBRANCH   8   9
ENDBRANCH   5   8
ENDBRANCH   1   2
BRANCH   1  20
ATOM     18  O   UNL     1      51.860   6.183  16.505  0.00  0.00    +0.000 OA
ATOM     19  C   UNL     1      51.534   5.364  17.360  0.00  0.00    +0.000 C 
ATOM     20  N   UNL     1      50.283   5.345  17.919  0.00  0.00    +0.000 N 
ATOM     21  H   UNL     1      50.107   4.774  18.739  0.00  0.00    +0.000 HD
BRANCH  19  22
ATOM     22  C   UNL     1      52.457   4.305  17.787  0.00  0.00    +0.000 A 
ATOM     23  C   UNL     1      53.700   4.651  18.303  0.00  0.00    +0.000 A 
ATOM     24  S   UNL     1      54.658   3.310  18.737  0.00  0.00    +0.000 S 
ATOM     25  C   UNL     1      53.428   2.220  18.297  0.00  0.00    +0.000 A 
ATOM     26  N   UNL     1      53.591   0.880  18.459  0.00  0.00    +0.000 NA
ATOM     27  C   UNL     1      52.564   0.173  18.126  0.00  0.00    +0.000 A 
ATOM     28  N   UNL     1      51.392   0.683  17.631  0.00  0.00    +0.000 N 
ATOM     29  C   UNL     1      51.216   2.021  17.370  0.00  0.00    +0.000 A 
ATOM     30  O   UNL     1      50.214   2.426  16.787  0.00  0.00    +0.000 OA
ATOM     31  C   UNL     1      52.316   2.868  17.787  0.00  0.00    +0.000 A 
ATOM     32  H   UNL     1      50.640   0.071  17.353  0.00  0.00    +0.000 HD
ENDBRANCH  19  22
ENDBRANCH   1  20
TORSDOF 7
ENDMDL
