MODEL 1
REMARK VINA RESULT:    -7.174      0.000      0.000
REMARK INTER + INTRA:          -9.510
REMARK INTER:                  -9.062
REMARK INTRA:                  -0.448
REMARK UNBOUND:                -0.448
REMARK  Name = 
REMARK  5 active torsions:
REMARK  status: ('A' for Active; 'I' for Inactive)
REMARK    1  A    between atoms: N_1  and  C_2
REMARK    2  A    between atoms: C_2  and  C_3
REMARK    3  A    between atoms: C_6  and  O_7
REMARK    4  A    between atoms: O_7  and  C_8
REMARK    5  A    between atoms: C_8  and  C_9
REMARK                            x       y       z     vdW  Elec       q    Type
REMARK                         _______ _______ _______ _____ _____    ______ ____
ROOT
ATOM      1  C   UNL     1      46.549   2.277   7.603  0.00  0.00    +0.000 A 
ATOM      2  C   UNL     1      45.741   1.486   8.431  0.00  0.00    +0.000 A 
ATOM      3  C   UNL     1      44.749   2.070   9.225  0.00  0.00    +0.000 A 
ATOM      4  C   UNL     1      44.562   3.451   9.211  0.00  0.00    +0.000 A 
ATOM      5  C   UNL     1      45.327   4.240   8.352  0.00  0.00    +0.000 A 
ATOM      6  C   UNL     1      46.323   3.658   7.563  0.00  0.00    +0.000 A 
ENDROOT
BRANCH   1   7
ATOM      7  C   UNL     1      47.663   1.664   6.794  0.00  0.00    +0.000 C 
BRANCH   7   8
ATOM      8  N   UNL     1      48.631   2.663   6.361  0.00  0.00    +0.000 NA
ATOM      9  H   UNL     1      48.932   2.447   5.413  0.00  0.00    +0.000 HD
ATOM     10  H   UNL     1      49.459   2.595   6.950  0.00  0.00    +0.000 HD
ENDBRANCH   7   8
ENDBRANCH   1   7
BRANCH   4  11
ATOM     11  O   UNL     1      43.612   3.931  10.074  0.00  0.00    +0.000 OA
BRANCH  11  12
ATOM     12  C   UNL     1      43.573   3.286  11.347  0.00  0.00    +0.000 C 
BRANCH  12  13
ATOM     13  C   UNL     1      44.614   3.883  12.233  0.00  0.00    +0.000 A 
ATOM     14  C   UNL     1      45.628   3.128  12.788  0.00  0.00    +0.000 A 
ATOM     15  N   UNL     1      46.598   3.635  13.573  0.00  0.00    +0.000 NA
ATOM     16  C   UNL     1      46.525   4.955  13.803  0.00  0.00    +0.000 A 
ATOM     17  N   UNL     1      45.592   5.791  13.322  0.00  0.00    +0.000 NA
ATOM     18  C   UNL     1      44.646   5.227  12.545  0.00  0.00    +0.000 A 
ENDBRANCH  12  13
ENDBRANCH  11  12
ENDBRANCH   4  11
TORSDOF 5
ENDMDL
MODEL 2
REMARK VINA RESULT:    -6.395      1.640      5.791
REMARK INTER + INTRA:          -8.525
REMARK INTER:                  -8.148
REMARK INTRA:                  -0.377
REMARK UNBOUND:                -0.448
REMARK  Name = 
REMARK  5 active torsions:
REMARK  status: ('A' for Active; 'I' for Inactive)
REMARK    1  A    between atoms: N_1  and  C_2
REMARK    2  A    between atoms: C_2  and  C_3
REMARK    3  A    between atoms: C_6  and  O_7
REMARK    4  A    between atoms: O_7  and  C_8
REMARK    5  A    between atoms: C_8  and  C_9
REMARK                            x       y       z     vdW  Elec       q    Type
REMARK                         _______ _______ _______ _____ _____    ______ ____
ROOT
ATOM      1  C   UNL     1      46.621   5.940  12.763  0.00  0.00    +0.000 A 
ATOM      2  C   UNL     1      46.392   6.412  11.463  0.00  0.00    +0.000 A 
ATOM      3  C   UNL     1      45.603   5.681  10.569  0.00  0.00    +0.000 A 
ATOM      4  C   UNL     1      45.044   4.465  10.959  0.00  0.00    +0.000 A 
ATOM      5  C   UNL     1      45.225   4.013  12.266  0.00  0.00    +0.000 A 
ATOM      6  C   UNL     1      46.019   4.740  13.158  0.00  0.00    +0.000 A 
ENDROOT
BRANCH   1   7
ATOM      7  C   UNL     1      47.523   6.687  13.711  0.00  0.00    +0.000 C 
BRANCH   7   8
ATOM      8  N   UNL     1      47.924   5.861  14.841  0.00  0.00    +0.000 NA
ATOM      9  H   UNL     1      48.470   5.072  14.500  0.00  0.00    +0.000 HD
ATOM     10  H   UNL     1      47.090   5.470  15.275  0.00  0.00    +0.000 HD
ENDBRANCH   7   8
ENDBRANCH   1   7
BRANCH   4  11
ATOM     11  O   UNL     1      44.345   3.794   9.990  0.00  0.00    +0.000 OA
BRANCH  11  12
ATOM     12  C   UNL     1      44.702   4.129   8.649  0.00  0.00    +0.000 C 
BRANCH  12  13
ATOM     13  C   UNL     1      45.661   3.111   8.128  0.00  0.00    +0.000 A 
ATOM     14  C   UNL     1      45.633   1.794   8.541  0.00  0.00    +0.000 A 
ATOM     15  N   UNL     1      46.466   0.843   8.077  0.00  0.00    +0.000 NA
ATOM     16  C   UNL     1      47.360   1.254   7.165  0.00  0.00    +0.000 A 
ATOM     17  N   UNL     1      47.486   2.501   6.686  0.00  0.00    +0.000 NA
ATOM     18  C   UNL     1      46.627   3.410   7.188  0.00  0.00    +0.000 A 
ENDBRANCH  12  13
ENDBRANCH  11  12
ENDBRANCH   4  11
TORSDOF 5
ENDMDL
MODEL 3
REMARK VINA RESULT:    -6.058      1.472      5.704
REMARK INTER + INTRA:          -8.100
REMARK INTER:                  -7.752
REMARK INTRA:                  -0.348
REMARK UNBOUND:                -0.448
REMARK  Name = 
REMARK  5 active torsions:
REMARK  status: ('A' for Active; 'I' for Inactive)
REMARK    1  A    between atoms: N_1  and  C_2
REMARK    2  A    between atoms: C_2  and  C_3
REMARK    3  A    between atoms: C_6  and  O_7
REMARK    4  A    between atoms: O_7  and  C_8
REMARK    5  A    between atoms: C_8  and  C_9
REMARK                            x       y       z     vdW  Elec       q    Type
REMARK                         _______ _______ _______ _____ _____    ______ ____
ROOT
ATOM      1  C   UNL     1      46.526   4.741  13.532  0.00  0.00    +0.000 A 
ATOM      2  C   UNL     1      45.986   3.491  13.196  0.00  0.00    +0.000 A 
ATOM      3  C   UNL     1      45.224   3.335  12.034  0.00  0.00    +0.000 A 
ATOM      4  C   UNL     1      44.980   4.427  11.202  0.00  0.00    +0.000 A 
ATOM      5  C   UNL     1      45.555   5.661  11.502  0.00  0.00    +0.000 A 
ATOM      6  C   UNL     1      46.313   5.820  12.666  0.00  0.00    +0.000 A 
ENDROOT
BRANCH   1   7
ATOM      7  C   UNL     1      47.294   4.934  14.814  0.00  0.00    +0.000 C 
BRANCH   7   8
ATOM      8  N   UNL     1      47.442   3.685  15.549  0.00  0.00    +0.000 NA
ATOM      9  H   UNL     1      46.598   3.516  16.092  0.00  0.00    +0.000 HD
ATOM     10  H   UNL     1      48.202   3.788  16.221  0.00  0.00    +0.000 HD
ENDBRANCH   7   8
ENDBRANCH   1   7
BRANCH   4  11
ATOM     11  O   UNL     1      44.166   4.184  10.127  0.00  0.00    +0.000 OA
BRANCH  11  12
ATOM     12  C   UNL     1      44.228   2.854   9.612  0.00  0.00    +0.000 C 
BRANCH  12  13
ATOM     13  C   UNL     1      45.297   2.778   8.573  0.00  0.00    +0.000 A 
ATOM     14  C   UNL     1      45.615   3.851   7.766  0.00  0.00    +0.000 A 
ATOM     15  N   UNL     1      46.588   3.828   6.834  0.00  0.00    +0.000 NA
ATOM     16  C   UNL     1      47.251   2.667   6.721  0.00  0.00    +0.000 A 
ATOM     17  N   UNL     1      47.035   1.558   7.445  0.00  0.00    +0.000 NA
ATOM     18  C   UNL     1      46.048   1.640   8.360  0.00  0.00    +0.000 A 
ENDBRANCH  12  13
ENDBRANCH  11  12
ENDBRANCH   4  11
TORSDOF 5
ENDMDL
MODEL 4
REMARK VINA RESULT:    -5.990      1.830      2.598
REMARK INTER + INTRA:          -8.014
REMARK INTER:                  -7.949
REMARK INTRA:                  -0.065
REMARK UNBOUND:                -0.448
REMARK  Name = 
REMARK  5 active torsions:
REMARK  status: ('A' for Active; 'I' for Inactive)
REMARK    1  A    between atoms: N_1  and  C_2
REMARK    2  A    between atoms: C_2  and  C_3
REMARK    3  A    between atoms: C_6  and  O_7
REMARK    4  A    between atoms: O_7  and  C_8
REMARK    5  A    between atoms: C_8  and  C_9
REMARK                            x       y       z     vdW  Elec       q    Type
REMARK                         _______ _______ _______ _____ _____    ______ ____
ROOT
ATOM      1  C   UNL     1      46.809   2.682   6.668  0.00  0.00    +0.000 A 
ATOM      2  C   UNL     1      46.006   3.731   7.136  0.00  0.00    +0.000 A 
ATOM      3  C   UNL     1      45.175   3.551   8.247  0.00  0.00    +0.000 A 
ATOM      4  C   UNL     1      45.127   2.317   8.894  0.00  0.00    +0.000 A 
ATOM      5  C   UNL     1      45.960   1.284   8.466  0.00  0.00    +0.000 A 
ATOM      6  C   UNL     1      46.787   1.461   7.353  0.00  0.00    +0.000 A 
ENDROOT
BRANCH   1   7
ATOM      7  C   UNL     1      47.658   2.846   5.434  0.00  0.00    +0.000 C 
BRANCH   7   8
ATOM      8  N   UNL     1      48.539   1.705   5.227  0.00  0.00    +0.000 NA
ATOM      9  H   UNL     1      49.487   2.041   5.068  0.00  0.00    +0.000 HD
ATOM     10  H   UNL     1      48.257   1.223   4.374  0.00  0.00    +0.000 HD
ENDBRANCH   7   8
ENDBRANCH   1   7
BRANCH   4  11
ATOM     11  O   UNL     1      44.232   2.223   9.927  0.00  0.00    +0.000 OA
BRANCH  11  12
ATOM     12  C   UNL     1      44.719   2.682  11.189  0.00  0.00    +0.000 C 
BRANCH  12  13
ATOM     13  C   UNL     1      43.895   3.840  11.641  0.00  0.00    +0.000 A 
ATOM     14  C   UNL     1      43.429   4.798  10.764  0.00  0.00    +0.000 A 
ATOM     15  N   UNL     1      42.664   5.845  11.131  0.00  0.00    +0.000 NA
ATOM     16  C   UNL     1      42.373   5.916  12.439  0.00  0.00    +0.000 A 
ATOM     17  N   UNL     1      42.766   5.051  13.385  0.00  0.00    +0.000 NA
ATOM     18  C   UNL     1      43.530   4.026  12.960  0.00  0.00    +0.000 A 
ENDBRANCH  12  13
ENDBRANCH  11  12
ENDBRANCH   4  11
TORSDOF 5
ENDMDL
MODEL 5
REMARK VINA RESULT:    -5.884      2.179      5.953
REMARK INTER + INTRA:          -7.880
REMARK INTER:                  -7.463
REMARK INTRA:                  -0.417
REMARK UNBOUND:                -0.448
REMARK  Name = 
REMARK  5 active torsions:
REMARK  status: ('A' for Active; 'I' for Inactive)
REMARK    1  A    between atoms: N_1  and  C_2
REMARK    2  A    between atoms: C_2  and  C_3
REMARK    3  A    between atoms: C_6  and  O_7
REMARK    4  A    between atoms: O_7  and  C_8
REMARK    5  A    between atoms: C_8  and  C_9
REMARK                            x       y       z     vdW  Elec       q    Type
REMARK                         _______ _______ _______ _____ _____    ______ ____
ROOT
ATOM      1  C   UNL     1      45.661   7.303  12.319  0.00  0.00    +0.000 A 
ATOM      2  C   UNL     1      44.691   7.079  11.331  0.00  0.00    +0.000 A 
ATOM      3  C   UNL     1      44.391   5.780  10.911  0.00  0.00    +0.000 A 
ATOM      4  C   UNL     1      45.065   4.690  11.460  0.00  0.00    +0.000 A 
ATOM      5  C   UNL     1      45.995   4.901  12.479  0.00  0.00    +0.000 A 
ATOM      6  C   UNL     1      46.300   6.199  12.896  0.00  0.00    +0.000 A 
ENDROOT
BRANCH   1   7
ATOM      7  C   UNL     1      46.037   8.702  12.732  0.00  0.00    +0.000 C 
BRANCH   7   8
ATOM      8  N   UNL     1      44.875   9.578  12.798  0.00  0.00    +0.000 NA
ATOM      9  H   UNL     1      44.089   9.123  12.339  0.00  0.00    +0.000 HD
ATOM     10  H   UNL     1      45.071  10.424  12.265  0.00  0.00    +0.000 HD
ENDBRANCH   7   8
ENDBRANCH   1   7
BRANCH   4  11
ATOM     11  O   UNL     1      44.747   3.467  10.932  0.00  0.00    +0.000 OA
BRANCH  11  12
ATOM     12  C   UNL     1      44.278   3.496   9.584  0.00  0.00    +0.000 C 
BRANCH  12  13
ATOM     13  C   UNL     1      45.315   2.904   8.690  0.00  0.00    +0.000 A 
ATOM     14  C   UNL     1      45.627   1.560   8.714  0.00  0.00    +0.000 A 
ATOM     15  N   UNL     1      46.540   0.986   7.906  0.00  0.00    +0.000 NA
ATOM     16  C   UNL     1      47.157   1.816   7.051  0.00  0.00    +0.000 A 
ATOM     17  N   UNL     1      46.942   3.135   6.934  0.00  0.00    +0.000 NA
ATOM     18  C   UNL     1      46.019   3.654   7.769  0.00  0.00    +0.000 A 
ENDBRANCH  12  13
ENDBRANCH  11  12
ENDBRANCH   4  11
TORSDOF 5
ENDMDL
MODEL 6
REMARK VINA RESULT:    -5.698      1.549      2.468
REMARK INTER + INTRA:          -7.645
REMARK INTER:                  -7.280
REMARK INTRA:                  -0.366
REMARK UNBOUND:                -0.448
REMARK  Name = 
REMARK  5 active torsions:
REMARK  status: ('A' for Active; 'I' for Inactive)
REMARK    1  A    between atoms: N_1  and  C_2
REMARK    2  A    between atoms: C_2  and  C_3
REMARK    3  A    between atoms: C_6  and  O_7
REMARK    4  A    between atoms: O_7  and  C_8
REMARK    5  A    between atoms: C_8  and  C_9
REMARK                            x       y       z     vdW  Elec       q    Type
REMARK                         _______ _______ _______ _____ _____    ______ ____
ROOT
ATOM      1  C   UNL     1      46.751   2.267   7.363  0.00  0.00    +0.000 A 
ATOM      2  C   UNL     1      47.092   3.598   7.085  0.00  0.00    +0.000 A 
ATOM      3  C   UNL     1      46.465   4.649   7.762  0.00  0.00    +0.000 A 
ATOM      4  C   UNL     1      45.481   4.383   8.714  0.00  0.00    +0.000 A 
ATOM      5  C   UNL     1      45.174   3.061   9.033  0.00  0.00    +0.000 A 
ATOM      6  C   UNL     1      45.795   2.010   8.353  0.00  0.00    +0.000 A 
ENDROOT
BRANCH   1   7
ATOM      7  C   UNL     1      47.374   1.131   6.593  0.00  0.00    +0.000 C 
BRANCH   7   8
ATOM      8  N   UNL     1      48.452   1.590   5.728  0.00  0.00    +0.000 NA
ATOM      9  H   UNL     1      49.333   1.534   6.236  0.00  0.00    +0.000 HD
ATOM     10  H   UNL     1      48.304   2.575   5.513  0.00  0.00    +0.000 HD
ENDBRANCH   7   8
ENDBRANCH   1   7
BRANCH   4  11
ATOM     11  O   UNL     1      44.881   5.482   9.271  0.00  0.00    +0.000 OA
BRANCH  11  12
ATOM     12  C   UNL     1      45.437   5.907  10.515  0.00  0.00    +0.000 C 
BRANCH  12  13
ATOM     13  C   UNL     1      44.624   5.348  11.634  0.00  0.00    +0.000 A 
ATOM     14  C   UNL     1      43.280   5.628  11.778  0.00  0.00    +0.000 A 
ATOM     15  N   UNL     1      42.509   5.124  12.760  0.00  0.00    +0.000 NA
ATOM     16  C   UNL     1      43.135   4.313  13.627  0.00  0.00    +0.000 A 
ATOM     17  N   UNL     1      44.430   3.967  13.593  0.00  0.00    +0.000 NA
ATOM     18  C   UNL     1      45.153   4.503  12.589  0.00  0.00    +0.000 A 
ENDBRANCH  12  13
ENDBRANCH  11  12
ENDBRANCH   4  11
TORSDOF 5
ENDMDL
MODEL 7
REMARK VINA RESULT:    -5.495      2.488      6.031
REMARK INTER + INTRA:          -7.388
REMARK INTER:                  -7.023
REMARK INTRA:                  -0.365
REMARK UNBOUND:                -0.448
REMARK  Name = 
REMARK  5 active torsions:
REMARK  status: ('A' for Active; 'I' for Inactive)
REMARK    1  A    between atoms: N_1  and  C_2
REMARK    2  A    between atoms: C_2  and  C_3
REMARK    3  A    between atoms: C_6  and  O_7
REMARK    4  A    between atoms: O_7  and  C_8
REMARK    5  A    between atoms: C_8  and  C_9
REMARK                            x       y       z     vdW  Elec       q    Type
REMARK                         _______ _______ _______ _____ _____    ______ ____
ROOT
ATOM      1  C   UNL     1      43.290   5.300  11.326  0.00  0.00    +0.000 A 
ATOM      2  C   UNL     1      43.044   3.981  11.731  0.00  0.00    +0.000 A 
ATOM      3  C   UNL     1      43.844   2.933  11.265  0.00  0.00    +0.000 A 
ATOM      4  C   UNL     1      44.889   3.189  10.379  0.00  0.00    +0.000 A 
ATOM      5  C   UNL     1      45.172   4.504  10.011  0.00  0.00    +0.000 A 
ATOM      6  C   UNL     1      44.370   5.551  10.471  0.00  0.00    +0.000 A 
ENDROOT
BRANCH   1   7
ATOM      7  C   UNL     1      42.394   6.427  11.771  0.00  0.00    +0.000 C 
BRANCH   7   8
ATOM      8  N   UNL     1      42.715   7.675  11.091  0.00  0.00    +0.000 NA
ATOM      9  H   UNL     1      41.863   8.066  10.693  0.00  0.00    +0.000 HD
ATOM     10  H   UNL     1      43.334   7.473  10.308  0.00  0.00    +0.000 HD
ENDBRANCH   7   8
ENDBRANCH   1   7
BRANCH   4  11
ATOM     11  O   UNL     1      45.570   2.088   9.929  0.00  0.00    +0.000 OA
BRANCH  11  12
ATOM     12  C   UNL     1      45.109   1.562   8.684  0.00  0.00    +0.000 C 
BRANCH  12  13
ATOM     13  C   UNL     1      46.106   1.873   7.619  0.00  0.00    +0.000 A 
ATOM     14  C   UNL     1      45.999   2.990   6.815  0.00  0.00    +0.000 A 
ATOM     15  N   UNL     1      46.892   3.317   5.861  0.00  0.00    +0.000 NA
ATOM     16  C   UNL     1      47.922   2.469   5.719  0.00  0.00    +0.000 A 
ATOM     17  N   UNL     1      48.134   1.355   6.436  0.00  0.00    +0.000 NA
ATOM     18  C   UNL     1      47.208   1.079   7.375  0.00  0.00    +0.000 A 
ENDBRANCH  12  13
ENDBRANCH  11  12
ENDBRANCH   4  11
TORSDOF 5
ENDMDL
MODEL 8
REMARK VINA RESULT:    -5.195      3.913      8.068
REMARK INTER + INTRA:          -7.009
REMARK INTER:                  -6.669
REMARK INTRA:                  -0.341
REMARK UNBOUND:                -0.448
REMARK  Name = 
REMARK  5 active torsions:
REMARK  status: ('A' for Active; 'I' for Inactive)
REMARK    1  A    between atoms: N_1  and  C_2
REMARK    2  A    between atoms: C_2  and  C_3
REMARK    3  A    between atoms: C_6  and  O_7
REMARK    4  A    between atoms: O_7  and  C_8
REMARK    5  A    between atoms: C_8  and  C_9
REMARK                            x       y       z     vdW  Elec       q    Type
REMARK                         _______ _______ _______ _____ _____    ______ ____
ROOT
ATOM      1  C   UNL     1      48.420   4.552  18.429  0.00  0.00    +0.000 A 
ATOM      2  C   UNL     1      48.357   5.511  17.408  0.00  0.00    +0.000 A 
ATOM      3  C   UNL     1      47.914   5.159  16.129  0.00  0.00    +0.000 A 
ATOM      4  C   UNL     1      47.542   3.845  15.851  0.00  0.00    +0.000 A 
ATOM      5  C   UNL     1      47.553   2.897  16.874  0.00  0.00    +0.000 A 
ATOM      6  C   UNL     1      48.001   3.245  18.152  0.00  0.00    +0.000 A 
ENDROOT
BRANCH   1   7
ATOM      7  C   UNL     1      48.957   4.905  19.792  0.00  0.00    +0.000 C 
BRANCH   7   8
ATOM      8  N   UNL     1      48.550   3.938  20.802  0.00  0.00    +0.000 NA
ATOM      9  H   UNL     1      47.913   3.265  20.381  0.00  0.00    +0.000 HD
ATOM     10  H   UNL     1      48.022   4.422  21.526  0.00  0.00    +0.000 HD
ENDBRANCH   7   8
ENDBRANCH   1   7
BRANCH   4  11
ATOM     11  O   UNL     1      47.188   3.589  14.553  0.00  0.00    +0.000 OA
BRANCH  11  12
ATOM     12  C   UNL     1      46.849   4.742  13.782  0.00  0.00    +0.000 C 
BRANCH  12  13
ATOM     13  C   UNL     1      45.555   4.502  13.081  0.00  0.00    +0.000 A 
ATOM     14  C   UNL     1      44.496   5.383  13.170  0.00  0.00    +0.000 A 
ATOM     15  N   UNL     1      43.321   5.213  12.533  0.00  0.00    +0.000 NA
ATOM     16  C   UNL     1      43.225   4.101  11.787  0.00  0.00    +0.000 A 
ATOM     17  N   UNL     1      44.179   3.173  11.623  0.00  0.00    +0.000 NA
ATOM     18  C   UNL     1      45.332   3.396  12.286  0.00  0.00    +0.000 A 
ENDBRANCH  12  13
ENDBRANCH  11  12
ENDBRANCH   4  11
TORSDOF 5
ENDMDL
MODEL 9
REMARK VINA RESULT:    -4.911      3.649      5.192
REMARK INTER + INTRA:          -6.651
REMARK INTER:                  -6.346
REMARK INTRA:                  -0.305
REMARK UNBOUND:                -0.448
REMARK  Name = 
REMARK  5 active torsions:
REMARK  status: ('A' for Active; 'I' for Inactive)
REMARK    1  A    between atoms: N_1  and  C_2
REMARK    2  A    between atoms: C_2  and  C_3
REMARK    3  A    between atoms: C_6  and  O_7
REMARK    4  A    between atoms: O_7  and  C_8
REMARK    5  A    between atoms: C_8  and  C_9
REMARK                            x       y       z     vdW  Elec       q    Type
REMARK                         _______ _______ _______ _____ _____    ______ ____
ROOT
ATOM      1  C   UNL     1      44.999   4.577  11.043  0.00  0.00    +0.000 A 
ATOM      2  C   UNL     1      45.186   3.539  11.966  0.00  0.00    +0.000 A 
ATOM      3  C   UNL     1      46.009   3.719  13.082  0.00  0.00    +0.000 A 
ATOM      4  C   UNL     1      46.666   4.932  13.281  0.00  0.00    +0.000 A 
ATOM      5  C   UNL     1      46.445   5.987  12.395  0.00  0.00    +0.000 A 
ATOM      6  C   UNL     1      45.627   5.806  11.276  0.00  0.00    +0.000 A 
ENDROOT
BRANCH   1   7
ATOM      7  C   UNL     1      44.166   4.371   9.804  0.00  0.00    +0.000 C 
BRANCH   7   8
ATOM      8  N   UNL     1      44.916   4.670   8.591  0.00  0.00    +0.000 NA
ATOM      9  H   UNL     1      44.308   5.153   7.934  0.00  0.00    +0.000 HD
ATOM     10  H   UNL     1      45.184   3.793   8.147  0.00  0.00    +0.000 HD
ENDBRANCH   7   8
ENDBRANCH   1   7
BRANCH   4  11
ATOM     11  O   UNL     1      47.502   4.985  14.366  0.00  0.00    +0.000 OA
BRANCH  11  12
ATOM     12  C   UNL     1      47.166   4.092  15.428  0.00  0.00    +0.000 C 
BRANCH  12  13
ATOM     13  C   UNL     1      47.942   4.466  16.647  0.00  0.00    +0.000 A 
ATOM     14  C   UNL     1      47.970   3.669  17.774  0.00  0.00    +0.000 A 
ATOM     15  N   UNL     1      48.676   3.961  18.883  0.00  0.00    +0.000 NA
ATOM     16  C   UNL     1      49.369   5.109  18.840  0.00  0.00    +0.000 A 
ATOM     17  N   UNL     1      49.421   5.964  17.809  0.00  0.00    +0.000 NA
ATOM     18  C   UNL     1      48.694   5.621  16.727  0.00  0.00    +0.000 A 
ENDBRANCH  12  13
ENDBRANCH  11  12
ENDBRANCH   4  11
TORSDOF 5
ENDMDL
