MODEL 1
REMARK VINA RESULT:    -8.644      0.000      0.000
REMARK INTER + INTRA:         -13.445
REMARK INTER:                 -12.181
REMARK INTRA:                  -1.263
REMARK UNBOUND:                -1.263
REMARK  Name = 
REMARK  11 active torsions:
REMARK  status: ('A' for Active; 'I' for Inactive)
REMARK    1  A    between atoms: C_1  and  C_2
REMARK    2  A    between atoms: C_2  and  C_3
REMARK    3  A    between atoms: C_5  and  N_6
REMARK    4  A    between atoms: N_6  and  C_7
REMARK    5  A    between atoms: C_11  and  C_12
REMARK    6  A    between atoms: C_12  and  C_13
REMARK    7  A    between atoms: C_12  and  C_14
REMARK    8  A    between atoms: C_12  and  C_15
REMARK    9  A    between atoms: C_15  and  N_16
REMARK   10  A    between atoms: N_16  and  C_17
REMARK   11  A    between atoms: C_20  and  C_21
REMARK                            x       y       z     vdW  Elec       q    Type
REMARK                         _______ _______ _______ _____ _____    ______ ____
ROOT
ATOM      1  C   UNL     1      43.859   4.848  12.089  0.00  0.00    +0.000 C 
ATOM      2  C   UNL     1      43.112   4.779  13.446  0.00  0.00    +0.000 C 
ATOM      3  C   UNL     1      42.994   5.643  11.078  0.00  0.00    +0.000 C 
ENDROOT
BRANCH   1   8
ATOM      4  C   UNL     1      47.192   5.975  13.692  0.00  0.00    +0.000 A 
ATOM      5  C   UNL     1      47.786   6.637  12.619  0.00  0.00    +0.000 A 
ATOM      6  C   UNL     1      47.110   6.803  11.421  0.00  0.00    +0.000 A 
ATOM      7  C   UNL     1      45.836   6.262  11.252  0.00  0.00    +0.000 A 
ATOM      8  C   UNL     1      45.216   5.552  12.297  0.00  0.00    +0.000 A 
ATOM      9  C   UNL     1      45.897   5.487  13.530  0.00  0.00    +0.000 A 
BRANCH   4  10
ATOM     10  N   UNL     1      47.872   5.760  14.907  0.00  0.00    +0.000 N 
ATOM     11  H   UNL     1      48.884   5.790  14.772  0.00  0.00    +0.000 HD
BRANCH  10  16
ATOM     12  C   UNL     1      47.265   2.532  17.877  0.00  0.00    +0.000 C 
ATOM     13  C   UNL     1      48.289   3.086  16.887  0.00  0.00    +0.000 C 
ATOM     14  C   UNL     1      49.589   2.288  16.907  0.00  0.00    +0.000 C 
ATOM     15  C   UNL     1      48.504   4.617  17.009  0.00  0.00    +0.000 C 
ATOM     16  C   UNL     1      47.448   4.807  15.889  0.00  0.00    +0.000 C 
ATOM     17  C   UNL     1      47.734   3.356  15.456  0.00  0.00    +0.000 C 
ENDBRANCH  10  16
ENDBRANCH   4  10
ENDBRANCH   1   8
BRANCH   1  18
ATOM     18  C   UNL     1      44.024   3.381  11.578  0.00  0.00    +0.000 C 
BRANCH  18  19
ATOM     19  N   UNL     1      43.747   3.217  10.157  0.00  0.00    +0.000 N 
ATOM     20  H   UNL     1      42.815   3.429   9.806  0.00  0.00    +0.000 HD
BRANCH  19  21
ATOM     21  C   UNL     1      44.744   2.980   9.226  0.00  0.00    +0.000 A 
ATOM     22  C   UNL     1      45.264   1.704   8.977  0.00  0.00    +0.000 A 
ATOM     23  C   UNL     1      46.235   1.507   7.987  0.00  0.00    +0.000 A 
ATOM     24  C   UNL     1      46.702   2.580   7.230  0.00  0.00    +0.000 A 
ATOM     25  C   UNL     1      46.203   3.863   7.478  0.00  0.00    +0.000 A 
ATOM     26  C   UNL     1      45.230   4.050   8.476  0.00  0.00    +0.000 A 
BRANCH  24  27
ATOM     27  C   UNL     1      47.745   2.307   6.195  0.00  0.00    +0.000 C 
ATOM     28  N   UNL     1      47.736   3.085   5.065  0.00  0.00    +0.000 N 
ATOM     29  O   UNL     1      48.561   1.410   6.330  0.00  0.00    +0.000 OA
ATOM     30  H   UNL     1      47.120   3.848   4.890  0.00  0.00    +0.000 HD
ATOM     31  H   UNL     1      48.465   2.879   4.377  0.00  0.00    +0.000 HD
ENDBRANCH  24  27
ENDBRANCH  19  21
ENDBRANCH  18  19
ENDBRANCH   1  18
TORSDOF 7
ENDMDL
MODEL 2
REMARK VINA RESULT:    -7.842      2.156      4.275
REMARK INTER + INTRA:         -12.315
REMARK INTER:                 -11.083
REMARK INTRA:                  -1.232
REMARK UNBOUND:                -1.263
REMARK  Name = 
REMARK  11 active torsions:
REMARK  status: ('A' for Active; 'I' for Inactive)
REMARK    1  A    between atoms: C_1  and  C_2
REMARK    2  A    between atoms: C_2  and  C_3
REMARK    3  A    between atoms: C_5  and  N_6
REMARK    4  A    between atoms: N_6  and  C_7
REMARK    5  A    between atoms: C_11  and  C_12
REMARK    6  A    between atoms: C_12  and  C_13
REMARK    7  A    between atoms: C_12  and  C_14
REMARK    8  A    between atoms: C_12  and  C_15
REMARK    9  A    between atoms: C_15  and  N_16
REMARK   10  A    between atoms: N_16  and  C_17
REMARK   11  A    between atoms: C_20  and  C_21
REMARK                            x       y       z     vdW  Elec       q    Type
REMARK                         _______ _______ _______ _____ _____    ______ ____
ROOT
ATOM      1  C   UNL     1      43.887   4.415  12.122  0.00  0.00    +0.000 C 
ATOM      2  C   UNL     1      43.756   2.911  12.474  0.00  0.00    +0.000 C 
ATOM      3  C   UNL     1      42.778   5.204  12.862  0.00  0.00    +0.000 C 
ENDROOT
BRANCH   1   8
ATOM      4  C   UNL     1      47.123   6.520  12.341  0.00  0.00    +0.000 A 
ATOM      5  C   UNL     1      47.706   5.983  13.487  0.00  0.00    +0.000 A 
ATOM      6  C   UNL     1      47.129   4.908  14.143  0.00  0.00    +0.000 A 
ATOM      7  C   UNL     1      45.921   4.376  13.694  0.00  0.00    +0.000 A 
ATOM      8  C   UNL     1      45.279   4.914  12.563  0.00  0.00    +0.000 A 
ATOM      9  C   UNL     1      45.945   5.944  11.869  0.00  0.00    +0.000 A 
BRANCH   4  10
ATOM     10  N   UNL     1      47.669   7.637  11.677  0.00  0.00    +0.000 N 
ATOM     11  H   UNL     1      47.948   7.397  10.724  0.00  0.00    +0.000 HD
BRANCH  10  16
ATOM     12  C   UNL     1      50.425  10.864  12.941  0.00  0.00    +0.000 C 
ATOM     13  C   UNL     1      49.765  10.254  11.705  0.00  0.00    +0.000 C 
ATOM     14  C   UNL     1      50.146  11.001  10.430  0.00  0.00    +0.000 C 
ATOM     15  C   UNL     1      48.237  10.038  11.861  0.00  0.00    +0.000 C 
ATOM     16  C   UNL     1      48.536   8.585  12.312  0.00  0.00    +0.000 C 
ATOM     17  C   UNL     1      49.895   8.706  11.593  0.00  0.00    +0.000 C 
ENDBRANCH  10  16
ENDBRANCH   4  10
ENDBRANCH   1   8
BRANCH   1  18
ATOM     18  C   UNL     1      43.669   4.550  10.582  0.00  0.00    +0.000 C 
BRANCH  18  19
ATOM     19  N   UNL     1      43.803   3.294   9.854  0.00  0.00    +0.000 N 
ATOM     20  H   UNL     1      43.025   2.639   9.850  0.00  0.00    +0.000 HD
BRANCH  19  21
ATOM     21  C   UNL     1      44.863   3.037   9.001  0.00  0.00    +0.000 A 
ATOM     22  C   UNL     1      45.420   1.761   8.845  0.00  0.00    +0.000 A 
ATOM     23  C   UNL     1      46.457   1.540   7.929  0.00  0.00    +0.000 A 
ATOM     24  C   UNL     1      46.954   2.588   7.156  0.00  0.00    +0.000 A 
ATOM     25  C   UNL     1      46.417   3.870   7.312  0.00  0.00    +0.000 A 
ATOM     26  C   UNL     1      45.379   4.082   8.236  0.00  0.00    +0.000 A 
BRANCH  24  27
ATOM     27  C   UNL     1      48.066   2.290   6.203  0.00  0.00    +0.000 C 
ATOM     28  N   UNL     1      49.276   2.895   6.432  0.00  0.00    +0.000 N 
ATOM     29  O   UNL     1      47.906   1.558   5.241  0.00  0.00    +0.000 OA
ATOM     30  H   UNL     1      49.493   3.485   7.205  0.00  0.00    +0.000 HD
ATOM     31  H   UNL     1      50.020   2.667   5.768  0.00  0.00    +0.000 HD
ENDBRANCH  24  27
ENDBRANCH  19  21
ENDBRANCH  18  19
ENDBRANCH   1  18
TORSDOF 7
ENDMDL
MODEL 3
REMARK VINA RESULT:    -7.499      1.420      1.910
REMARK INTER + INTRA:         -11.832
REMARK INTER:                 -10.735
REMARK INTRA:                  -1.097
REMARK UNBOUND:                -1.263
REMARK  Name = 
REMARK  11 active torsions:
REMARK  status: ('A' for Active; 'I' for Inactive)
REMARK    1  A    between atoms: C_1  and  C_2
REMARK    2  A    between atoms: C_2  and  C_3
REMARK    3  A    between atoms: C_5  and  N_6
REMARK    4  A    between atoms: N_6  and  C_7
REMARK    5  A    between atoms: C_11  and  C_12
REMARK    6  A    between atoms: C_12  and  C_13
REMARK    7  A    between atoms: C_12  and  C_14
REMARK    8  A    between atoms: C_12  and  C_15
REMARK    9  A    between atoms: C_15  and  N_16
REMARK   10  A    between atoms: N_16  and  C_17
REMARK   11  A    between atoms: C_20  and  C_21
REMARK                            x       y       z     vdW  Elec       q    Type
REMARK                         _______ _______ _______ _____ _____    ______ ____
ROOT
ATOM      1  C   UNL     1      43.796   4.942  12.258  0.00  0.00    +0.000 C 
ATOM      2  C   UNL     1      42.997   4.745  13.571  0.00  0.00    +0.000 C 
ATOM      3  C   UNL     1      42.866   5.574  11.192  0.00  0.00    +0.000 C 
ENDROOT
BRANCH   1   8
ATOM      4  C   UNL     1      47.151   6.280  13.639  0.00  0.00    +0.000 A 
ATOM      5  C   UNL     1      47.297   7.444  12.887  0.00  0.00    +0.000 A 
ATOM      6  C   UNL     1      46.306   7.853  12.009  0.00  0.00    +0.000 A 
ATOM      7  C   UNL     1      45.164   7.075  11.825  0.00  0.00    +0.000 A 
ATOM      8  C   UNL     1      44.996   5.872  12.536  0.00  0.00    +0.000 A 
ATOM      9  C   UNL     1      45.980   5.539  13.488  0.00  0.00    +0.000 A 
BRANCH   4  10
ATOM     10  N   UNL     1      48.159   5.822  14.511  0.00  0.00    +0.000 N 
ATOM     11  H   UNL     1      48.053   4.824  14.702  0.00  0.00    +0.000 HD
BRANCH  10  16
ATOM     12  C   UNL     1      50.246   7.706  17.931  0.00  0.00    +0.000 C 
ATOM     13  C   UNL     1      50.366   6.563  16.925  0.00  0.00    +0.000 C 
ATOM     14  C   UNL     1      51.656   5.772  17.113  0.00  0.00    +0.000 C 
ATOM     15  C   UNL     1      50.119   7.000  15.457  0.00  0.00    +0.000 C 
ATOM     16  C   UNL     1      48.636   6.578  15.630  0.00  0.00    +0.000 C 
ATOM     17  C   UNL     1      49.093   5.674  16.793  0.00  0.00    +0.000 C 
ENDBRANCH  10  16
ENDBRANCH   4  10
ENDBRANCH   1   8
BRANCH   1  18
ATOM     18  C   UNL     1      44.243   3.527  11.773  0.00  0.00    +0.000 C 
BRANCH  18  19
ATOM     19  N   UNL     1      43.870   3.230  10.396  0.00  0.00    +0.000 N 
ATOM     20  H   UNL     1      42.898   3.334  10.114  0.00  0.00    +0.000 HD
BRANCH  19  21
ATOM     21  C   UNL     1      44.806   3.008   9.401  0.00  0.00    +0.000 A 
ATOM     22  C   UNL     1      45.230   1.726   9.029  0.00  0.00    +0.000 A 
ATOM     23  C   UNL     1      46.141   1.550   7.979  0.00  0.00    +0.000 A 
ATOM     24  C   UNL     1      46.643   2.650   7.285  0.00  0.00    +0.000 A 
ATOM     25  C   UNL     1      46.240   3.936   7.656  0.00  0.00    +0.000 A 
ATOM     26  C   UNL     1      45.327   4.102   8.712  0.00  0.00    +0.000 A 
BRANCH  24  27
ATOM     27  C   UNL     1      47.618   2.396   6.181  0.00  0.00    +0.000 C 
ATOM     28  N   UNL     1      47.435   3.078   5.004  0.00  0.00    +0.000 N 
ATOM     29  O   UNL     1      48.530   1.595   6.304  0.00  0.00    +0.000 OA
ATOM     30  H   UNL     1      46.732   3.763   4.834  0.00  0.00    +0.000 HD
ATOM     31  H   UNL     1      48.121   2.890   4.270  0.00  0.00    +0.000 HD
ENDBRANCH  24  27
ENDBRANCH  19  21
ENDBRANCH  18  19
ENDBRANCH   1  18
TORSDOF 7
ENDMDL
MODEL 4
REMARK VINA RESULT:    -7.438      1.149      1.981
REMARK INTER + INTRA:         -11.745
REMARK INTER:                 -11.218
REMARK INTRA:                  -0.527
REMARK UNBOUND:                -1.263
REMARK  Name = 
REMARK  11 active torsions:
REMARK  status: ('A' for Active; 'I' for Inactive)
REMARK    1  A    between atoms: C_1  and  C_2
REMARK    2  A    between atoms: C_2  and  C_3
REMARK    3  A    between atoms: C_5  and  N_6
REMARK    4  A    between atoms: N_6  and  C_7
REMARK    5  A    between atoms: C_11  and  C_12
REMARK    6  A    between atoms: C_12  and  C_13
REMARK    7  A    between atoms: C_12  and  C_14
REMARK    8  A    between atoms: C_12  and  C_15
REMARK    9  A    between atoms: C_15  and  N_16
REMARK   10  A    between atoms: N_16  and  C_17
REMARK   11  A    between atoms: C_20  and  C_21
REMARK                            x       y       z     vdW  Elec       q    Type
REMARK                         _______ _______ _______ _____ _____    ______ ____
ROOT
ATOM      1  C   UNL     1      44.109   4.982  12.352  0.00  0.00    +0.000 C 
ATOM      2  C   UNL     1      42.961   4.943  13.393  0.00  0.00    +0.000 C 
ATOM      3  C   UNL     1      43.765   6.028  11.262  0.00  0.00    +0.000 C 
ENDROOT
BRANCH   1   8
ATOM      4  C   UNL     1      47.175   4.851  14.705  0.00  0.00    +0.000 A 
ATOM      5  C   UNL     1      47.917   5.928  14.225  0.00  0.00    +0.000 A 
ATOM      6  C   UNL     1      47.421   6.745  13.222  0.00  0.00    +0.000 A 
ATOM      7  C   UNL     1      46.186   6.470  12.638  0.00  0.00    +0.000 A 
ATOM      8  C   UNL     1      45.421   5.369  13.066  0.00  0.00    +0.000 A 
ATOM      9  C   UNL     1      45.916   4.618  14.151  0.00  0.00    +0.000 A 
BRANCH   4  10
ATOM     10  N   UNL     1      47.671   3.982  15.698  0.00  0.00    +0.000 N 
ATOM     11  H   UNL     1      46.945   3.341  16.021  0.00  0.00    +0.000 HD
BRANCH  10  16
ATOM     12  C   UNL     1      49.841   5.499  19.247  0.00  0.00    +0.000 C 
ATOM     13  C   UNL     1      48.442   5.396  18.639  0.00  0.00    +0.000 C 
ATOM     14  C   UNL     1      47.379   5.999  19.551  0.00  0.00    +0.000 C 
ATOM     15  C   UNL     1      48.089   3.972  18.136  0.00  0.00    +0.000 C 
ATOM     16  C   UNL     1      48.576   4.398  16.727  0.00  0.00    +0.000 C 
ATOM     17  C   UNL     1      48.341   5.861  17.155  0.00  0.00    +0.000 C 
ENDBRANCH  10  16
ENDBRANCH   4  10
ENDBRANCH   1   8
BRANCH   1  18
ATOM     18  C   UNL     1      44.185   3.567  11.696  0.00  0.00    +0.000 C 
BRANCH  18  19
ATOM     19  N   UNL     1      43.804   3.547  10.290  0.00  0.00    +0.000 N 
ATOM     20  H   UNL     1      42.888   3.899  10.020  0.00  0.00    +0.000 HD
BRANCH  19  21
ATOM     21  C   UNL     1      44.703   3.259   9.277  0.00  0.00    +0.000 A 
ATOM     22  C   UNL     1      45.253   4.244   8.447  0.00  0.00    +0.000 A 
ATOM     23  C   UNL     1      46.200   3.911   7.471  0.00  0.00    +0.000 A 
ATOM     24  C   UNL     1      46.613   2.589   7.307  0.00  0.00    +0.000 A 
ATOM     25  C   UNL     1      46.060   1.593   8.118  0.00  0.00    +0.000 A 
ATOM     26  C   UNL     1      45.108   1.939   9.094  0.00  0.00    +0.000 A 
BRANCH  24  27
ATOM     27  C   UNL     1      47.619   2.296   6.242  0.00  0.00    +0.000 C 
ATOM     28  N   UNL     1      47.543   3.022   5.080  0.00  0.00    +0.000 N 
ATOM     29  O   UNL     1      48.464   1.427   6.382  0.00  0.00    +0.000 OA
ATOM     30  H   UNL     1      46.900   3.761   4.899  0.00  0.00    +0.000 HD
ATOM     31  H   UNL     1      48.249   2.805   4.372  0.00  0.00    +0.000 HD
ENDBRANCH  24  27
ENDBRANCH  19  21
ENDBRANCH  18  19
ENDBRANCH   1  18
TORSDOF 7
ENDMDL
MODEL 5
REMARK VINA RESULT:    -6.756      3.186      8.554
REMARK INTER + INTRA:         -10.784
REMARK INTER:                  -9.997
REMARK INTRA:                  -0.787
REMARK UNBOUND:                -1.263
REMARK  Name = 
REMARK  11 active torsions:
REMARK  status: ('A' for Active; 'I' for Inactive)
REMARK    1  A    between atoms: C_1  and  C_2
REMARK    2  A    between atoms: C_2  and  C_3
REMARK    3  A    between atoms: C_5  and  N_6
REMARK    4  A    between atoms: N_6  and  C_7
REMARK    5  A    between atoms: C_11  and  C_12
REMARK    6  A    between atoms: C_12  and  C_13
REMARK    7  A    between atoms: C_12  and  C_14
REMARK    8  A    between atoms: C_12  and  C_15
REMARK    9  A    between atoms: C_15  and  N_16
REMARK   10  A    between atoms: N_16  and  C_17
REMARK   11  A    between atoms: C_20  and  C_21
REMARK                            x       y       z     vdW  Elec       q    Type
REMARK                         _______ _______ _______ _____ _____    ______ ____
ROOT
ATOM      1  C   UNL     1      46.690   7.526  12.344  0.00  0.00    +0.000 C 
ATOM      2  C   UNL     1      47.955   7.270  11.485  0.00  0.00    +0.000 C 
ATOM      3  C   UNL     1      46.256   9.004  12.174  0.00  0.00    +0.000 C 
ENDROOT
BRANCH   1   8
ATOM      4  C   UNL     1      44.631   5.084  10.164  0.00  0.00    +0.000 A 
ATOM      5  C   UNL     1      43.647   4.693  11.069  0.00  0.00    +0.000 A 
ATOM      6  C   UNL     1      43.579   5.255  12.334  0.00  0.00    +0.000 A 
ATOM      7  C   UNL     1      44.530   6.190  12.741  0.00  0.00    +0.000 A 
ATOM      8  C   UNL     1      45.564   6.584  11.871  0.00  0.00    +0.000 A 
ATOM      9  C   UNL     1      45.544   6.060  10.562  0.00  0.00    +0.000 A 
BRANCH   4  10
ATOM     10  N   UNL     1      44.746   4.501   8.886  0.00  0.00    +0.000 N 
ATOM     11  H   UNL     1      43.827   4.365   8.461  0.00  0.00    +0.000 HD
BRANCH  10  16
ATOM     12  C   UNL     1      47.596   1.560   7.203  0.00  0.00    +0.000 C 
ATOM     13  C   UNL     1      46.647   2.689   6.801  0.00  0.00    +0.000 C 
ATOM     14  C   UNL     1      46.670   2.944   5.298  0.00  0.00    +0.000 C 
ATOM     15  C   UNL     1      46.823   3.977   7.648  0.00  0.00    +0.000 C 
ATOM     16  C   UNL     1      45.687   3.468   8.573  0.00  0.00    +0.000 C 
ATOM     17  C   UNL     1      45.214   2.582   7.404  0.00  0.00    +0.000 C 
ENDBRANCH  10  16
ENDBRANCH   4  10
ENDBRANCH   1   8
BRANCH   1  18
ATOM     18  C   UNL     1      47.084   7.278  13.834  0.00  0.00    +0.000 C 
BRANCH  18  19
ATOM     19  N   UNL     1      47.477   5.904  14.119  0.00  0.00    +0.000 N 
ATOM     20  H   UNL     1      47.592   5.252  13.347  0.00  0.00    +0.000 HD
BRANCH  19  21
ATOM     21  C   UNL     1      47.898   5.494  15.373  0.00  0.00    +0.000 A 
ATOM     22  C   UNL     1      48.809   6.226  16.146  0.00  0.00    +0.000 A 
ATOM     23  C   UNL     1      49.164   5.797  17.431  0.00  0.00    +0.000 A 
ATOM     24  C   UNL     1      48.617   4.631  17.964  0.00  0.00    +0.000 A 
ATOM     25  C   UNL     1      47.720   3.881  17.198  0.00  0.00    +0.000 A 
ATOM     26  C   UNL     1      47.371   4.320  15.908  0.00  0.00    +0.000 A 
BRANCH  24  27
ATOM     27  C   UNL     1      49.043   4.221  19.337  0.00  0.00    +0.000 C 
ATOM     28  N   UNL     1      48.312   3.243  19.962  0.00  0.00    +0.000 N 
ATOM     29  O   UNL     1      49.988   4.750  19.898  0.00  0.00    +0.000 OA
ATOM     30  H   UNL     1      47.545   2.748  19.564  0.00  0.00    +0.000 HD
ATOM     31  H   UNL     1      48.631   2.978  20.898  0.00  0.00    +0.000 HD
ENDBRANCH  24  27
ENDBRANCH  19  21
ENDBRANCH  18  19
ENDBRANCH   1  18
TORSDOF 7
ENDMDL
MODEL 6
REMARK VINA RESULT:    -6.535      3.536      7.219
REMARK INTER + INTRA:         -10.472
REMARK INTER:                  -8.799
REMARK INTRA:                  -1.673
REMARK UNBOUND:                -1.263
REMARK  Name = 
REMARK  11 active torsions:
REMARK  status: ('A' for Active; 'I' for Inactive)
REMARK    1  A    between atoms: C_1  and  C_2
REMARK    2  A    between atoms: C_2  and  C_3
REMARK    3  A    between atoms: C_5  and  N_6
REMARK    4  A    between atoms: N_6  and  C_7
REMARK    5  A    between atoms: C_11  and  C_12
REMARK    6  A    between atoms: C_12  and  C_13
REMARK    7  A    between atoms: C_12  and  C_14
REMARK    8  A    between atoms: C_12  and  C_15
REMARK    9  A    between atoms: C_15  and  N_16
REMARK   10  A    between atoms: N_16  and  C_17
REMARK   11  A    between atoms: C_20  and  C_21
REMARK                            x       y       z     vdW  Elec       q    Type
REMARK                         _______ _______ _______ _____ _____    ______ ____
ROOT
ATOM      1  C   UNL     1      49.062   7.784  14.533  0.00  0.00    +0.000 C 
ATOM      2  C   UNL     1      50.100   8.261  15.580  0.00  0.00    +0.000 C 
ATOM      3  C   UNL     1      49.788   7.514  13.191  0.00  0.00    +0.000 C 
ENDROOT
BRANCH   1   8
ATOM      4  C   UNL     1      46.968   4.534  14.625  0.00  0.00    +0.000 A 
ATOM      5  C   UNL     1      47.335   4.023  15.868  0.00  0.00    +0.000 A 
ATOM      6  C   UNL     1      48.173   4.735  16.712  0.00  0.00    +0.000 A 
ATOM      7  C   UNL     1      48.705   5.958  16.307  0.00  0.00    +0.000 A 
ATOM      8  C   UNL     1      48.391   6.492  15.043  0.00  0.00    +0.000 A 
ATOM      9  C   UNL     1      47.462   5.784  14.254  0.00  0.00    +0.000 A 
BRANCH   4  10
ATOM     10  N   UNL     1      46.149   3.814  13.733  0.00  0.00    +0.000 N 
ATOM     11  H   UNL     1      46.698   3.147  13.188  0.00  0.00    +0.000 HD
BRANCH  10  16
ATOM     12  C   UNL     1      42.974   5.130  10.941  0.00  0.00    +0.000 C 
ATOM     13  C   UNL     1      44.141   4.151  11.069  0.00  0.00    +0.000 C 
ATOM     14  C   UNL     1      44.294   3.283   9.824  0.00  0.00    +0.000 C 
ATOM     15  C   UNL     1      44.126   3.338  12.390  0.00  0.00    +0.000 C 
ATOM     16  C   UNL     1      45.068   4.406  13.003  0.00  0.00    +0.000 C 
ATOM     17  C   UNL     1      45.474   4.786  11.565  0.00  0.00    +0.000 C 
ENDBRANCH  10  16
ENDBRANCH   4  10
ENDBRANCH   1   8
BRANCH   1  18
ATOM     18  C   UNL     1      48.037   8.946  14.335  0.00  0.00    +0.000 C 
BRANCH  18  19
ATOM     19  N   UNL     1      47.865   9.351  12.946  0.00  0.00    +0.000 N 
ATOM     20  H   UNL     1      48.678   9.380  12.335  0.00  0.00    +0.000 HD
BRANCH  19  21
ATOM     21  C   UNL     1      46.618   9.503  12.363  0.00  0.00    +0.000 A 
ATOM     22  C   UNL     1      46.132  10.739  11.920  0.00  0.00    +0.000 A 
ATOM     23  C   UNL     1      44.885  10.833  11.289  0.00  0.00    +0.000 A 
ATOM     24  C   UNL     1      44.105   9.696  11.089  0.00  0.00    +0.000 A 
ATOM     25  C   UNL     1      44.571   8.457  11.540  0.00  0.00    +0.000 A 
ATOM     26  C   UNL     1      45.822   8.374  12.176  0.00  0.00    +0.000 A 
BRANCH  24  27
ATOM     27  C   UNL     1      42.781   9.863  10.417  0.00  0.00    +0.000 C 
ATOM     28  N   UNL     1      41.686   9.302  11.024  0.00  0.00    +0.000 N 
ATOM     29  O   UNL     1      42.672  10.454   9.354  0.00  0.00    +0.000 OA
ATOM     30  H   UNL     1      41.687   8.827  11.900  0.00  0.00    +0.000 HD
ATOM     31  H   UNL     1      40.792   9.439  10.545  0.00  0.00    +0.000 HD
ENDBRANCH  24  27
ENDBRANCH  19  21
ENDBRANCH  18  19
ENDBRANCH   1  18
TORSDOF 7
ENDMDL
MODEL 7
REMARK VINA RESULT:    -6.507      3.908      7.731
REMARK INTER + INTRA:         -10.433
REMARK INTER:                  -8.627
REMARK INTRA:                  -1.807
REMARK UNBOUND:                -1.263
REMARK  Name = 
REMARK  11 active torsions:
REMARK  status: ('A' for Active; 'I' for Inactive)
REMARK    1  A    between atoms: C_1  and  C_2
REMARK    2  A    between atoms: C_2  and  C_3
REMARK    3  A    between atoms: C_5  and  N_6
REMARK    4  A    between atoms: N_6  and  C_7
REMARK    5  A    between atoms: C_11  and  C_12
REMARK    6  A    between atoms: C_12  and  C_13
REMARK    7  A    between atoms: C_12  and  C_14
REMARK    8  A    between atoms: C_12  and  C_15
REMARK    9  A    between atoms: C_15  and  N_16
REMARK   10  A    between atoms: N_16  and  C_17
REMARK   11  A    between atoms: C_20  and  C_21
REMARK                            x       y       z     vdW  Elec       q    Type
REMARK                         _______ _______ _______ _____ _____    ______ ____
ROOT
ATOM      1  C   UNL     1      49.073   9.673  12.343  0.00  0.00    +0.000 C 
ATOM      2  C   UNL     1      49.669   8.585  11.414  0.00  0.00    +0.000 C 
ATOM      3  C   UNL     1      49.757  11.029  12.034  0.00  0.00    +0.000 C 
ENDROOT
BRANCH   1   8
ATOM      4  C   UNL     1      45.334   8.723  12.067  0.00  0.00    +0.000 A 
ATOM      5  C   UNL     1      44.763   9.975  11.850  0.00  0.00    +0.000 A 
ATOM      6  C   UNL     1      45.554  11.104  11.707  0.00  0.00    +0.000 A 
ATOM      7  C   UNL     1      46.939  11.012  11.830  0.00  0.00    +0.000 A 
ATOM      8  C   UNL     1      47.554   9.773  12.088  0.00  0.00    +0.000 A 
ATOM      9  C   UNL     1      46.724   8.635  12.133  0.00  0.00    +0.000 A 
BRANCH   4  10
ATOM     10  N   UNL     1      44.552   7.566  12.253  0.00  0.00    +0.000 N 
ATOM     11  H   UNL     1      43.740   7.762  12.840  0.00  0.00    +0.000 HD
BRANCH  10  16
ATOM     12  C   UNL     1      45.665   3.287  12.501  0.00  0.00    +0.000 C 
ATOM     13  C   UNL     1      44.558   4.221  12.014  0.00  0.00    +0.000 C 
ATOM     14  C   UNL     1      43.417   3.454  11.353  0.00  0.00    +0.000 C 
ATOM     15  C   UNL     1      45.078   5.408  11.162  0.00  0.00    +0.000 C 
ATOM     16  C   UNL     1      45.110   6.262  12.456  0.00  0.00    +0.000 C 
ATOM     17  C   UNL     1      44.089   5.277  13.059  0.00  0.00    +0.000 C 
ENDBRANCH  10  16
ENDBRANCH   4  10
ENDBRANCH   1   8
BRANCH   1  18
ATOM     18  C   UNL     1      49.401   9.258  13.812  0.00  0.00    +0.000 C 
BRANCH  18  19
ATOM     19  N   UNL     1      49.888   7.891  13.944  0.00  0.00    +0.000 N 
ATOM     20  H   UNL     1      50.776   7.638  13.516  0.00  0.00    +0.000 HD
BRANCH  19  21
ATOM     21  C   UNL     1      49.300   6.969  14.793  0.00  0.00    +0.000 A 
ATOM     22  C   UNL     1      49.724   6.774  16.114  0.00  0.00    +0.000 A 
ATOM     23  C   UNL     1      49.062   5.867  16.951  0.00  0.00    +0.000 A 
ATOM     24  C   UNL     1      47.969   5.140  16.484  0.00  0.00    +0.000 A 
ATOM     25  C   UNL     1      47.545   5.312  15.163  0.00  0.00    +0.000 A 
ATOM     26  C   UNL     1      48.217   6.224  14.330  0.00  0.00    +0.000 A 
BRANCH  24  27
ATOM     27  C   UNL     1      47.312   4.181  17.423  0.00  0.00    +0.000 C 
ATOM     28  N   UNL     1      47.532   4.357  18.766  0.00  0.00    +0.000 N 
ATOM     29  O   UNL     1      46.624   3.258  17.019  0.00  0.00    +0.000 OA
ATOM     30  H   UNL     1      48.059   5.097  19.176  0.00  0.00    +0.000 HD
ATOM     31  H   UNL     1      47.064   3.691  19.385  0.00  0.00    +0.000 HD
ENDBRANCH  24  27
ENDBRANCH  19  21
ENDBRANCH  18  19
ENDBRANCH   1  18
TORSDOF 7
ENDMDL
MODEL 8
REMARK VINA RESULT:    -6.196      3.978      7.774
REMARK INTER + INTRA:          -9.995
REMARK INTER:                  -9.045
REMARK INTRA:                  -0.950
REMARK UNBOUND:                -1.263
REMARK  Name = 
REMARK  11 active torsions:
REMARK  status: ('A' for Active; 'I' for Inactive)
REMARK    1  A    between atoms: C_1  and  C_2
REMARK    2  A    between atoms: C_2  and  C_3
REMARK    3  A    between atoms: C_5  and  N_6
REMARK    4  A    between atoms: N_6  and  C_7
REMARK    5  A    between atoms: C_11  and  C_12
REMARK    6  A    between atoms: C_12  and  C_13
REMARK    7  A    between atoms: C_12  and  C_14
REMARK    8  A    between atoms: C_12  and  C_15
REMARK    9  A    between atoms: C_15  and  N_16
REMARK   10  A    between atoms: N_16  and  C_17
REMARK   11  A    between atoms: C_20  and  C_21
REMARK                            x       y       z     vdW  Elec       q    Type
REMARK                         _______ _______ _______ _____ _____    ______ ____
ROOT
ATOM      1  C   UNL     1      46.759   6.858  12.670  0.00  0.00    +0.000 C 
ATOM      2  C   UNL     1      46.311   8.211  13.280  0.00  0.00    +0.000 C 
ATOM      3  C   UNL     1      47.356   5.972  13.792  0.00  0.00    +0.000 C 
ENDROOT
BRANCH   1   8
ATOM      4  C   UNL     1      44.522   4.946  10.161  0.00  0.00    +0.000 A 
ATOM      5  C   UNL     1      43.400   4.697  10.949  0.00  0.00    +0.000 A 
ATOM      6  C   UNL     1      43.309   5.199  12.237  0.00  0.00    +0.000 A 
ATOM      7  C   UNL     1      44.367   5.922  12.787  0.00  0.00    +0.000 A 
ATOM      8  C   UNL     1      45.534   6.162  12.039  0.00  0.00    +0.000 A 
ATOM      9  C   UNL     1      45.550   5.717  10.701  0.00  0.00    +0.000 A 
BRANCH   4  10
ATOM     10  N   UNL     1      44.656   4.416   8.862  0.00  0.00    +0.000 N 
ATOM     11  H   UNL     1      43.743   4.278   8.426  0.00  0.00    +0.000 HD
BRANCH  10  16
ATOM     12  C   UNL     1      47.596   1.619   7.090  0.00  0.00    +0.000 C 
ATOM     13  C   UNL     1      46.648   2.763   6.731  0.00  0.00    +0.000 C 
ATOM     14  C   UNL     1      46.718   3.115   5.248  0.00  0.00    +0.000 C 
ATOM     15  C   UNL     1      46.780   3.994   7.664  0.00  0.00    +0.000 C 
ATOM     16  C   UNL     1      45.619   3.415   8.515  0.00  0.00    +0.000 C 
ATOM     17  C   UNL     1      45.197   2.602   7.275  0.00  0.00    +0.000 C 
ENDBRANCH  10  16
ENDBRANCH   4  10
ENDBRANCH   1   8
BRANCH   1  18
ATOM     18  C   UNL     1      47.871   7.170  11.619  0.00  0.00    +0.000 C 
BRANCH  18  19
ATOM     19  N   UNL     1      48.609   8.397  11.888  0.00  0.00    +0.000 N 
ATOM     20  H   UNL     1      48.236   9.061  12.563  0.00  0.00    +0.000 HD
BRANCH  19  21
ATOM     21  C   UNL     1      49.895   8.610  11.422  0.00  0.00    +0.000 A 
ATOM     22  C   UNL     1      50.739   7.569  11.016  0.00  0.00    +0.000 A 
ATOM     23  C   UNL     1      52.014   7.839  10.502  0.00  0.00    +0.000 A 
ATOM     24  C   UNL     1      52.466   9.153  10.385  0.00  0.00    +0.000 A 
ATOM     25  C   UNL     1      51.640  10.202  10.801  0.00  0.00    +0.000 A 
ATOM     26  C   UNL     1      50.364   9.919  11.319  0.00  0.00    +0.000 A 
BRANCH  24  27
ATOM     27  C   UNL     1      53.838   9.375   9.837  0.00  0.00    +0.000 C 
ATOM     28  N   UNL     1      54.661   8.283   9.723  0.00  0.00    +0.000 N 
ATOM     29  O   UNL     1      54.230  10.488   9.524  0.00  0.00    +0.000 OA
ATOM     30  H   UNL     1      54.409   7.342   9.934  0.00  0.00    +0.000 HD
ATOM     31  H   UNL     1      55.591   8.464   9.339  0.00  0.00    +0.000 HD
ENDBRANCH  24  27
ENDBRANCH  19  21
ENDBRANCH  18  19
ENDBRANCH   1  18
TORSDOF 7
ENDMDL
MODEL 9
REMARK VINA RESULT:    -6.075      2.949      4.900
REMARK INTER + INTRA:          -9.825
REMARK INTER:                  -8.799
REMARK INTRA:                  -1.026
REMARK UNBOUND:                -1.263
REMARK  Name = 
REMARK  11 active torsions:
REMARK  status: ('A' for Active; 'I' for Inactive)
REMARK    1  A    between atoms: C_1  and  C_2
REMARK    2  A    between atoms: C_2  and  C_3
REMARK    3  A    between atoms: C_5  and  N_6
REMARK    4  A    between atoms: N_6  and  C_7
REMARK    5  A    between atoms: C_11  and  C_12
REMARK    6  A    between atoms: C_12  and  C_13
REMARK    7  A    between atoms: C_12  and  C_14
REMARK    8  A    between atoms: C_12  and  C_15
REMARK    9  A    between atoms: C_15  and  N_16
REMARK   10  A    between atoms: N_16  and  C_17
REMARK   11  A    between atoms: C_20  and  C_21
REMARK                            x       y       z     vdW  Elec       q    Type
REMARK                         _______ _______ _______ _____ _____    ______ ____
ROOT
ATOM      1  C   UNL     1      48.543   8.174  12.912  0.00  0.00    +0.000 C 
ATOM      2  C   UNL     1      49.462   9.191  12.187  0.00  0.00    +0.000 C 
ATOM      3  C   UNL     1      49.001   6.737  12.555  0.00  0.00    +0.000 C 
ENDROOT
BRANCH   1   8
ATOM      4  C   UNL     1      49.069   7.519  16.687  0.00  0.00    +0.000 A 
ATOM      5  C   UNL     1      49.059   8.822  17.181  0.00  0.00    +0.000 A 
ATOM      6  C   UNL     1      48.805   9.898  16.346  0.00  0.00    +0.000 A 
ATOM      7  C   UNL     1      48.605   9.698  14.981  0.00  0.00    +0.000 A 
ATOM      8  C   UNL     1      48.645   8.402  14.434  0.00  0.00    +0.000 A 
ATOM      9  C   UNL     1      48.812   7.326  15.330  0.00  0.00    +0.000 A 
BRANCH   4  10
ATOM     10  N   UNL     1      49.361   6.410  17.506  0.00  0.00    +0.000 N 
ATOM     11  H   UNL     1      50.332   6.116  17.392  0.00  0.00    +0.000 HD
BRANCH  10  16
ATOM     12  C   UNL     1      47.078   2.630  17.827  0.00  0.00    +0.000 C 
ATOM     13  C   UNL     1      48.375   3.214  17.268  0.00  0.00    +0.000 C 
ATOM     14  C   UNL     1      49.230   2.152  16.586  0.00  0.00    +0.000 C 
ATOM     15  C   UNL     1      49.161   4.073  18.293  0.00  0.00    +0.000 C 
ATOM     16  C   UNL     1      48.450   5.326  17.718  0.00  0.00    +0.000 C 
ATOM     17  C   UNL     1      48.196   4.516  16.431  0.00  0.00    +0.000 C 
ENDBRANCH  10  16
ENDBRANCH   4  10
ENDBRANCH   1   8
BRANCH   1  18
ATOM     18  C   UNL     1      47.093   8.397  12.375  0.00  0.00    +0.000 C 
BRANCH  18  19
ATOM     19  N   UNL     1      46.079   7.623  13.078  0.00  0.00    +0.000 N 
ATOM     20  H   UNL     1      45.606   8.037  13.878  0.00  0.00    +0.000 HD
BRANCH  19  21
ATOM     21  C   UNL     1      45.581   6.427  12.588  0.00  0.00    +0.000 A 
ATOM     22  C   UNL     1      45.274   5.337  13.413  0.00  0.00    +0.000 A 
ATOM     23  C   UNL     1      44.723   4.166  12.876  0.00  0.00    +0.000 A 
ATOM     24  C   UNL     1      44.470   4.065  11.510  0.00  0.00    +0.000 A 
ATOM     25  C   UNL     1      44.786   5.139  10.672  0.00  0.00    +0.000 A 
ATOM     26  C   UNL     1      45.342   6.309  11.220  0.00  0.00    +0.000 A 
BRANCH  24  27
ATOM     27  C   UNL     1      43.890   2.787  10.997  0.00  0.00    +0.000 C 
ATOM     28  N   UNL     1      44.414   2.271   9.839  0.00  0.00    +0.000 N 
ATOM     29  O   UNL     1      42.966   2.229  11.568  0.00  0.00    +0.000 OA
ATOM     30  H   UNL     1      45.180   2.652   9.329  0.00  0.00    +0.000 HD
ATOM     31  H   UNL     1      44.002   1.392   9.516  0.00  0.00    +0.000 HD
ENDBRANCH  24  27
ENDBRANCH  19  21
ENDBRANCH  18  19
ENDBRANCH   1  18
TORSDOF 7
ENDMDL
