MODEL 1
REMARK VINA RESULT:    -9.244      0.000      0.000
REMARK INTER + INTRA:         -13.124
REMARK INTER:                 -12.487
REMARK INTRA:                  -0.637
REMARK UNBOUND:                -0.637
REMARK  Name = 
REMARK  10 active torsions:
REMARK  status: ('A' for Active; 'I' for Inactive)
REMARK    1  A    between atoms: C_1  and  C_2
REMARK    2  A    between atoms: N_4  and  C_5
REMARK    3  A    between atoms: C_7  and  C_8
REMARK    4  A    between atoms: C_8  and  C_9
REMARK    5  A    between atoms: C_9  and  C_10
REMARK    6  A    between atoms: C_9  and  C_11
REMARK    7  A    between atoms: C_9  and  C_12
REMARK    8  A    between atoms: C_12  and  N_13
REMARK    9  A    between atoms: C_17  and  C_18
REMARK   10  A    between atoms: C_28  and  C_29
REMARK                            x       y       z     vdW  Elec       q    Type
REMARK                         _______ _______ _______ _____ _____    ______ ____
ROOT
ATOM      1  C   UNL     1      44.143   5.344  11.976  0.00  0.00    +0.000 C 
ATOM      2  C   UNL     1      43.330   5.435  13.283  0.00  0.00    +0.000 C 
ATOM      3  C   UNL     1      44.491   6.752  11.449  0.00  0.00    +0.000 C 
ENDROOT
BRANCH   1   4
ATOM      4  C   UNL     1      45.452   4.520  12.210  0.00  0.00    +0.000 C 
BRANCH   4   7
ATOM      5  C   UNL     1      47.557   5.055  15.400  0.00  0.00    +0.000 A 
ATOM      6  C   UNL     1      46.627   4.553  14.468  0.00  0.00    +0.000 A 
ATOM      7  C   UNL     1      46.461   5.106  13.183  0.00  0.00    +0.000 A 
ATOM      8  C   UNL     1      47.248   6.207  12.826  0.00  0.00    +0.000 A 
ATOM      9  C   UNL     1      48.175   6.732  13.726  0.00  0.00    +0.000 A 
ATOM     10  C   UNL     1      48.316   6.162  14.993  0.00  0.00    +0.000 A 
ATOM     11  F   UNL     1      49.240   6.695  15.810  0.00  0.00    +0.000 F 
BRANCH   5  15
ATOM     12  C   UNL     1      50.373   3.347  17.450  0.00  0.00    +0.000 C 
ATOM     13  C   UNL     1      48.995   2.915  17.957  0.00  0.00    +0.000 C 
ATOM     14  C   UNL     1      47.914   3.060  16.859  0.00  0.00    +0.000 C 
ATOM     15  N   UNL     1      47.652   4.489  16.653  0.00  0.00    +0.000 N 
ATOM     16  C   UNL     1      47.237   5.191  17.872  0.00  0.00    +0.000 C 
ATOM     17  C   UNL     1      48.329   5.011  18.946  0.00  0.00    +0.000 C 
ATOM     18  C   UNL     1      47.881   5.607  20.273  0.00  0.00    +0.000 C 
ATOM     19  O   UNL     1      48.634   3.618  19.168  0.00  0.00    +0.000 OA
ENDBRANCH   5  15
ENDBRANCH   4   7
ENDBRANCH   1   4
BRANCH   1  20
ATOM     20  C   UNL     1      43.272   4.606  10.905  0.00  0.00    +0.000 C 
BRANCH  20  21
ATOM     21  N   UNL     1      43.815   4.800   9.569  0.00  0.00    +0.000 N 
ATOM     22  C   UNL     1      44.704   3.925   8.990  0.00  0.00    +0.000 A 
ATOM     23  C   UNL     1      44.727   2.547   9.200  0.00  0.00    +0.000 A 
ATOM     24  N   UNL     1      45.576   1.694   8.572  0.00  0.00    +0.000 NA
ATOM     25  C   UNL     1      46.411   2.291   7.675  0.00  0.00    +0.000 A 
ATOM     26  C   UNL     1      46.397   3.654   7.442  0.00  0.00    +0.000 A 
ATOM     27  N   UNL     1      45.548   4.493   8.099  0.00  0.00    +0.000 NA
ATOM     28  H   UNL     1      44.127   5.738   9.330  0.00  0.00    +0.000 HD
BRANCH  25  29
ATOM     29  C   UNL     1      47.356   1.415   6.936  0.00  0.00    +0.000 C 
ATOM     30  N   UNL     1      48.533   2.003   6.558  0.00  0.00    +0.000 N 
ATOM     31  O   UNL     1      47.102   0.245   6.677  0.00  0.00    +0.000 OA
ATOM     32  H   UNL     1      48.711   2.973   6.794  0.00  0.00    +0.000 HD
ATOM     33  H   UNL     1      49.222   1.465   6.054  0.00  0.00    +0.000 HD
ENDBRANCH  25  29
ENDBRANCH  20  21
ENDBRANCH   1  20
TORSDOF 6
ENDMDL
MODEL 2
REMARK VINA RESULT:    -7.864      2.629      4.184
REMARK INTER + INTRA:         -11.259
REMARK INTER:                 -10.668
REMARK INTRA:                  -0.591
REMARK UNBOUND:                -0.637
REMARK  Name = 
REMARK  10 active torsions:
REMARK  status: ('A' for Active; 'I' for Inactive)
REMARK    1  A    between atoms: C_1  and  C_2
REMARK    2  A    between atoms: N_4  and  C_5
REMARK    3  A    between atoms: C_7  and  C_8
REMARK    4  A    between atoms: C_8  and  C_9
REMARK    5  A    between atoms: C_9  and  C_10
REMARK    6  A    between atoms: C_9  and  C_11
REMARK    7  A    between atoms: C_9  and  C_12
REMARK    8  A    between atoms: C_12  and  N_13
REMARK    9  A    between atoms: C_17  and  C_18
REMARK   10  A    between atoms: C_28  and  C_29
REMARK                            x       y       z     vdW  Elec       q    Type
REMARK                         _______ _______ _______ _____ _____    ______ ____
ROOT
ATOM      1  C   UNL     1      43.979   4.845  12.218  0.00  0.00    +0.000 C 
ATOM      2  C   UNL     1      43.442   4.131  13.475  0.00  0.00    +0.000 C 
ATOM      3  C   UNL     1      43.788   6.372  12.333  0.00  0.00    +0.000 C 
ENDROOT
BRANCH   1   4
ATOM      4  C   UNL     1      45.492   4.508  12.010  0.00  0.00    +0.000 C 
BRANCH   4   7
ATOM      5  C   UNL     1      48.146   6.899  13.473  0.00  0.00    +0.000 A 
ATOM      6  C   UNL     1      47.233   6.268  12.604  0.00  0.00    +0.000 A 
ATOM      7  C   UNL     1      46.472   5.145  12.982  0.00  0.00    +0.000 A 
ATOM      8  C   UNL     1      46.641   4.631  14.273  0.00  0.00    +0.000 A 
ATOM      9  C   UNL     1      47.539   5.227  15.157  0.00  0.00    +0.000 A 
ATOM     10  C   UNL     1      48.279   6.341  14.753  0.00  0.00    +0.000 A 
ATOM     11  F   UNL     1      49.113   6.888  15.653  0.00  0.00    +0.000 F 
BRANCH   5  15
ATOM     12  C   UNL     1      49.355  10.235  15.040  0.00  0.00    +0.000 C 
ATOM     13  C   UNL     1      49.314  10.337  13.514  0.00  0.00    +0.000 C 
ATOM     14  C   UNL     1      48.315   9.325  12.902  0.00  0.00    +0.000 C 
ATOM     15  N   UNL     1      48.883   7.978  13.034  0.00  0.00    +0.000 N 
ATOM     16  C   UNL     1      50.202   7.833  12.408  0.00  0.00    +0.000 C 
ATOM     17  C   UNL     1      51.163   8.867  13.029  0.00  0.00    +0.000 C 
ATOM     18  C   UNL     1      52.507   8.847  12.316  0.00  0.00    +0.000 C 
ATOM     19  O   UNL     1      50.634  10.207  12.940  0.00  0.00    +0.000 OA
ENDBRANCH   5  15
ENDBRANCH   4   7
ENDBRANCH   1   4
BRANCH   1  20
ATOM     20  C   UNL     1      43.177   4.329  10.978  0.00  0.00    +0.000 C 
BRANCH  20  21
ATOM     21  N   UNL     1      43.810   4.748   9.736  0.00  0.00    +0.000 N 
ATOM     22  C   UNL     1      44.735   3.977   9.072  0.00  0.00    +0.000 A 
ATOM     23  C   UNL     1      44.741   2.583   9.035  0.00  0.00    +0.000 A 
ATOM     24  N   UNL     1      45.630   1.843   8.324  0.00  0.00    +0.000 NA
ATOM     25  C   UNL     1      46.525   2.578   7.605  0.00  0.00    +0.000 A 
ATOM     26  C   UNL     1      46.529   3.961   7.617  0.00  0.00    +0.000 A 
ATOM     27  N   UNL     1      45.640   4.682   8.355  0.00  0.00    +0.000 NA
ATOM     28  H   UNL     1      44.140   5.709   9.689  0.00  0.00    +0.000 HD
BRANCH  25  29
ATOM     29  C   UNL     1      47.517   1.833   6.788  0.00  0.00    +0.000 C 
ATOM     30  N   UNL     1      48.609   2.553   6.384  0.00  0.00    +0.000 N 
ATOM     31  O   UNL     1      47.370   0.654   6.489  0.00  0.00    +0.000 OA
ATOM     32  H   UNL     1      48.699   3.527   6.653  0.00  0.00    +0.000 HD
ATOM     33  H   UNL     1      49.323   2.110   5.827  0.00  0.00    +0.000 HD
ENDBRANCH  25  29
ENDBRANCH  20  21
ENDBRANCH   1  20
TORSDOF 6
ENDMDL
MODEL 3
REMARK VINA RESULT:    -7.367      3.021      8.023
REMARK INTER + INTRA:         -10.587
REMARK INTER:                  -9.348
REMARK INTRA:                  -1.239
REMARK UNBOUND:                -0.637
REMARK  Name = 
REMARK  10 active torsions:
REMARK  status: ('A' for Active; 'I' for Inactive)
REMARK    1  A    between atoms: C_1  and  C_2
REMARK    2  A    between atoms: N_4  and  C_5
REMARK    3  A    between atoms: C_7  and  C_8
REMARK    4  A    between atoms: C_8  and  C_9
REMARK    5  A    between atoms: C_9  and  C_10
REMARK    6  A    between atoms: C_9  and  C_11
REMARK    7  A    between atoms: C_9  and  C_12
REMARK    8  A    between atoms: C_12  and  N_13
REMARK    9  A    between atoms: C_17  and  C_18
REMARK   10  A    between atoms: C_28  and  C_29
REMARK                            x       y       z     vdW  Elec       q    Type
REMARK                         _______ _______ _______ _____ _____    ______ ____
ROOT
ATOM      1  C   UNL     1      49.330   9.943  14.009  0.00  0.00    +0.000 C 
ATOM      2  C   UNL     1      50.734   9.548  14.511  0.00  0.00    +0.000 C 
ATOM      3  C   UNL     1      49.172  11.478  13.978  0.00  0.00    +0.000 C 
ENDROOT
BRANCH   1   4
ATOM      4  C   UNL     1      49.080   9.350  12.583  0.00  0.00    +0.000 C 
BRANCH   4   7
ATOM      5  C   UNL     1      45.944   7.274  11.714  0.00  0.00    +0.000 A 
ATOM      6  C   UNL     1      47.264   7.653  12.028  0.00  0.00    +0.000 A 
ATOM      7  C   UNL     1      47.644   8.994  12.236  0.00  0.00    +0.000 A 
ATOM      8  C   UNL     1      46.667   9.988  12.114  0.00  0.00    +0.000 A 
ATOM      9  C   UNL     1      45.352   9.649  11.800  0.00  0.00    +0.000 A 
ATOM     10  C   UNL     1      45.006   8.311  11.600  0.00  0.00    +0.000 A 
ATOM     11  F   UNL     1      43.720   8.039  11.321  0.00  0.00    +0.000 F 
BRANCH   5  15
ATOM     12  C   UNL     1      43.003   4.924  12.648  0.00  0.00    +0.000 C 
ATOM     13  C   UNL     1      44.271   4.117  12.360  0.00  0.00    +0.000 C 
ATOM     14  C   UNL     1      45.547   4.965  12.580  0.00  0.00    +0.000 C 
ATOM     15  N   UNL     1      45.641   5.948  11.494  0.00  0.00    +0.000 N 
ATOM     16  C   UNL     1      45.654   5.345  10.156  0.00  0.00    +0.000 C 
ATOM     17  C   UNL     1      44.379   4.496   9.981  0.00  0.00    +0.000 C 
ATOM     18  C   UNL     1      44.413   3.741   8.660  0.00  0.00    +0.000 C 
ATOM     19  O   UNL     1      44.234   3.527  11.041  0.00  0.00    +0.000 OA
ENDBRANCH   5  15
ENDBRANCH   4   7
ENDBRANCH   1   4
BRANCH   1  20
ATOM     20  C   UNL     1      48.270   9.347  14.992  0.00  0.00    +0.000 C 
BRANCH  20  21
ATOM     21  N   UNL     1      48.904   8.498  15.990  0.00  0.00    +0.000 N 
ATOM     22  C   UNL     1      48.623   7.158  16.119  0.00  0.00    +0.000 A 
ATOM     23  C   UNL     1      48.285   6.304  15.069  0.00  0.00    +0.000 A 
ATOM     24  N   UNL     1      48.069   4.971  15.211  0.00  0.00    +0.000 NA
ATOM     25  C   UNL     1      48.235   4.506  16.482  0.00  0.00    +0.000 A 
ATOM     26  C   UNL     1      48.581   5.334  17.534  0.00  0.00    +0.000 A 
ATOM     27  N   UNL     1      48.774   6.672  17.371  0.00  0.00    +0.000 NA
ATOM     28  H   UNL     1      48.983   8.874  16.931  0.00  0.00    +0.000 HD
BRANCH  25  29
ATOM     29  C   UNL     1      48.032   3.052  16.708  0.00  0.00    +0.000 C 
ATOM     30  N   UNL     1      47.072   2.726  17.626  0.00  0.00    +0.000 N 
ATOM     31  O   UNL     1      48.682   2.198  16.116  0.00  0.00    +0.000 OA
ATOM     32  H   UNL     1      46.550   3.460  18.094  0.00  0.00    +0.000 HD
ATOM     33  H   UNL     1      46.880   1.756  17.828  0.00  0.00    +0.000 HD
ENDBRANCH  25  29
ENDBRANCH  20  21
ENDBRANCH   1  20
TORSDOF 6
ENDMDL
MODEL 4
REMARK VINA RESULT:    -7.278      2.692      4.228
REMARK INTER + INTRA:         -10.467
REMARK INTER:                  -9.479
REMARK INTRA:                  -0.989
REMARK UNBOUND:                -0.637
REMARK  Name = 
REMARK  10 active torsions:
REMARK  status: ('A' for Active; 'I' for Inactive)
REMARK    1  A    between atoms: C_1  and  C_2
REMARK    2  A    between atoms: N_4  and  C_5
REMARK    3  A    between atoms: C_7  and  C_8
REMARK    4  A    between atoms: C_8  and  C_9
REMARK    5  A    between atoms: C_9  and  C_10
REMARK    6  A    between atoms: C_9  and  C_11
REMARK    7  A    between atoms: C_9  and  C_12
REMARK    8  A    between atoms: C_12  and  N_13
REMARK    9  A    between atoms: C_17  and  C_18
REMARK   10  A    between atoms: C_28  and  C_29
REMARK                            x       y       z     vdW  Elec       q    Type
REMARK                         _______ _______ _______ _____ _____    ______ ____
ROOT
ATOM      1  C   UNL     1      48.033   9.024  12.552  0.00  0.00    +0.000 C 
ATOM      2  C   UNL     1      48.480  10.232  11.704  0.00  0.00    +0.000 C 
ATOM      3  C   UNL     1      48.802   7.751  12.137  0.00  0.00    +0.000 C 
ENDROOT
BRANCH   1   4
ATOM      4  C   UNL     1      48.258   9.316  14.071  0.00  0.00    +0.000 C 
BRANCH   4   7
ATOM      5  C   UNL     1      49.368   6.412  16.360  0.00  0.00    +0.000 A 
ATOM      6  C   UNL     1      48.586   7.343  15.648  0.00  0.00    +0.000 A 
ATOM      7  C   UNL     1      49.147   8.342  14.828  0.00  0.00    +0.000 A 
ATOM      8  C   UNL     1      50.541   8.415  14.728  0.00  0.00    +0.000 A 
ATOM      9  C   UNL     1      51.345   7.513  15.423  0.00  0.00    +0.000 A 
ATOM     10  C   UNL     1      50.759   6.533  16.228  0.00  0.00    +0.000 A 
ATOM     11  F   UNL     1      51.581   5.677  16.857  0.00  0.00    +0.000 F 
BRANCH   5  15
ATOM     12  C   UNL     1      49.857   2.626  17.049  0.00  0.00    +0.000 C 
ATOM     13  C   UNL     1      48.438   3.065  17.417  0.00  0.00    +0.000 C 
ATOM     14  C   UNL     1      48.014   4.332  16.635  0.00  0.00    +0.000 C 
ATOM     15  N   UNL     1      48.760   5.477  17.169  0.00  0.00    +0.000 N 
ATOM     16  C   UNL     1      48.571   5.680  18.610  0.00  0.00    +0.000 C 
ATOM     17  C   UNL     1      48.987   4.394  19.352  0.00  0.00    +0.000 C 
ATOM     18  C   UNL     1      48.680   4.508  20.839  0.00  0.00    +0.000 C 
ATOM     19  O   UNL     1      48.291   3.236  18.844  0.00  0.00    +0.000 OA
ENDBRANCH   5  15
ENDBRANCH   4   7
ENDBRANCH   1   4
BRANCH   1  20
ATOM     20  C   UNL     1      46.505   8.790  12.308  0.00  0.00    +0.000 C 
BRANCH  20  21
ATOM     21  N   UNL     1      46.024   7.651  13.075  0.00  0.00    +0.000 N 
ATOM     22  C   UNL     1      45.467   6.538  12.490  0.00  0.00    +0.000 A 
ATOM     23  C   UNL     1      45.827   6.019  11.247  0.00  0.00    +0.000 A 
ATOM     24  N   UNL     1      45.305   4.884  10.714  0.00  0.00    +0.000 NA
ATOM     25  C   UNL     1      44.398   4.254  11.513  0.00  0.00    +0.000 A 
ATOM     26  C   UNL     1      44.036   4.744  12.754  0.00  0.00    +0.000 A 
ATOM     27  N   UNL     1      44.559   5.896  13.259  0.00  0.00    +0.000 NA
ATOM     28  H   UNL     1      45.472   7.854  13.905  0.00  0.00    +0.000 HD
BRANCH  25  29
ATOM     29  C   UNL     1      43.799   2.994  11.002  0.00  0.00    +0.000 C 
ATOM     30  N   UNL     1      44.199   2.616   9.749  0.00  0.00    +0.000 N 
ATOM     31  O   UNL     1      42.997   2.337  11.654  0.00  0.00    +0.000 OA
ATOM     32  H   UNL     1      44.869   3.184   9.240  0.00  0.00    +0.000 HD
ATOM     33  H   UNL     1      43.833   1.769   9.340  0.00  0.00    +0.000 HD
ENDBRANCH  25  29
ENDBRANCH  20  21
ENDBRANCH   1  20
TORSDOF 6
ENDMDL
MODEL 5
REMARK VINA RESULT:    -7.132      2.745      4.469
REMARK INTER + INTRA:         -10.270
REMARK INTER:                  -9.334
REMARK INTRA:                  -0.936
REMARK UNBOUND:                -0.637
REMARK  Name = 
REMARK  10 active torsions:
REMARK  status: ('A' for Active; 'I' for Inactive)
REMARK    1  A    between atoms: C_1  and  C_2
REMARK    2  A    between atoms: N_4  and  C_5
REMARK    3  A    between atoms: C_7  and  C_8
REMARK    4  A    between atoms: C_8  and  C_9
REMARK    5  A    between atoms: C_9  and  C_10
REMARK    6  A    between atoms: C_9  and  C_11
REMARK    7  A    between atoms: C_9  and  C_12
REMARK    8  A    between atoms: C_12  and  N_13
REMARK    9  A    between atoms: C_17  and  C_18
REMARK   10  A    between atoms: C_28  and  C_29
REMARK                            x       y       z     vdW  Elec       q    Type
REMARK                         _______ _______ _______ _____ _____    ______ ____
ROOT
ATOM      1  C   UNL     1      48.428   8.331  13.046  0.00  0.00    +0.000 C 
ATOM      2  C   UNL     1      48.275   9.324  11.876  0.00  0.00    +0.000 C 
ATOM      3  C   UNL     1      49.096   7.024  12.569  0.00  0.00    +0.000 C 
ENDROOT
BRANCH   1   4
ATOM      4  C   UNL     1      49.271   8.976  14.195  0.00  0.00    +0.000 C 
BRANCH   4   7
ATOM      5  C   UNL     1      48.644   6.877  17.374  0.00  0.00    +0.000 A 
ATOM      6  C   UNL     1      48.981   7.270  16.063  0.00  0.00    +0.000 A 
ATOM      7  C   UNL     1      48.884   8.602  15.617  0.00  0.00    +0.000 A 
ATOM      8  C   UNL     1      48.421   9.572  16.514  0.00  0.00    +0.000 A 
ATOM      9  C   UNL     1      48.074   9.218  17.817  0.00  0.00    +0.000 A 
ATOM     10  C   UNL     1      48.182   7.888  18.230  0.00  0.00    +0.000 A 
ATOM     11  F   UNL     1      47.855   7.607  19.502  0.00  0.00    +0.000 F 
BRANCH   5  15
ATOM     12  C   UNL     1      47.445   3.510  15.868  0.00  0.00    +0.000 C 
ATOM     13  C   UNL     1      47.676   3.378  17.375  0.00  0.00    +0.000 C 
ATOM     14  C   UNL     1      47.559   4.745  18.091  0.00  0.00    +0.000 C 
ATOM     15  N   UNL     1      48.734   5.552  17.742  0.00  0.00    +0.000 N 
ATOM     16  C   UNL     1      50.009   4.909  18.078  0.00  0.00    +0.000 C 
ATOM     17  C   UNL     1      50.082   3.545  17.362  0.00  0.00    +0.000 C 
ATOM     18  C   UNL     1      51.327   2.780  17.790  0.00  0.00    +0.000 C 
ATOM     19  O   UNL     1      48.933   2.724  17.662  0.00  0.00    +0.000 OA
ENDBRANCH   5  15
ENDBRANCH   4   7
ENDBRANCH   1   4
BRANCH   1  20
ATOM     20  C   UNL     1      47.003   7.997  13.598  0.00  0.00    +0.000 C 
BRANCH  20  21
ATOM     21  N   UNL     1      46.068   7.753  12.509  0.00  0.00    +0.000 N 
ATOM     22  C   UNL     1      45.591   6.500  12.201  0.00  0.00    +0.000 A 
ATOM     23  C   UNL     1      45.357   5.480  13.123  0.00  0.00    +0.000 A 
ATOM     24  N   UNL     1      44.830   4.271  12.804  0.00  0.00    +0.000 NA
ATOM     25  C   UNL     1      44.511   4.126  11.487  0.00  0.00    +0.000 A 
ATOM     26  C   UNL     1      44.722   5.129  10.558  0.00  0.00    +0.000 A 
ATOM     27  N   UNL     1      45.271   6.328  10.899  0.00  0.00    +0.000 NA
ATOM     28  H   UNL     1      46.255   8.222  11.627  0.00  0.00    +0.000 HD
BRANCH  25  29
ATOM     29  C   UNL     1      43.912   2.833  11.068  0.00  0.00    +0.000 C 
ATOM     30  N   UNL     1      44.490   2.239   9.980  0.00  0.00    +0.000 N 
ATOM     31  O   UNL     1      42.960   2.329  11.655  0.00  0.00    +0.000 OA
ATOM     32  H   UNL     1      45.279   2.684   9.522  0.00  0.00    +0.000 HD
ATOM     33  H   UNL     1      44.134   1.358   9.642  0.00  0.00    +0.000 HD
ENDBRANCH  25  29
ENDBRANCH  20  21
ENDBRANCH   1  20
TORSDOF 6
ENDMDL
MODEL 6
REMARK VINA RESULT:    -7.091      3.512      6.329
REMARK INTER + INTRA:         -10.215
REMARK INTER:                  -8.760
REMARK INTRA:                  -1.454
REMARK UNBOUND:                -0.637
REMARK  Name = 
REMARK  10 active torsions:
REMARK  status: ('A' for Active; 'I' for Inactive)
REMARK    1  A    between atoms: C_1  and  C_2
REMARK    2  A    between atoms: N_4  and  C_5
REMARK    3  A    between atoms: C_7  and  C_8
REMARK    4  A    between atoms: C_8  and  C_9
REMARK    5  A    between atoms: C_9  and  C_10
REMARK    6  A    between atoms: C_9  and  C_11
REMARK    7  A    between atoms: C_9  and  C_12
REMARK    8  A    between atoms: C_12  and  N_13
REMARK    9  A    between atoms: C_17  and  C_18
REMARK   10  A    between atoms: C_28  and  C_29
REMARK                            x       y       z     vdW  Elec       q    Type
REMARK                         _______ _______ _______ _____ _____    ______ ____
ROOT
ATOM      1  C   UNL     1      48.622   3.492  17.123  0.00  0.00    +0.000 C 
ATOM      2  C   UNL     1      49.087   2.170  16.478  0.00  0.00    +0.000 C 
ATOM      3  C   UNL     1      48.257   3.277  18.608  0.00  0.00    +0.000 C 
ENDROOT
BRANCH   1   4
ATOM      4  C   UNL     1      49.741   4.577  16.998  0.00  0.00    +0.000 C 
BRANCH   4   7
ATOM      5  C   UNL     1      48.647   8.061  15.748  0.00  0.00    +0.000 A 
ATOM      6  C   UNL     1      49.077   6.720  15.794  0.00  0.00    +0.000 A 
ATOM      7  C   UNL     1      49.288   6.028  17.002  0.00  0.00    +0.000 A 
ATOM      8  C   UNL     1      49.069   6.708  18.206  0.00  0.00    +0.000 A 
ATOM      9  C   UNL     1      48.648   8.037  18.197  0.00  0.00    +0.000 A 
ATOM     10  C   UNL     1      48.447   8.697  16.982  0.00  0.00    +0.000 A 
ATOM     11  F   UNL     1      48.020   9.970  17.033  0.00  0.00    +0.000 F 
BRANCH   5  15
ATOM     12  C   UNL     1      49.855   7.411  12.120  0.00  0.00    +0.000 C 
ATOM     13  C   UNL     1      49.501   8.887  12.317  0.00  0.00    +0.000 C 
ATOM     14  C   UNL     1      49.604   9.303  13.804  0.00  0.00    +0.000 C 
ATOM     15  N   UNL     1      48.486   8.693  14.534  0.00  0.00    +0.000 N 
ATOM     16  C   UNL     1      47.169   9.049  13.995  0.00  0.00    +0.000 C 
ATOM     17  C   UNL     1      47.110   8.636  12.510  0.00  0.00    +0.000 C 
ATOM     18  C   UNL     1      45.812   9.109  11.872  0.00  0.00    +0.000 C 
ATOM     19  O   UNL     1      48.205   9.198  11.757  0.00  0.00    +0.000 OA
ENDBRANCH   5  15
ENDBRANCH   4   7
ENDBRANCH   1   4
BRANCH   1  20
ATOM     20  C   UNL     1      47.352   3.992  16.359  0.00  0.00    +0.000 C 
BRANCH  20  21
ATOM     21  N   UNL     1      47.304   3.442  15.012  0.00  0.00    +0.000 N 
ATOM     22  C   UNL     1      46.447   3.911  14.044  0.00  0.00    +0.000 A 
ATOM     23  C   UNL     1      46.024   5.234  13.917  0.00  0.00    +0.000 A 
ATOM     24  N   UNL     1      45.223   5.685  12.919  0.00  0.00    +0.000 NA
ATOM     25  C   UNL     1      44.872   4.735  12.006  0.00  0.00    +0.000 A 
ATOM     26  C   UNL     1      45.290   3.421  12.106  0.00  0.00    +0.000 A 
ATOM     27  N   UNL     1      46.078   2.986  13.129  0.00  0.00    +0.000 NA
ATOM     28  H   UNL     1      47.319   2.429  14.927  0.00  0.00    +0.000 HD
BRANCH  25  29
ATOM     29  C   UNL     1      44.011   5.163  10.874  0.00  0.00    +0.000 C 
ATOM     30  N   UNL     1      43.408   6.383  11.018  0.00  0.00    +0.000 N 
ATOM     31  O   UNL     1      43.846   4.470   9.876  0.00  0.00    +0.000 OA
ATOM     32  H   UNL     1      43.571   6.931  11.856  0.00  0.00    +0.000 HD
ATOM     33  H   UNL     1      42.811   6.736  10.286  0.00  0.00    +0.000 HD
ENDBRANCH  25  29
ENDBRANCH  20  21
ENDBRANCH   1  20
TORSDOF 6
ENDMDL
MODEL 7
REMARK VINA RESULT:    -6.886      3.286      8.760
REMARK INTER + INTRA:          -9.939
REMARK INTER:                  -9.305
REMARK INTRA:                  -0.634
REMARK UNBOUND:                -0.637
REMARK  Name = 
REMARK  10 active torsions:
REMARK  status: ('A' for Active; 'I' for Inactive)
REMARK    1  A    between atoms: C_1  and  C_2
REMARK    2  A    between atoms: N_4  and  C_5
REMARK    3  A    between atoms: C_7  and  C_8
REMARK    4  A    between atoms: C_8  and  C_9
REMARK    5  A    between atoms: C_9  and  C_10
REMARK    6  A    between atoms: C_9  and  C_11
REMARK    7  A    between atoms: C_9  and  C_12
REMARK    8  A    between atoms: C_12  and  N_13
REMARK    9  A    between atoms: C_17  and  C_18
REMARK   10  A    between atoms: C_28  and  C_29
REMARK                            x       y       z     vdW  Elec       q    Type
REMARK                         _______ _______ _______ _____ _____    ______ ____
ROOT
ATOM      1  C   UNL     1      49.510   8.237  15.291  0.00  0.00    +0.000 C 
ATOM      2  C   UNL     1      50.114   9.619  14.968  0.00  0.00    +0.000 C 
ATOM      3  C   UNL     1      48.171   8.387  16.043  0.00  0.00    +0.000 C 
ENDROOT
BRANCH   1   4
ATOM      4  C   UNL     1      49.297   7.420  13.974  0.00  0.00    +0.000 C 
BRANCH   4   7
ATOM      5  C   UNL     1      45.967   6.560  12.223  0.00  0.00    +0.000 A 
ATOM      6  C   UNL     1      47.219   6.458  12.861  0.00  0.00    +0.000 A 
ATOM      7  C   UNL     1      47.955   7.584  13.280  0.00  0.00    +0.000 A 
ATOM      8  C   UNL     1      47.420   8.855  13.042  0.00  0.00    +0.000 A 
ATOM      9  C   UNL     1      46.186   8.992  12.408  0.00  0.00    +0.000 A 
ATOM     10  C   UNL     1      45.479   7.857  12.004  0.00  0.00    +0.000 A 
ATOM     11  F   UNL     1      44.285   8.047  11.419  0.00  0.00    +0.000 F 
BRANCH   5  15
ATOM     12  C   UNL     1      42.254   5.511  11.823  0.00  0.00    +0.000 C 
ATOM     13  C   UNL     1      43.151   4.281  11.970  0.00  0.00    +0.000 C 
ATOM     14  C   UNL     1      44.468   4.622  12.709  0.00  0.00    +0.000 C 
ATOM     15  N   UNL     1      45.309   5.421  11.810  0.00  0.00    +0.000 N 
ATOM     16  C   UNL     1      45.598   4.759  10.534  0.00  0.00    +0.000 C 
ATOM     17  C   UNL     1      44.265   4.420   9.836  0.00  0.00    +0.000 C 
ATOM     18  C   UNL     1      44.512   3.609   8.572  0.00  0.00    +0.000 C 
ATOM     19  O   UNL     1      43.396   3.650  10.693  0.00  0.00    +0.000 OA
ENDBRANCH   5  15
ENDBRANCH   4   7
ENDBRANCH   1   4
BRANCH   1  20
ATOM     20  C   UNL     1      50.517   7.462  16.204  0.00  0.00    +0.000 C 
BRANCH  20  21
ATOM     21  N   UNL     1      49.883   6.298  16.806  0.00  0.00    +0.000 N 
ATOM     22  C   UNL     1      50.566   5.138  17.087  0.00  0.00    +0.000 A 
ATOM     23  C   UNL     1      51.906   5.066  17.468  0.00  0.00    +0.000 A 
ATOM     24  N   UNL     1      52.544   3.914  17.798  0.00  0.00    +0.000 NA
ATOM     25  C   UNL     1      51.756   2.803  17.757  0.00  0.00    +0.000 A 
ATOM     26  C   UNL     1      50.422   2.853  17.393  0.00  0.00    +0.000 A 
ATOM     27  N   UNL     1      49.808   4.018  17.047  0.00  0.00    +0.000 NA
ATOM     28  H   UNL     1      48.977   6.024  16.435  0.00  0.00    +0.000 HD
BRANCH  25  29
ATOM     29  C   UNL     1      52.383   1.508  18.124  0.00  0.00    +0.000 C 
ATOM     30  N   UNL     1      51.589   0.403  17.974  0.00  0.00    +0.000 N 
ATOM     31  O   UNL     1      53.534   1.429  18.538  0.00  0.00    +0.000 OA
ATOM     32  H   UNL     1      50.642   0.506  17.625  0.00  0.00    +0.000 HD
ATOM     33  H   UNL     1      51.952  -0.510  18.203  0.00  0.00    +0.000 HD
ENDBRANCH  25  29
ENDBRANCH  20  21
ENDBRANCH   1  20
TORSDOF 6
ENDMDL
MODEL 8
REMARK VINA RESULT:    -6.695      3.034      4.855
REMARK INTER + INTRA:          -9.680
REMARK INTER:                  -8.784
REMARK INTRA:                  -0.896
REMARK UNBOUND:                -0.637
REMARK  Name = 
REMARK  10 active torsions:
REMARK  status: ('A' for Active; 'I' for Inactive)
REMARK    1  A    between atoms: C_1  and  C_2
REMARK    2  A    between atoms: N_4  and  C_5
REMARK    3  A    between atoms: C_7  and  C_8
REMARK    4  A    between atoms: C_8  and  C_9
REMARK    5  A    between atoms: C_9  and  C_10
REMARK    6  A    between atoms: C_9  and  C_11
REMARK    7  A    between atoms: C_9  and  C_12
REMARK    8  A    between atoms: C_12  and  N_13
REMARK    9  A    between atoms: C_17  and  C_18
REMARK   10  A    between atoms: C_28  and  C_29
REMARK                            x       y       z     vdW  Elec       q    Type
REMARK                         _______ _______ _______ _____ _____    ______ ____
ROOT
ATOM      1  C   UNL     1      49.865   8.516  12.314  0.00  0.00    +0.000 C 
ATOM      2  C   UNL     1      48.925   9.615  11.779  0.00  0.00    +0.000 C 
ATOM      3  C   UNL     1      50.935   8.152  11.263  0.00  0.00    +0.000 C 
ENDROOT
BRANCH   1   4
ATOM      4  C   UNL     1      50.552   8.990  13.637  0.00  0.00    +0.000 C 
BRANCH   4   7
ATOM      5  C   UNL     1      49.142   7.302  16.810  0.00  0.00    +0.000 A 
ATOM      6  C   UNL     1      49.837   7.545  15.608  0.00  0.00    +0.000 A 
ATOM      7  C   UNL     1      49.773   8.774  14.924  0.00  0.00    +0.000 A 
ATOM      8  C   UNL     1      48.975   9.792  15.459  0.00  0.00    +0.000 A 
ATOM      9  C   UNL     1      48.269   9.585  16.644  0.00  0.00    +0.000 A 
ATOM     10  C   UNL     1      48.354   8.354  17.299  0.00  0.00    +0.000 A 
ATOM     11  F   UNL     1      47.671   8.217  18.448  0.00  0.00    +0.000 F 
BRANCH   5  15
ATOM     12  C   UNL     1      48.451   5.927  20.370  0.00  0.00    +0.000 C 
ATOM     13  C   UNL     1      49.416   5.011  19.613  0.00  0.00    +0.000 C 
ATOM     14  C   UNL     1      50.170   5.776  18.499  0.00  0.00    +0.000 C 
ATOM     15  N   UNL     1      49.223   6.067  17.416  0.00  0.00    +0.000 N 
ATOM     16  C   UNL     1      48.575   4.872  16.865  0.00  0.00    +0.000 C 
ATOM     17  C   UNL     1      47.850   4.129  18.005  0.00  0.00    +0.000 C 
ATOM     18  C   UNL     1      47.278   2.809  17.508  0.00  0.00    +0.000 C 
ATOM     19  O   UNL     1      48.741   3.839  19.103  0.00  0.00    +0.000 OA
ENDBRANCH   5  15
ENDBRANCH   4   7
ENDBRANCH   1   4
BRANCH   1  20
ATOM     20  C   UNL     1      49.009   7.244  12.623  0.00  0.00    +0.000 C 
BRANCH  20  21
ATOM     21  N   UNL     1      47.678   7.359  12.044  0.00  0.00    +0.000 N 
ATOM     22  C   UNL     1      46.793   6.307  11.990  0.00  0.00    +0.000 A 
ATOM     23  C   UNL     1      46.696   5.290  12.939  0.00  0.00    +0.000 A 
ATOM     24  N   UNL     1      45.775   4.293  12.896  0.00  0.00    +0.000 NA
ATOM     25  C   UNL     1      44.911   4.371  11.845  0.00  0.00    +0.000 A 
ATOM     26  C   UNL     1      44.982   5.378  10.900  0.00  0.00    +0.000 A 
ATOM     27  N   UNL     1      45.927   6.357  10.953  0.00  0.00    +0.000 NA
ATOM     28  H   UNL     1      47.602   7.853  11.159  0.00  0.00    +0.000 HD
BRANCH  25  29
ATOM     29  C   UNL     1      43.863   3.323  11.745  0.00  0.00    +0.000 C 
ATOM     30  N   UNL     1      43.834   2.417  12.770  0.00  0.00    +0.000 N 
ATOM     31  O   UNL     1      43.078   3.267  10.806  0.00  0.00    +0.000 OA
ATOM     32  H   UNL     1      44.497   2.497  13.534  0.00  0.00    +0.000 HD
ATOM     33  H   UNL     1      43.147   1.679  12.767  0.00  0.00    +0.000 HD
ENDBRANCH  25  29
ENDBRANCH  20  21
ENDBRANCH   1  20
TORSDOF 6
ENDMDL
