MODEL 1
REMARK VINA RESULT:    -7.949      0.000      0.000
REMARK INTER + INTRA:         -11.706
REMARK INTER:                 -10.737
REMARK INTRA:                  -0.969
REMARK UNBOUND:                -0.969
REMARK  Name = 
REMARK  7 active torsions:
REMARK  status: ('A' for Active; 'I' for Inactive)
REMARK    1  A    between atoms: C_1  and  O_2
REMARK    2  A    between atoms: O_2  and  C_3
REMARK    3  A    between atoms: C_8  and  C_9
REMARK    4  A    between atoms: C_9  and  C_10
REMARK    5  A    between atoms: C_13  and  C_14
REMARK    6  A    between atoms: C_14  and  N_15
REMARK    7  A    between atoms: C_16  and  C_18
REMARK                            x       y       z     vdW  Elec       q    Type
REMARK                         _______ _______ _______ _____ _____    ______ ____
ROOT
ATOM      1  C   UNL     1      47.578   8.508  13.839  0.00  0.00    +0.000 C 
ENDROOT
BRANCH   1   5
ATOM      2  C   UNL     1      45.041   6.420  11.114  0.00  0.00    +0.000 A 
ATOM      3  C   UNL     1      46.327   5.930  11.334  0.00  0.00    +0.000 A 
ATOM      4  C   UNL     1      47.182   6.622  12.195  0.00  0.00    +0.000 A 
ATOM      5  C   UNL     1      46.744   7.792  12.818  0.00  0.00    +0.000 A 
ATOM      6  C   UNL     1      45.478   8.251  12.473  0.00  0.00    +0.000 A 
ATOM      7  N   UNL     1      44.622   7.595  11.652  0.00  0.00    +0.000 NA
BRANCH   2   8
ATOM      8  C   UNL     1      44.020   5.588  10.366  0.00  0.00    +0.000 C 
BRANCH   8  14
ATOM      9  C   UNL     1      44.153   3.057  10.016  0.00  0.00    +0.000 A 
ATOM     10  C   UNL     1      44.666   1.962   9.308  0.00  0.00    +0.000 A 
ATOM     11  C   UNL     1      45.570   2.150   8.260  0.00  0.00    +0.000 A 
ATOM     12  C   UNL     1      45.966   3.434   7.906  0.00  0.00    +0.000 A 
ATOM     13  C   UNL     1      45.464   4.530   8.604  0.00  0.00    +0.000 A 
ATOM     14  C   UNL     1      44.552   4.360   9.662  0.00  0.00    +0.000 A 
BRANCH   9  16
ATOM     15  C   UNL     1      43.748   2.915  12.356  0.00  0.00    +0.000 C 
ATOM     16  O   UNL     1      43.233   2.954  11.029  0.00  0.00    +0.000 OA
ENDBRANCH   9  16
ENDBRANCH   8  14
ENDBRANCH   2   8
ENDBRANCH   1   5
BRANCH   1  17
ATOM     17  N   UNL     1      47.873   7.691  14.987  0.00  0.00    +0.000 N 
ATOM     18  C   UNL     1      49.118   7.128  15.146  0.00  0.00    +0.000 C 
ATOM     19  O   UNL     1      50.035   7.353  14.358  0.00  0.00    +0.000 OA
ATOM     20  H   UNL     1      47.085   7.311  15.505  0.00  0.00    +0.000 HD
BRANCH  18  21
ATOM     21  C   UNL     1      49.310   6.277  16.323  0.00  0.00    +0.000 A 
ATOM     22  C   UNL     1      50.328   6.569  17.222  0.00  0.00    +0.000 A 
ATOM     23  S   UNL     1      50.385   5.514  18.563  0.00  0.00    +0.000 S 
ATOM     24  C   UNL     1      49.086   4.594  17.960  0.00  0.00    +0.000 A 
ATOM     25  N   UNL     1      48.634   3.500  18.629  0.00  0.00    +0.000 NA
ATOM     26  C   UNL     1      47.669   2.876  18.040  0.00  0.00    +0.000 A 
ATOM     27  N   UNL     1      47.111   3.250  16.845  0.00  0.00    +0.000 N 
ATOM     28  C   UNL     1      47.516   4.365  16.150  0.00  0.00    +0.000 A 
ATOM     29  O   UNL     1      46.967   4.701  15.105  0.00  0.00    +0.000 OA
ATOM     30  C   UNL     1      48.606   5.097  16.763  0.00  0.00    +0.000 A 
ATOM     31  H   UNL     1      46.351   2.722  16.441  0.00  0.00    +0.000 HD
ENDBRANCH  18  21
ENDBRANCH   1  17
TORSDOF 6
ENDMDL
MODEL 2
REMARK VINA RESULT:    -7.021      3.139      7.354
REMARK INTER + INTRA:         -10.452
REMARK INTER:                  -9.284
REMARK INTRA:                  -1.168
REMARK UNBOUND:                -0.969
REMARK  Name = 
REMARK  7 active torsions:
REMARK  status: ('A' for Active; 'I' for Inactive)
REMARK    1  A    between atoms: C_1  and  O_2
REMARK    2  A    between atoms: O_2  and  C_3
REMARK    3  A    between atoms: C_8  and  C_9
REMARK    4  A    between atoms: C_9  and  C_10
REMARK    5  A    between atoms: C_13  and  C_14
REMARK    6  A    between atoms: C_14  and  N_15
REMARK    7  A    between atoms: C_16  and  C_18
REMARK                            x       y       z     vdW  Elec       q    Type
REMARK                         _______ _______ _______ _____ _____    ______ ____
ROOT
ATOM      1  C   UNL     1      47.891   8.793  14.048  0.00  0.00    +0.000 C 
ENDROOT
BRANCH   1   5
ATOM      2  C   UNL     1      49.792   6.741  17.271  0.00  0.00    +0.000 A 
ATOM      3  C   UNL     1      48.969   7.825  17.567  0.00  0.00    +0.000 A 
ATOM      4  C   UNL     1      48.368   8.531  16.522  0.00  0.00    +0.000 A 
ATOM      5  C   UNL     1      48.601   8.146  15.200  0.00  0.00    +0.000 A 
ATOM      6  C   UNL     1      49.503   7.108  14.997  0.00  0.00    +0.000 A 
ATOM      7  N   UNL     1      50.090   6.398  15.991  0.00  0.00    +0.000 NA
BRANCH   2   8
ATOM      8  C   UNL     1      50.282   5.825  18.375  0.00  0.00    +0.000 C 
BRANCH   8  14
ATOM      9  C   UNL     1      49.372   3.521  17.735  0.00  0.00    +0.000 A 
ATOM     10  C   UNL     1      49.608   2.189  17.370  0.00  0.00    +0.000 A 
ATOM     11  C   UNL     1      50.911   1.698  17.270  0.00  0.00    +0.000 A 
ATOM     12  C   UNL     1      51.992   2.532  17.530  0.00  0.00    +0.000 A 
ATOM     13  C   UNL     1      51.768   3.858  17.895  0.00  0.00    +0.000 A 
ATOM     14  C   UNL     1      50.462   4.371  17.999  0.00  0.00    +0.000 A 
BRANCH   9  16
ATOM     15  C   UNL     1      47.262   3.886  16.700  0.00  0.00    +0.000 C 
ATOM     16  O   UNL     1      48.123   4.086  17.815  0.00  0.00    +0.000 OA
ENDBRANCH   9  16
ENDBRANCH   8  14
ENDBRANCH   2   8
ENDBRANCH   1   5
BRANCH   1  17
ATOM     17  N   UNL     1      46.723   8.061  13.634  0.00  0.00    +0.000 N 
ATOM     18  C   UNL     1      46.754   7.265  12.513  0.00  0.00    +0.000 C 
ATOM     19  O   UNL     1      47.787   7.097  11.868  0.00  0.00    +0.000 OA
ATOM     20  H   UNL     1      45.826   8.364  14.004  0.00  0.00    +0.000 HD
BRANCH  18  21
ATOM     21  C   UNL     1      45.505   6.593  12.148  0.00  0.00    +0.000 A 
ATOM     22  C   UNL     1      44.458   7.332  11.611  0.00  0.00    +0.000 A 
ATOM     23  S   UNL     1      43.096   6.392  11.193  0.00  0.00    +0.000 S 
ATOM     24  C   UNL     1      43.834   4.971  11.768  0.00  0.00    +0.000 A 
ATOM     25  N   UNL     1      43.182   3.779  11.729  0.00  0.00    +0.000 NA
ATOM     26  C   UNL     1      43.845   2.791  12.231  0.00  0.00    +0.000 A 
ATOM     27  N   UNL     1      45.105   2.887  12.764  0.00  0.00    +0.000 N 
ATOM     28  C   UNL     1      45.813   4.064  12.797  0.00  0.00    +0.000 A 
ATOM     29  O   UNL     1      46.957   4.110  13.239  0.00  0.00    +0.000 OA
ATOM     30  C   UNL     1      45.108   5.209  12.254  0.00  0.00    +0.000 A 
ATOM     31  H   UNL     1      45.573   2.072  13.135  0.00  0.00    +0.000 HD
ENDBRANCH  18  21
ENDBRANCH   1  17
TORSDOF 6
ENDMDL
MODEL 3
REMARK VINA RESULT:    -6.970      3.013      7.899
REMARK INTER + INTRA:         -10.383
REMARK INTER:                  -9.304
REMARK INTRA:                  -1.080
REMARK UNBOUND:                -0.969
REMARK  Name = 
REMARK  7 active torsions:
REMARK  status: ('A' for Active; 'I' for Inactive)
REMARK    1  A    between atoms: C_1  and  O_2
REMARK    2  A    between atoms: O_2  and  C_3
REMARK    3  A    between atoms: C_8  and  C_9
REMARK    4  A    between atoms: C_9  and  C_10
REMARK    5  A    between atoms: C_13  and  C_14
REMARK    6  A    between atoms: C_14  and  N_15
REMARK    7  A    between atoms: C_16  and  C_18
REMARK                            x       y       z     vdW  Elec       q    Type
REMARK                         _______ _______ _______ _____ _____    ______ ____
ROOT
ATOM      1  C   UNL     1      47.243   7.880  11.861  0.00  0.00    +0.000 C 
ENDROOT
BRANCH   1   5
ATOM      2  C   UNL     1      49.156   7.624  15.667  0.00  0.00    +0.000 A 
ATOM      3  C   UNL     1      48.434   8.776  15.363  0.00  0.00    +0.000 A 
ATOM      4  C   UNL     1      47.833   8.892  14.108  0.00  0.00    +0.000 A 
ATOM      5  C   UNL     1      47.964   7.860  13.177  0.00  0.00    +0.000 A 
ATOM      6  C   UNL     1      48.772   6.788  13.536  0.00  0.00    +0.000 A 
ATOM      7  N   UNL     1      49.357   6.642  14.750  0.00  0.00    +0.000 NA
BRANCH   2   8
ATOM      8  C   UNL     1      49.635   7.369  17.082  0.00  0.00    +0.000 C 
BRANCH   8  14
ATOM      9  C   UNL     1      49.389   4.892  17.673  0.00  0.00    +0.000 A 
ATOM     10  C   UNL     1      49.978   3.639  17.890  0.00  0.00    +0.000 A 
ATOM     11  C   UNL     1      51.362   3.476  17.797  0.00  0.00    +0.000 A 
ATOM     12  C   UNL     1      52.171   4.561  17.482  0.00  0.00    +0.000 A 
ATOM     13  C   UNL     1      51.597   5.812  17.265  0.00  0.00    +0.000 A 
ATOM     14  C   UNL     1      50.204   5.995  17.353  0.00  0.00    +0.000 A 
BRANCH   9  16
ATOM     15  C   UNL     1      47.209   4.145  17.086  0.00  0.00    +0.000 C 
ATOM     16  O   UNL     1      48.037   5.121  17.708  0.00  0.00    +0.000 OA
ENDBRANCH   9  16
ENDBRANCH   8  14
ENDBRANCH   2   8
ENDBRANCH   1   5
BRANCH   1  17
ATOM     17  N   UNL     1      46.626   6.618  11.546  0.00  0.00    +0.000 N 
ATOM     18  C   UNL     1      45.263   6.460  11.637  0.00  0.00    +0.000 C 
ATOM     19  O   UNL     1      44.521   7.399  11.923  0.00  0.00    +0.000 OA
ATOM     20  H   UNL     1      47.223   5.795  11.541  0.00  0.00    +0.000 HD
BRANCH  18  21
ATOM     21  C   UNL     1      44.733   5.128  11.339  0.00  0.00    +0.000 A 
ATOM     22  C   UNL     1      43.970   4.463  12.290  0.00  0.00    +0.000 A 
ATOM     23  S   UNL     1      43.386   2.947  11.767  0.00  0.00    +0.000 S 
ATOM     24  C   UNL     1      44.181   3.099  10.269  0.00  0.00    +0.000 A 
ATOM     25  N   UNL     1      44.112   2.112   9.337  0.00  0.00    +0.000 NA
ATOM     26  C   UNL     1      44.791   2.343   8.264  0.00  0.00    +0.000 A 
ATOM     27  N   UNL     1      45.529   3.476   8.035  0.00  0.00    +0.000 N 
ATOM     28  C   UNL     1      45.603   4.512   8.936  0.00  0.00    +0.000 A 
ATOM     29  O   UNL     1      46.234   5.534   8.685  0.00  0.00    +0.000 OA
ATOM     30  C   UNL     1      44.865   4.297  10.165  0.00  0.00    +0.000 A 
ATOM     31  H   UNL     1      46.033   3.600   7.169  0.00  0.00    +0.000 HD
ENDBRANCH  18  21
ENDBRANCH   1  17
TORSDOF 6
ENDMDL
MODEL 4
REMARK VINA RESULT:    -6.805      2.266      2.482
REMARK INTER + INTRA:         -10.161
REMARK INTER:                  -9.082
REMARK INTRA:                  -1.080
REMARK UNBOUND:                -0.969
REMARK  Name = 
REMARK  7 active torsions:
REMARK  status: ('A' for Active; 'I' for Inactive)
REMARK    1  A    between atoms: C_1  and  O_2
REMARK    2  A    between atoms: O_2  and  C_3
REMARK    3  A    between atoms: C_8  and  C_9
REMARK    4  A    between atoms: C_9  and  C_10
REMARK    5  A    between atoms: C_13  and  C_14
REMARK    6  A    between atoms: C_14  and  N_15
REMARK    7  A    between atoms: C_16  and  C_18
REMARK                            x       y       z     vdW  Elec       q    Type
REMARK                         _______ _______ _______ _____ _____    ______ ____
ROOT
ATOM      1  C   UNL     1      48.249   7.654  14.054  0.00  0.00    +0.000 C 
ENDROOT
BRANCH   1   5
ATOM      2  C   UNL     1      45.034   6.300  11.595  0.00  0.00    +0.000 A 
ATOM      3  C   UNL     1      45.404   7.641  11.527  0.00  0.00    +0.000 A 
ATOM      4  C   UNL     1      46.429   8.109  12.352  0.00  0.00    +0.000 A 
ATOM      5  C   UNL     1      47.067   7.233  13.232  0.00  0.00    +0.000 A 
ATOM      6  C   UNL     1      46.575   5.934  13.293  0.00  0.00    +0.000 A 
ATOM      7  N   UNL     1      45.591   5.450  12.497  0.00  0.00    +0.000 NA
BRANCH   2   8
ATOM      8  C   UNL     1      44.085   5.712  10.571  0.00  0.00    +0.000 C 
BRANCH   8  14
ATOM      9  C   UNL     1      44.165   3.208  10.053  0.00  0.00    +0.000 A 
ATOM     10  C   UNL     1      44.665   2.150   9.281  0.00  0.00    +0.000 A 
ATOM     11  C   UNL     1      45.592   2.386   8.264  0.00  0.00    +0.000 A 
ATOM     12  C   UNL     1      46.025   3.681   8.003  0.00  0.00    +0.000 A 
ATOM     13  C   UNL     1      45.535   4.740   8.766  0.00  0.00    +0.000 A 
ATOM     14  C   UNL     1      44.600   4.521   9.794  0.00  0.00    +0.000 A 
BRANCH   9  16
ATOM     15  C   UNL     1      43.576   2.215  12.133  0.00  0.00    +0.000 C 
ATOM     16  O   UNL     1      43.225   3.059  11.042  0.00  0.00    +0.000 OA
ENDBRANCH   9  16
ENDBRANCH   8  14
ENDBRANCH   2   8
ENDBRANCH   1   5
BRANCH   1  17
ATOM     17  N   UNL     1      47.937   7.774  15.455  0.00  0.00    +0.000 N 
ATOM     18  C   UNL     1      48.669   8.605  16.269  0.00  0.00    +0.000 C 
ATOM     19  O   UNL     1      49.565   9.321  15.824  0.00  0.00    +0.000 OA
ATOM     20  H   UNL     1      47.375   7.037  15.872  0.00  0.00    +0.000 HD
BRANCH  18  21
ATOM     21  C   UNL     1      48.303   8.629  17.687  0.00  0.00    +0.000 A 
ATOM     22  C   UNL     1      48.183   9.846  18.345  0.00  0.00    +0.000 A 
ATOM     23  S   UNL     1      47.701   9.701  19.977  0.00  0.00    +0.000 S 
ATOM     24  C   UNL     1      47.692   8.002  19.877  0.00  0.00    +0.000 A 
ATOM     25  N   UNL     1      47.383   7.240  20.960  0.00  0.00    +0.000 NA
ATOM     26  C   UNL     1      47.450   5.967  20.753  0.00  0.00    +0.000 A 
ATOM     27  N   UNL     1      47.794   5.387  19.559  0.00  0.00    +0.000 N 
ATOM     28  C   UNL     1      48.084   6.118  18.431  0.00  0.00    +0.000 A 
ATOM     29  O   UNL     1      48.344   5.570  17.364  0.00  0.00    +0.000 OA
ATOM     30  C   UNL     1      48.034   7.555  18.613  0.00  0.00    +0.000 A 
ATOM     31  H   UNL     1      47.820   4.382  19.460  0.00  0.00    +0.000 HD
ENDBRANCH  18  21
ENDBRANCH   1  17
TORSDOF 6
ENDMDL
MODEL 5
REMARK VINA RESULT:    -6.678      1.508      2.396
REMARK INTER + INTRA:          -9.989
REMARK INTER:                  -8.574
REMARK INTRA:                  -1.415
REMARK UNBOUND:                -0.969
REMARK  Name = 
REMARK  7 active torsions:
REMARK  status: ('A' for Active; 'I' for Inactive)
REMARK    1  A    between atoms: C_1  and  O_2
REMARK    2  A    between atoms: O_2  and  C_3
REMARK    3  A    between atoms: C_8  and  C_9
REMARK    4  A    between atoms: C_9  and  C_10
REMARK    5  A    between atoms: C_13  and  C_14
REMARK    6  A    between atoms: C_14  and  N_15
REMARK    7  A    between atoms: C_16  and  C_18
REMARK                            x       y       z     vdW  Elec       q    Type
REMARK                         _______ _______ _______ _____ _____    ______ ____
ROOT
ATOM      1  C   UNL     1      49.280   8.569  13.938  0.00  0.00    +0.000 C 
ENDROOT
BRANCH   1   5
ATOM      2  C   UNL     1      45.845   7.409  11.684  0.00  0.00    +0.000 A 
ATOM      3  C   UNL     1      47.005   6.646  11.569  0.00  0.00    +0.000 A 
ATOM      4  C   UNL     1      48.149   7.033  12.270  0.00  0.00    +0.000 A 
ATOM      5  C   UNL     1      48.119   8.175  13.073  0.00  0.00    +0.000 A 
ATOM      6  C   UNL     1      46.946   8.921  13.061  0.00  0.00    +0.000 A 
ATOM      7  N   UNL     1      45.818   8.564  12.400  0.00  0.00    +0.000 NA
BRANCH   2   8
ATOM      8  C   UNL     1      44.534   6.905  11.117  0.00  0.00    +0.000 C 
BRANCH   8  14
ATOM      9  C   UNL     1      44.340   4.419  10.545  0.00  0.00    +0.000 A 
ATOM     10  C   UNL     1      44.004   3.114  10.931  0.00  0.00    +0.000 A 
ATOM     11  C   UNL     1      43.497   2.857  12.206  0.00  0.00    +0.000 A 
ATOM     12  C   UNL     1      43.325   3.897  13.110  0.00  0.00    +0.000 A 
ATOM     13  C   UNL     1      43.656   5.199  12.737  0.00  0.00    +0.000 A 
ATOM     14  C   UNL     1      44.169   5.477  11.457  0.00  0.00    +0.000 A 
BRANCH   9  16
ATOM     15  C   UNL     1      44.926   3.706   8.353  0.00  0.00    +0.000 C 
ATOM     16  O   UNL     1      44.880   4.744   9.325  0.00  0.00    +0.000 OA
ENDBRANCH   9  16
ENDBRANCH   8  14
ENDBRANCH   2   8
ENDBRANCH   1   5
BRANCH   1  17
ATOM     17  N   UNL     1      49.386   7.763  15.126  0.00  0.00    +0.000 N 
ATOM     18  C   UNL     1      48.767   8.146  16.292  0.00  0.00    +0.000 C 
ATOM     19  O   UNL     1      48.052   9.146  16.347  0.00  0.00    +0.000 OA
ATOM     20  H   UNL     1      50.141   7.084  15.163  0.00  0.00    +0.000 HD
BRANCH  18  21
ATOM     21  C   UNL     1      48.967   7.283  17.458  0.00  0.00    +0.000 A 
ATOM     22  C   UNL     1      49.481   7.821  18.632  0.00  0.00    +0.000 A 
ATOM     23  S   UNL     1      49.604   6.696  19.909  0.00  0.00    +0.000 S 
ATOM     24  C   UNL     1      49.029   5.434  18.922  0.00  0.00    +0.000 A 
ATOM     25  N   UNL     1      48.912   4.168  19.403  0.00  0.00    +0.000 NA
ATOM     26  C   UNL     1      48.498   3.304  18.537  0.00  0.00    +0.000 A 
ATOM     27  N   UNL     1      48.185   3.594  17.234  0.00  0.00    +0.000 N 
ATOM     28  C   UNL     1      48.260   4.864  16.713  0.00  0.00    +0.000 A 
ATOM     29  O   UNL     1      47.930   5.101  15.555  0.00  0.00    +0.000 OA
ATOM     30  C   UNL     1      48.730   5.871  17.643  0.00  0.00    +0.000 A 
ATOM     31  H   UNL     1      47.859   2.872  16.607  0.00  0.00    +0.000 HD
ENDBRANCH  18  21
ENDBRANCH   1  17
TORSDOF 6
ENDMDL
MODEL 6
REMARK VINA RESULT:    -6.665      3.523      8.199
REMARK INTER + INTRA:          -9.972
REMARK INTER:                  -9.069
REMARK INTRA:                  -0.903
REMARK UNBOUND:                -0.969
REMARK  Name = 
REMARK  7 active torsions:
REMARK  status: ('A' for Active; 'I' for Inactive)
REMARK    1  A    between atoms: C_1  and  O_2
REMARK    2  A    between atoms: O_2  and  C_3
REMARK    3  A    between atoms: C_8  and  C_9
REMARK    4  A    between atoms: C_9  and  C_10
REMARK    5  A    between atoms: C_13  and  C_14
REMARK    6  A    between atoms: C_14  and  N_15
REMARK    7  A    between atoms: C_16  and  C_18
REMARK                            x       y       z     vdW  Elec       q    Type
REMARK                         _______ _______ _______ _____ _____    ______ ____
ROOT
ATOM      1  C   UNL     1      48.330   8.175  14.347  0.00  0.00    +0.000 C 
ENDROOT
BRANCH   1   5
ATOM      2  C   UNL     1      50.386   5.700  17.151  0.00  0.00    +0.000 A 
ATOM      3  C   UNL     1      51.134   6.564  16.354  0.00  0.00    +0.000 A 
ATOM      4  C   UNL     1      50.481   7.354  15.406  0.00  0.00    +0.000 A 
ATOM      5  C   UNL     1      49.094   7.268  15.266  0.00  0.00    +0.000 A 
ATOM      6  C   UNL     1      48.442   6.318  16.043  0.00  0.00    +0.000 A 
ATOM      7  N   UNL     1      49.047   5.547  16.980  0.00  0.00    +0.000 NA
BRANCH   2   8
ATOM      8  C   UNL     1      51.027   4.994  18.329  0.00  0.00    +0.000 C 
BRANCH   8  14
ATOM      9  C   UNL     1      52.829   3.181  18.417  0.00  0.00    +0.000 A 
ATOM     10  C   UNL     1      53.225   1.858  18.170  0.00  0.00    +0.000 A 
ATOM     11  C   UNL     1      52.344   0.950  17.580  0.00  0.00    +0.000 A 
ATOM     12  C   UNL     1      51.059   1.350  17.235  0.00  0.00    +0.000 A 
ATOM     13  C   UNL     1      50.655   2.662  17.474  0.00  0.00    +0.000 A 
ATOM     14  C   UNL     1      51.529   3.591  18.069  0.00  0.00    +0.000 A 
BRANCH   9  16
ATOM     15  C   UNL     1      54.318   3.699  20.198  0.00  0.00    +0.000 C 
ATOM     16  O   UNL     1      53.623   4.118  19.028  0.00  0.00    +0.000 OA
ENDBRANCH   9  16
ENDBRANCH   8  14
ENDBRANCH   2   8
ENDBRANCH   1   5
BRANCH   1  17
ATOM     17  N   UNL     1      47.101   7.587  13.882  0.00  0.00    +0.000 N 
ATOM     18  C   UNL     1      47.021   7.027  12.629  0.00  0.00    +0.000 C 
ATOM     19  O   UNL     1      48.002   6.948  11.892  0.00  0.00    +0.000 OA
ATOM     20  H   UNL     1      46.246   7.848  14.367  0.00  0.00    +0.000 HD
BRANCH  18  21
ATOM     21  C   UNL     1      45.717   6.492  12.229  0.00  0.00    +0.000 A 
ATOM     22  C   UNL     1      44.759   7.344  11.696  0.00  0.00    +0.000 A 
ATOM     23  S   UNL     1      43.317   6.555  11.235  0.00  0.00    +0.000 S 
ATOM     24  C   UNL     1      43.901   5.054  11.784  0.00  0.00    +0.000 A 
ATOM     25  N   UNL     1      43.134   3.934  11.705  0.00  0.00    +0.000 NA
ATOM     26  C   UNL     1      43.687   2.874  12.191  0.00  0.00    +0.000 A 
ATOM     27  N   UNL     1      44.941   2.830  12.744  0.00  0.00    +0.000 N 
ATOM     28  C   UNL     1      45.762   3.930  12.818  0.00  0.00    +0.000 A 
ATOM     29  O   UNL     1      46.897   3.852  13.277  0.00  0.00    +0.000 OA
ATOM     30  C   UNL     1      45.184   5.152  12.294  0.00  0.00    +0.000 A 
ATOM     31  H   UNL     1      45.320   1.965  13.101  0.00  0.00    +0.000 HD
ENDBRANCH  18  21
ENDBRANCH   1  17
TORSDOF 6
ENDMDL
MODEL 7
REMARK VINA RESULT:    -6.368      3.056      5.342
REMARK INTER + INTRA:          -9.570
REMARK INTER:                  -8.496
REMARK INTRA:                  -1.074
REMARK UNBOUND:                -0.969
REMARK  Name = 
REMARK  7 active torsions:
REMARK  status: ('A' for Active; 'I' for Inactive)
REMARK    1  A    between atoms: C_1  and  O_2
REMARK    2  A    between atoms: O_2  and  C_3
REMARK    3  A    between atoms: C_8  and  C_9
REMARK    4  A    between atoms: C_9  and  C_10
REMARK    5  A    between atoms: C_13  and  C_14
REMARK    6  A    between atoms: C_14  and  N_15
REMARK    7  A    between atoms: C_16  and  C_18
REMARK                            x       y       z     vdW  Elec       q    Type
REMARK                         _______ _______ _______ _____ _____    ______ ____
ROOT
ATOM      1  C   UNL     1      47.677   3.489  17.111  0.00  0.00    +0.000 C 
ENDROOT
BRANCH   1   5
ATOM      2  C   UNL     1      47.428   5.907  13.603  0.00  0.00    +0.000 A 
ATOM      3  C   UNL     1      48.166   6.381  14.686  0.00  0.00    +0.000 A 
ATOM      4  C   UNL     1      48.227   5.619  15.855  0.00  0.00    +0.000 A 
ATOM      5  C   UNL     1      47.550   4.400  15.926  0.00  0.00    +0.000 A 
ATOM      6  C   UNL     1      46.771   4.049  14.830  0.00  0.00    +0.000 A 
ATOM      7  N   UNL     1      46.702   4.761  13.679  0.00  0.00    +0.000 NA
BRANCH   2   8
ATOM      8  C   UNL     1      47.515   6.594  12.255  0.00  0.00    +0.000 C 
BRANCH   8  14
ATOM      9  C   UNL     1      45.243   7.475  11.476  0.00  0.00    +0.000 A 
ATOM     10  C   UNL     1      44.362   8.550  11.298  0.00  0.00    +0.000 A 
ATOM     11  C   UNL     1      44.744   9.849  11.642  0.00  0.00    +0.000 A 
ATOM     12  C   UNL     1      46.006  10.086  12.172  0.00  0.00    +0.000 A 
ATOM     13  C   UNL     1      46.891   9.024  12.352  0.00  0.00    +0.000 A 
ATOM     14  C   UNL     1      46.523   7.709  12.013  0.00  0.00    +0.000 A 
BRANCH   9  16
ATOM     15  C   UNL     1      43.578   5.777  11.436  0.00  0.00    +0.000 C 
ATOM     16  O   UNL     1      44.926   6.169  11.200  0.00  0.00    +0.000 OA
ENDBRANCH   9  16
ENDBRANCH   8  14
ENDBRANCH   2   8
ENDBRANCH   1   5
BRANCH   1  17
ATOM     17  N   UNL     1      49.044   3.299  17.521  0.00  0.00    +0.000 N 
ATOM     18  C   UNL     1      49.843   2.373  16.892  0.00  0.00    +0.000 C 
ATOM     19  O   UNL     1      49.446   1.727  15.923  0.00  0.00    +0.000 OA
ATOM     20  H   UNL     1      49.307   3.640  18.441  0.00  0.00    +0.000 HD
BRANCH  18  21
ATOM     21  C   UNL     1      51.206   2.221  17.406  0.00  0.00    +0.000 A 
ATOM     22  C   UNL     1      51.725   0.949  17.613  0.00  0.00    +0.000 A 
ATOM     23  S   UNL     1      53.340   0.946  18.166  0.00  0.00    +0.000 S 
ATOM     24  C   UNL     1      53.385   2.647  18.203  0.00  0.00    +0.000 A 
ATOM     25  N   UNL     1      54.498   3.308  18.619  0.00  0.00    +0.000 NA
ATOM     26  C   UNL     1      54.381   4.594  18.632  0.00  0.00    +0.000 A 
ATOM     27  N   UNL     1      53.253   5.279  18.261  0.00  0.00    +0.000 N 
ATOM     28  C   UNL     1      52.116   4.654  17.807  0.00  0.00    +0.000 A 
ATOM     29  O   UNL     1      51.137   5.296  17.439  0.00  0.00    +0.000 OA
ATOM     30  C   UNL     1      52.191   3.207  17.783  0.00  0.00    +0.000 A 
ATOM     31  H   UNL     1      53.229   6.289  18.287  0.00  0.00    +0.000 HD
ENDBRANCH  18  21
ENDBRANCH   1  17
TORSDOF 6
ENDMDL
MODEL 8
REMARK VINA RESULT:    -6.313      3.481      8.600
REMARK INTER + INTRA:          -9.496
REMARK INTER:                  -8.425
REMARK INTRA:                  -1.071
REMARK UNBOUND:                -0.969
REMARK  Name = 
REMARK  7 active torsions:
REMARK  status: ('A' for Active; 'I' for Inactive)
REMARK    1  A    between atoms: C_1  and  O_2
REMARK    2  A    between atoms: O_2  and  C_3
REMARK    3  A    between atoms: C_8  and  C_9
REMARK    4  A    between atoms: C_9  and  C_10
REMARK    5  A    between atoms: C_13  and  C_14
REMARK    6  A    between atoms: C_14  and  N_15
REMARK    7  A    between atoms: C_16  and  C_18
REMARK                            x       y       z     vdW  Elec       q    Type
REMARK                         _______ _______ _______ _____ _____    ______ ____
ROOT
ATOM      1  C   UNL     1      45.417   6.623  11.843  0.00  0.00    +0.000 C 
ENDROOT
BRANCH   1   5
ATOM      2  C   UNL     1      48.521   7.132  14.729  0.00  0.00    +0.000 A 
ATOM      3  C   UNL     1      47.865   8.265  14.251  0.00  0.00    +0.000 A 
ATOM      4  C   UNL     1      46.873   8.119  13.280  0.00  0.00    +0.000 A 
ATOM      5  C   UNL     1      46.552   6.848  12.798  0.00  0.00    +0.000 A 
ATOM      6  C   UNL     1      47.316   5.787  13.269  0.00  0.00    +0.000 A 
ATOM      7  N   UNL     1      48.276   5.896  14.220  0.00  0.00    +0.000 NA
BRANCH   2   8
ATOM      8  C   UNL     1      49.441   7.226  15.929  0.00  0.00    +0.000 C 
BRANCH   8  14
ATOM      9  C   UNL     1      48.893   5.557  17.788  0.00  0.00    +0.000 A 
ATOM     10  C   UNL     1      48.328   5.290  19.043  0.00  0.00    +0.000 A 
ATOM     11  C   UNL     1      47.702   6.303  19.772  0.00  0.00    +0.000 A 
ATOM     12  C   UNL     1      47.638   7.593  19.259  0.00  0.00    +0.000 A 
ATOM     13  C   UNL     1      48.195   7.869  18.012  0.00  0.00    +0.000 A 
ATOM     14  C   UNL     1      48.831   6.862  17.264  0.00  0.00    +0.000 A 
BRANCH   9  16
ATOM     15  C   UNL     1      49.394   3.263  17.411  0.00  0.00    +0.000 C 
ATOM     16  O   UNL     1      49.558   4.625  17.032  0.00  0.00    +0.000 OA
ENDBRANCH   9  16
ENDBRANCH   8  14
ENDBRANCH   2   8
ENDBRANCH   1   5
BRANCH   1  17
ATOM     17  N   UNL     1      45.621   5.473  11.001  0.00  0.00    +0.000 N 
ATOM     18  C   UNL     1      44.551   4.807  10.451  0.00  0.00    +0.000 C 
ATOM     19  O   UNL     1      43.396   5.204  10.600  0.00  0.00    +0.000 OA
ATOM     20  H   UNL     1      46.521   5.005  11.060  0.00  0.00    +0.000 HD
BRANCH  18  21
ATOM     21  C   UNL     1      44.856   3.624   9.644  0.00  0.00    +0.000 A 
ATOM     22  C   UNL     1      44.234   2.416   9.933  0.00  0.00    +0.000 A 
ATOM     23  S   UNL     1      44.659   1.151   8.869  0.00  0.00    +0.000 S 
ATOM     24  C   UNL     1      45.733   2.159   8.017  0.00  0.00    +0.000 A 
ATOM     25  N   UNL     1      46.461   1.681   6.972  0.00  0.00    +0.000 NA
ATOM     26  C   UNL     1      47.261   2.543   6.441  0.00  0.00    +0.000 A 
ATOM     27  N   UNL     1      47.397   3.843   6.856  0.00  0.00    +0.000 N 
ATOM     28  C   UNL     1      46.661   4.377   7.888  0.00  0.00    +0.000 A 
ATOM     29  O   UNL     1      46.770   5.556   8.208  0.00  0.00    +0.000 OA
ATOM     30  C   UNL     1      45.752   3.445   8.527  0.00  0.00    +0.000 A 
ATOM     31  H   UNL     1      48.037   4.471   6.392  0.00  0.00    +0.000 HD
ENDBRANCH  18  21
ENDBRANCH   1  17
TORSDOF 6
ENDMDL
MODEL 9
REMARK VINA RESULT:    -6.140      4.827      7.971
REMARK INTER + INTRA:          -9.263
REMARK INTER:                  -8.485
REMARK INTRA:                  -0.778
REMARK UNBOUND:                -0.969
REMARK  Name = 
REMARK  7 active torsions:
REMARK  status: ('A' for Active; 'I' for Inactive)
REMARK    1  A    between atoms: C_1  and  O_2
REMARK    2  A    between atoms: O_2  and  C_3
REMARK    3  A    between atoms: C_8  and  C_9
REMARK    4  A    between atoms: C_9  and  C_10
REMARK    5  A    between atoms: C_13  and  C_14
REMARK    6  A    between atoms: C_14  and  N_15
REMARK    7  A    between atoms: C_16  and  C_18
REMARK                            x       y       z     vdW  Elec       q    Type
REMARK                         _______ _______ _______ _____ _____    ______ ____
ROOT
ATOM      1  C   UNL     1      46.836   8.223  12.624  0.00  0.00    +0.000 C 
ENDROOT
BRANCH   1   5
ATOM      2  C   UNL     1      50.900   8.679  11.402  0.00  0.00    +0.000 A 
ATOM      3  C   UNL     1      50.044   9.773  11.285  0.00  0.00    +0.000 A 
ATOM      4  C   UNL     1      48.702   9.630  11.645  0.00  0.00    +0.000 A 
ATOM      5  C   UNL     1      48.236   8.400  12.114  0.00  0.00    +0.000 A 
ATOM      6  C   UNL     1      49.140   7.344  12.116  0.00  0.00    +0.000 A 
ATOM      7  N   UNL     1      50.449   7.456  11.784  0.00  0.00    +0.000 NA
BRANCH   2   8
ATOM      8  C   UNL     1      52.395   8.853  11.229  0.00  0.00    +0.000 C 
BRANCH   8  14
ATOM      9  C   UNL     1      54.365   7.344  10.605  0.00  0.00    +0.000 A 
ATOM     10  C   UNL     1      54.934   6.398   9.742  0.00  0.00    +0.000 A 
ATOM     11  C   UNL     1      54.243   5.957   8.611  0.00  0.00    +0.000 A 
ATOM     12  C   UNL     1      52.975   6.452   8.334  0.00  0.00    +0.000 A 
ATOM     13  C   UNL     1      52.399   7.394   9.184  0.00  0.00    +0.000 A 
ATOM     14  C   UNL     1      53.080   7.849  10.328  0.00  0.00    +0.000 A 
BRANCH   9  16
ATOM     15  C   UNL     1      55.149   6.840  12.793  0.00  0.00    +0.000 C 
ATOM     16  O   UNL     1      54.965   7.795  11.754  0.00  0.00    +0.000 OA
ENDBRANCH   9  16
ENDBRANCH   8  14
ENDBRANCH   2   8
ENDBRANCH   1   5
BRANCH   1  17
ATOM     17  N   UNL     1      46.322   6.899  12.388  0.00  0.00    +0.000 N 
ATOM     18  C   UNL     1      45.165   6.712  11.670  0.00  0.00    +0.000 C 
ATOM     19  O   UNL     1      44.568   7.653  11.150  0.00  0.00    +0.000 OA
ATOM     20  H   UNL     1      46.660   6.153  12.991  0.00  0.00    +0.000 HD
BRANCH  18  21
ATOM     21  C   UNL     1      44.699   5.331  11.519  0.00  0.00    +0.000 A 
ATOM     22  C   UNL     1      44.031   4.713  12.568  0.00  0.00    +0.000 A 
ATOM     23  S   UNL     1      43.511   3.127  12.213  0.00  0.00    +0.000 S 
ATOM     24  C   UNL     1      44.211   3.188  10.663  0.00  0.00    +0.000 A 
ATOM     25  N   UNL     1      44.149   2.120   9.824  0.00  0.00    +0.000 NA
ATOM     26  C   UNL     1      44.753   2.291   8.696  0.00  0.00    +0.000 A 
ATOM     27  N   UNL     1      45.408   3.438   8.327  0.00  0.00    +0.000 N 
ATOM     28  C   UNL     1      45.470   4.553   9.130  0.00  0.00    +0.000 A 
ATOM     29  O   UNL     1      46.025   5.581   8.755  0.00  0.00    +0.000 OA
ATOM     30  C   UNL     1      44.816   4.408  10.415  0.00  0.00    +0.000 A 
ATOM     31  H   UNL     1      45.855   3.511   7.425  0.00  0.00    +0.000 HD
ENDBRANCH  18  21
ENDBRANCH   1  17
TORSDOF 6
ENDMDL
