MODEL 1
REMARK VINA RESULT:    -7.881      0.000      0.000
REMARK INTER + INTRA:         -12.218
REMARK INTER:                 -11.107
REMARK INTRA:                  -1.111
REMARK UNBOUND:                -1.111
REMARK  Name = 
REMARK  7 active torsions:
REMARK  status: ('A' for Active; 'I' for Inactive)
REMARK    1  A    between atoms: C_2  and  C_19
REMARK    2  A    between atoms: N_3  and  C_4
REMARK    3  A    between atoms: C_4  and  C_5
REMARK    4  A    between atoms: C_8  and  C_9
REMARK    5  A    between atoms: C_9  and  O_10
REMARK    6  A    between atoms: O_10  and  C_11
REMARK    7  A    between atoms: C_11  and  C_12
REMARK                            x       y       z     vdW  Elec       q    Type
REMARK                         _______ _______ _______ _____ _____    ______ ____
ROOT
ATOM      1  C   UNL     1      46.754   7.487  13.045  0.00  0.00    +0.000 C 
ENDROOT
BRANCH   1   2
ATOM      2  C   UNL     1      45.961   6.366  12.425  0.00  0.00    +0.000 A 
ATOM      3  C   UNL     1      45.931   6.208  11.033  0.00  0.00    +0.000 A 
ATOM      4  C   UNL     1      45.257   5.131  10.451  0.00  0.00    +0.000 A 
ATOM      5  C   UNL     1      44.587   4.193  11.246  0.00  0.00    +0.000 A 
ATOM      6  C   UNL     1      44.601   4.361  12.637  0.00  0.00    +0.000 A 
ATOM      7  C   UNL     1      45.268   5.443  13.221  0.00  0.00    +0.000 A 
BRANCH   5   8
ATOM      8  C   UNL     1      43.817   3.060  10.615  0.00  0.00    +0.000 C 
BRANCH   8   9
ATOM      9  O   UNL     1      44.202   2.897   9.251  0.00  0.00    +0.000 OA
BRANCH   9  10
ATOM     10  C   UNL     1      45.124   1.812   9.114  0.00  0.00    +0.000 C 
BRANCH  10  11
ATOM     11  C   UNL     1      46.037   2.133   7.985  0.00  0.00    +0.000 A 
ATOM     12  C   UNL     1      46.126   3.255   7.182  0.00  0.00    +0.000 A 
ATOM     13  C   UNL     1      47.172   3.039   6.252  0.00  0.00    +0.000 A 
ATOM     14  C   UNL     1      47.699   1.793   6.514  0.00  0.00    +0.000 A 
ATOM     15  N   UNL     1      47.005   1.254   7.563  0.00  0.00    +0.000 N 
ATOM     16  H   UNL     1      47.159   0.345   7.987  0.00  0.00    +0.000 HD
ENDBRANCH  10  11
ENDBRANCH   9  10
ENDBRANCH   8   9
ENDBRANCH   5   8
ENDBRANCH   1   2
BRANCH   1  19
ATOM     17  O   UNL     1      49.402   6.707  13.607  0.00  0.00    +0.000 OA
ATOM     18  C   UNL     1      48.599   6.787  14.528  0.00  0.00    +0.000 C 
ATOM     19  N   UNL     1      47.288   7.145  14.339  0.00  0.00    +0.000 N 
ATOM     20  H   UNL     1      46.704   7.349  15.142  0.00  0.00    +0.000 HD
BRANCH  18  21
ATOM     21  C   UNL     1      48.979   6.438  15.902  0.00  0.00    +0.000 A 
ATOM     22  C   UNL     1      49.747   7.317  16.652  0.00  0.00    +0.000 A 
ATOM     23  S   UNL     1      50.105   6.744  18.219  0.00  0.00    +0.000 S 
ATOM     24  C   UNL     1      49.208   5.321  17.962  0.00  0.00    +0.000 A 
ATOM     25  N   UNL     1      49.081   4.384  18.941  0.00  0.00    +0.000 NA
ATOM     26  C   UNL     1      48.332   3.381  18.624  0.00  0.00    +0.000 A 
ATOM     27  N   UNL     1      47.708   3.223  17.414  0.00  0.00    +0.000 N 
ATOM     28  C   UNL     1      47.881   4.095  16.368  0.00  0.00    +0.000 A 
ATOM     29  O   UNL     1      47.437   3.846  15.252  0.00  0.00    +0.000 OA
ATOM     30  C   UNL     1      48.667   5.271  16.690  0.00  0.00    +0.000 A 
ATOM     31  H   UNL     1      47.165   2.396  17.215  0.00  0.00    +0.000 HD
ENDBRANCH  18  21
ENDBRANCH   1  19
TORSDOF 7
ENDMDL
MODEL 2
REMARK VINA RESULT:    -7.366      2.147      2.662
REMARK INTER + INTRA:         -11.492
REMARK INTER:                 -10.493
REMARK INTRA:                  -0.999
REMARK UNBOUND:                -1.111
REMARK  Name = 
REMARK  7 active torsions:
REMARK  status: ('A' for Active; 'I' for Inactive)
REMARK    1  A    between atoms: C_2  and  C_19
REMARK    2  A    between atoms: N_3  and  C_4
REMARK    3  A    between atoms: C_4  and  C_5
REMARK    4  A    between atoms: C_8  and  C_9
REMARK    5  A    between atoms: C_9  and  O_10
REMARK    6  A    between atoms: O_10  and  C_11
REMARK    7  A    between atoms: C_11  and  C_12
REMARK                            x       y       z     vdW  Elec       q    Type
REMARK                         _______ _______ _______ _____ _____    ______ ____
ROOT
ATOM      1  C   UNL     1      48.005   6.995  13.656  0.00  0.00    +0.000 C 
ENDROOT
BRANCH   1   2
ATOM      2  C   UNL     1      46.891   6.316  12.903  0.00  0.00    +0.000 A 
ATOM      3  C   UNL     1      46.512   6.778  11.636  0.00  0.00    +0.000 A 
ATOM      4  C   UNL     1      45.528   6.114  10.898  0.00  0.00    +0.000 A 
ATOM      5  C   UNL     1      44.891   4.979  11.416  0.00  0.00    +0.000 A 
ATOM      6  C   UNL     1      45.256   4.528  12.692  0.00  0.00    +0.000 A 
ATOM      7  C   UNL     1      46.235   5.197  13.434  0.00  0.00    +0.000 A 
BRANCH   5   8
ATOM      8  C   UNL     1      43.793   4.293  10.642  0.00  0.00    +0.000 C 
BRANCH   8   9
ATOM      9  O   UNL     1      44.253   3.932   9.341  0.00  0.00    +0.000 OA
BRANCH   9  10
ATOM     10  C   UNL     1      44.634   2.554   9.306  0.00  0.00    +0.000 C 
BRANCH  10  11
ATOM     11  C   UNL     1      45.715   2.408   8.295  0.00  0.00    +0.000 A 
ATOM     12  C   UNL     1      46.278   3.328   7.430  0.00  0.00    +0.000 A 
ATOM     13  C   UNL     1      47.272   2.660   6.675  0.00  0.00    +0.000 A 
ATOM     14  C   UNL     1      47.294   1.349   7.101  0.00  0.00    +0.000 A 
ATOM     15  N   UNL     1      46.349   1.208   8.080  0.00  0.00    +0.000 N 
ATOM     16  H   UNL     1      46.127   0.358   8.588  0.00  0.00    +0.000 HD
ENDBRANCH  10  11
ENDBRANCH   9  10
ENDBRANCH   8   9
ENDBRANCH   5   8
ENDBRANCH   1   2
BRANCH   1  19
ATOM     17  O   UNL     1      50.104   6.439  15.451  0.00  0.00    +0.000 OA
ATOM     18  C   UNL     1      48.970   6.582  15.890  0.00  0.00    +0.000 C 
ATOM     19  N   UNL     1      47.890   6.840  15.084  0.00  0.00    +0.000 N 
ATOM     20  H   UNL     1      47.006   7.105  15.502  0.00  0.00    +0.000 HD
BRANCH  18  21
ATOM     21  C   UNL     1      48.681   6.421  17.320  0.00  0.00    +0.000 A 
ATOM     22  C   UNL     1      48.887   5.193  17.935  0.00  0.00    +0.000 A 
ATOM     23  S   UNL     1      48.486   5.185  19.593  0.00  0.00    +0.000 S 
ATOM     24  C   UNL     1      48.067   6.834  19.556  0.00  0.00    +0.000 A 
ATOM     25  N   UNL     1      47.653   7.479  20.679  0.00  0.00    +0.000 NA
ATOM     26  C   UNL     1      47.416   8.738  20.514  0.00  0.00    +0.000 A 
ATOM     27  N   UNL     1      47.544   9.408  19.325  0.00  0.00    +0.000 N 
ATOM     28  C   UNL     1      47.870   8.780  18.149  0.00  0.00    +0.000 A 
ATOM     29  O   UNL     1      47.824   9.375  17.077  0.00  0.00    +0.000 OA
ATOM     30  C   UNL     1      48.203   7.375  18.290  0.00  0.00    +0.000 A 
ATOM     31  H   UNL     1      47.307  10.386  19.254  0.00  0.00    +0.000 HD
ENDBRANCH  18  21
ENDBRANCH   1  19
TORSDOF 7
ENDMDL
MODEL 3
REMARK VINA RESULT:    -6.922      1.960      3.470
REMARK INTER + INTRA:         -10.865
REMARK INTER:                  -9.801
REMARK INTRA:                  -1.065
REMARK UNBOUND:                -1.111
REMARK  Name = 
REMARK  7 active torsions:
REMARK  status: ('A' for Active; 'I' for Inactive)
REMARK    1  A    between atoms: C_2  and  C_19
REMARK    2  A    between atoms: N_3  and  C_4
REMARK    3  A    between atoms: C_4  and  C_5
REMARK    4  A    between atoms: C_8  and  C_9
REMARK    5  A    between atoms: C_9  and  O_10
REMARK    6  A    between atoms: O_10  and  C_11
REMARK    7  A    between atoms: C_11  and  C_12
REMARK                            x       y       z     vdW  Elec       q    Type
REMARK                         _______ _______ _______ _____ _____    ______ ____
ROOT
ATOM      1  C   UNL     1      47.290   4.271  14.781  0.00  0.00    +0.000 C 
ENDROOT
BRANCH   1   2
ATOM      2  C   UNL     1      46.431   4.369  13.547  0.00  0.00    +0.000 A 
ATOM      3  C   UNL     1      45.873   3.214  12.981  0.00  0.00    +0.000 A 
ATOM      4  C   UNL     1      45.018   3.299  11.879  0.00  0.00    +0.000 A 
ATOM      5  C   UNL     1      44.710   4.541  11.308  0.00  0.00    +0.000 A 
ATOM      6  C   UNL     1      45.284   5.694  11.861  0.00  0.00    +0.000 A 
ATOM      7  C   UNL     1      46.146   5.608  12.960  0.00  0.00    +0.000 A 
BRANCH   5   8
ATOM      8  C   UNL     1      43.830   4.629  10.087  0.00  0.00    +0.000 C 
BRANCH   8   9
ATOM      9  O   UNL     1      44.259   3.696   9.097  0.00  0.00    +0.000 OA
BRANCH   9  10
ATOM     10  C   UNL     1      45.371   4.216   8.363  0.00  0.00    +0.000 C 
BRANCH  10  11
ATOM     11  C   UNL     1      46.152   3.061   7.844  0.00  0.00    +0.000 A 
ATOM     12  C   UNL     1      47.117   2.989   6.857  0.00  0.00    +0.000 A 
ATOM     13  C   UNL     1      47.534   1.640   6.757  0.00  0.00    +0.000 A 
ATOM     14  C   UNL     1      46.816   0.922   7.689  0.00  0.00    +0.000 A 
ATOM     15  N   UNL     1      45.984   1.791   8.340  0.00  0.00    +0.000 N 
ATOM     16  H   UNL     1      45.329   1.562   9.081  0.00  0.00    +0.000 HD
ENDBRANCH  10  11
ENDBRANCH   9  10
ENDBRANCH   8   9
ENDBRANCH   5   8
ENDBRANCH   1   2
BRANCH   1  19
ATOM     17  O   UNL     1      49.350   4.877  16.603  0.00  0.00    +0.000 OA
ATOM     18  C   UNL     1      48.583   5.766  16.257  0.00  0.00    +0.000 C 
ATOM     19  N   UNL     1      47.545   5.553  15.386  0.00  0.00    +0.000 N 
ATOM     20  H   UNL     1      47.038   6.345  15.009  0.00  0.00    +0.000 HD
BRANCH  18  21
ATOM     21  C   UNL     1      48.690   7.122  16.811  0.00  0.00    +0.000 A 
ATOM     22  C   UNL     1      48.698   7.309  18.186  0.00  0.00    +0.000 A 
ATOM     23  S   UNL     1      48.814   8.947  18.650  0.00  0.00    +0.000 S 
ATOM     24  C   UNL     1      48.903   9.457  17.029  0.00  0.00    +0.000 A 
ATOM     25  N   UNL     1      49.042  10.772  16.713  0.00  0.00    +0.000 NA
ATOM     26  C   UNL     1      49.147  11.008  15.447  0.00  0.00    +0.000 A 
ATOM     27  N   UNL     1      49.112  10.049  14.468  0.00  0.00    +0.000 N 
ATOM     28  C   UNL     1      48.882   8.722  14.734  0.00  0.00    +0.000 A 
ATOM     29  O   UNL     1      48.702   7.914  13.829  0.00  0.00    +0.000 OA
ATOM     30  C   UNL     1      48.816   8.395  16.146  0.00  0.00    +0.000 A 
ATOM     31  H   UNL     1      49.161  10.303  13.493  0.00  0.00    +0.000 HD
ENDBRANCH  18  21
ENDBRANCH   1  19
TORSDOF 7
ENDMDL
MODEL 4
REMARK VINA RESULT:    -6.770      3.079      4.262
REMARK INTER + INTRA:         -10.652
REMARK INTER:                  -9.675
REMARK INTRA:                  -0.977
REMARK UNBOUND:                -1.111
REMARK  Name = 
REMARK  7 active torsions:
REMARK  status: ('A' for Active; 'I' for Inactive)
REMARK    1  A    between atoms: C_2  and  C_19
REMARK    2  A    between atoms: N_3  and  C_4
REMARK    3  A    between atoms: C_4  and  C_5
REMARK    4  A    between atoms: C_8  and  C_9
REMARK    5  A    between atoms: C_9  and  O_10
REMARK    6  A    between atoms: O_10  and  C_11
REMARK    7  A    between atoms: C_11  and  C_12
REMARK                            x       y       z     vdW  Elec       q    Type
REMARK                         _______ _______ _______ _____ _____    ______ ____
ROOT
ATOM      1  C   UNL     1      48.858   6.097  17.396  0.00  0.00    +0.000 C 
ENDROOT
BRANCH   1   2
ATOM      2  C   UNL     1      48.185   5.650  16.125  0.00  0.00    +0.000 A 
ATOM      3  C   UNL     1      47.424   4.473  16.105  0.00  0.00    +0.000 A 
ATOM      4  C   UNL     1      46.737   4.086  14.951  0.00  0.00    +0.000 A 
ATOM      5  C   UNL     1      46.804   4.860  13.786  0.00  0.00    +0.000 A 
ATOM      6  C   UNL     1      47.581   6.027  13.799  0.00  0.00    +0.000 A 
ATOM      7  C   UNL     1      48.275   6.411  14.951  0.00  0.00    +0.000 A 
BRANCH   5   8
ATOM      8  C   UNL     1      46.105   4.416  12.525  0.00  0.00    +0.000 C 
BRANCH   8   9
ATOM      9  O   UNL     1      45.083   3.470  12.832  0.00  0.00    +0.000 OA
BRANCH   9  10
ATOM     10  C   UNL     1      43.906   3.732  12.063  0.00  0.00    +0.000 C 
BRANCH  10  11
ATOM     11  C   UNL     1      44.223   3.446  10.637  0.00  0.00    +0.000 A 
ATOM     12  C   UNL     1      44.226   4.269   9.527  0.00  0.00    +0.000 A 
ATOM     13  C   UNL     1      44.600   3.485   8.409  0.00  0.00    +0.000 A 
ATOM     14  C   UNL     1      44.821   2.203   8.866  0.00  0.00    +0.000 A 
ATOM     15  N   UNL     1      44.590   2.191  10.214  0.00  0.00    +0.000 N 
ATOM     16  H   UNL     1      44.669   1.392  10.835  0.00  0.00    +0.000 HD
ENDBRANCH  10  11
ENDBRANCH   9  10
ENDBRANCH   8   9
ENDBRANCH   5   8
ENDBRANCH   1   2
BRANCH   1  19
ATOM     17  O   UNL     1      51.523   6.256  16.496  0.00  0.00    +0.000 OA
ATOM     18  C   UNL     1      51.221   5.390  17.307  0.00  0.00    +0.000 C 
ATOM     19  N   UNL     1      49.944   5.235  17.785  0.00  0.00    +0.000 N 
ATOM     20  H   UNL     1      49.775   4.612  18.567  0.00  0.00    +0.000 HD
BRANCH  18  21
ATOM     21  C   UNL     1      52.208   4.410  17.778  0.00  0.00    +0.000 A 
ATOM     22  C   UNL     1      53.398   4.844  18.344  0.00  0.00    +0.000 A 
ATOM     23  S   UNL     1      54.430   3.571  18.821  0.00  0.00    +0.000 S 
ATOM     24  C   UNL     1      53.301   2.398  18.326  0.00  0.00    +0.000 A 
ATOM     25  N   UNL     1      53.554   1.071  18.480  0.00  0.00    +0.000 NA
ATOM     26  C   UNL     1      52.589   0.297  18.107  0.00  0.00    +0.000 A 
ATOM     27  N   UNL     1      51.400   0.730  17.582  0.00  0.00    +0.000 N 
ATOM     28  C   UNL     1      51.138   2.053  17.324  0.00  0.00    +0.000 A 
ATOM     29  O   UNL     1      50.131   2.393  16.712  0.00  0.00    +0.000 OA
ATOM     30  C   UNL     1      52.166   2.969  17.779  0.00  0.00    +0.000 A 
ATOM     31  H   UNL     1      50.700   0.072  17.274  0.00  0.00    +0.000 HD
ENDBRANCH  18  21
ENDBRANCH   1  19
TORSDOF 7
ENDMDL
MODEL 5
REMARK VINA RESULT:    -6.729      2.894      8.485
REMARK INTER + INTRA:         -10.593
REMARK INTER:                  -9.207
REMARK INTRA:                  -1.386
REMARK UNBOUND:                -1.111
REMARK  Name = 
REMARK  7 active torsions:
REMARK  status: ('A' for Active; 'I' for Inactive)
REMARK    1  A    between atoms: C_2  and  C_19
REMARK    2  A    between atoms: N_3  and  C_4
REMARK    3  A    between atoms: C_4  and  C_5
REMARK    4  A    between atoms: C_8  and  C_9
REMARK    5  A    between atoms: C_9  and  O_10
REMARK    6  A    between atoms: O_10  and  C_11
REMARK    7  A    between atoms: C_11  and  C_12
REMARK                            x       y       z     vdW  Elec       q    Type
REMARK                         _______ _______ _______ _____ _____    ______ ____
ROOT
ATOM      1  C   UNL     1      47.462   7.719  12.014  0.00  0.00    +0.000 C 
ENDROOT
BRANCH   1   2
ATOM      2  C   UNL     1      47.871   7.787  13.462  0.00  0.00    +0.000 A 
ATOM      3  C   UNL     1      48.376   6.650  14.107  0.00  0.00    +0.000 A 
ATOM      4  C   UNL     1      48.825   6.719  15.429  0.00  0.00    +0.000 A 
ATOM      5  C   UNL     1      48.767   7.924  16.141  0.00  0.00    +0.000 A 
ATOM      6  C   UNL     1      48.244   9.056  15.502  0.00  0.00    +0.000 A 
ATOM      7  C   UNL     1      47.788   8.986  14.182  0.00  0.00    +0.000 A 
BRANCH   5   8
ATOM      8  C   UNL     1      49.203   7.986  17.584  0.00  0.00    +0.000 C 
BRANCH   8   9
ATOM      9  O   UNL     1      48.161   7.517  18.437  0.00  0.00    +0.000 OA
BRANCH   9  10
ATOM     10  C   UNL     1      48.621   6.428  19.243  0.00  0.00    +0.000 C 
BRANCH  10  11
ATOM     11  C   UNL     1      48.317   5.166  18.515  0.00  0.00    +0.000 A 
ATOM     12  C   UNL     1      49.121   4.090  18.191  0.00  0.00    +0.000 A 
ATOM     13  C   UNL     1      48.327   3.153  17.487  0.00  0.00    +0.000 A 
ATOM     14  C   UNL     1      47.056   3.679  17.402  0.00  0.00    +0.000 A 
ATOM     15  N   UNL     1      47.061   4.896  18.027  0.00  0.00    +0.000 N 
ATOM     16  H   UNL     1      46.273   5.527  18.130  0.00  0.00    +0.000 HD
ENDBRANCH  10  11
ENDBRANCH   9  10
ENDBRANCH   8   9
ENDBRANCH   5   8
ENDBRANCH   1   2
BRANCH   1  19
ATOM     17  O   UNL     1      44.670   7.348  12.050  0.00  0.00    +0.000 OA
ATOM     18  C   UNL     1      45.388   6.414  11.720  0.00  0.00    +0.000 C 
ATOM     19  N   UNL     1      46.757   6.506  11.689  0.00  0.00    +0.000 N 
ATOM     20  H   UNL     1      47.298   5.763  11.261  0.00  0.00    +0.000 HD
BRANCH  18  21
ATOM     21  C   UNL     1      44.824   5.099  11.392  0.00  0.00    +0.000 A 
ATOM     22  C   UNL     1      44.041   4.429  12.322  0.00  0.00    +0.000 A 
ATOM     23  S   UNL     1      43.483   2.912  11.777  0.00  0.00    +0.000 S 
ATOM     24  C   UNL     1      44.232   3.119  10.263  0.00  0.00    +0.000 A 
ATOM     25  N   UNL     1      44.122   2.174   9.291  0.00  0.00    +0.000 NA
ATOM     26  C   UNL     1      44.698   2.486   8.177  0.00  0.00    +0.000 A 
ATOM     27  N   UNL     1      45.385   3.651   7.953  0.00  0.00    +0.000 N 
ATOM     28  C   UNL     1      45.598   4.589   8.931  0.00  0.00    +0.000 A 
ATOM     29  O   UNL     1      46.346   5.544   8.745  0.00  0.00    +0.000 OA
ATOM     30  C   UNL     1      44.922   4.315  10.185  0.00  0.00    +0.000 A 
ATOM     31  H   UNL     1      45.845   3.818   7.071  0.00  0.00    +0.000 HD
ENDBRANCH  18  21
ENDBRANCH   1  19
TORSDOF 7
ENDMDL
MODEL 6
REMARK VINA RESULT:    -6.716      2.203      2.886
REMARK INTER + INTRA:         -10.576
REMARK INTER:                  -9.876
REMARK INTRA:                  -0.700
REMARK UNBOUND:                -1.111
REMARK  Name = 
REMARK  7 active torsions:
REMARK  status: ('A' for Active; 'I' for Inactive)
REMARK    1  A    between atoms: C_2  and  C_19
REMARK    2  A    between atoms: N_3  and  C_4
REMARK    3  A    between atoms: C_4  and  C_5
REMARK    4  A    between atoms: C_8  and  C_9
REMARK    5  A    between atoms: C_9  and  O_10
REMARK    6  A    between atoms: O_10  and  C_11
REMARK    7  A    between atoms: C_11  and  C_12
REMARK                            x       y       z     vdW  Elec       q    Type
REMARK                         _______ _______ _______ _____ _____    ______ ____
ROOT
ATOM      1  C   UNL     1      47.090   4.113  14.906  0.00  0.00    +0.000 C 
ENDROOT
BRANCH   1   2
ATOM      2  C   UNL     1      46.417   4.344  13.578  0.00  0.00    +0.000 A 
ATOM      3  C   UNL     1      45.735   3.299  12.941  0.00  0.00    +0.000 A 
ATOM      4  C   UNL     1      45.048   3.519  11.744  0.00  0.00    +0.000 A 
ATOM      5  C   UNL     1      45.037   4.787  11.149  0.00  0.00    +0.000 A 
ATOM      6  C   UNL     1      45.736   5.828  11.775  0.00  0.00    +0.000 A 
ATOM      7  C   UNL     1      46.431   5.606  12.969  0.00  0.00    +0.000 A 
BRANCH   5   8
ATOM      8  C   UNL     1      44.339   5.012   9.831  0.00  0.00    +0.000 C 
BRANCH   8   9
ATOM      9  O   UNL     1      45.199   4.662   8.748  0.00  0.00    +0.000 OA
BRANCH   9  10
ATOM     10  C   UNL     1      44.784   3.430   8.153  0.00  0.00    +0.000 C 
BRANCH  10  11
ATOM     11  C   UNL     1      45.978   2.804   7.525  0.00  0.00    +0.000 A 
ATOM     12  C   UNL     1      46.815   3.253   6.521  0.00  0.00    +0.000 A 
ATOM     13  C   UNL     1      47.798   2.259   6.301  0.00  0.00    +0.000 A 
ATOM     14  C   UNL     1      47.541   1.229   7.180  0.00  0.00    +0.000 A 
ATOM     15  N   UNL     1      46.438   1.569   7.915  0.00  0.00    +0.000 N 
ATOM     16  H   UNL     1      46.002   1.014   8.644  0.00  0.00    +0.000 HD
ENDBRANCH  10  11
ENDBRANCH   9  10
ENDBRANCH   8   9
ENDBRANCH   5   8
ENDBRANCH   1   2
BRANCH   1  19
ATOM     17  O   UNL     1      49.249   4.383  16.696  0.00  0.00    +0.000 OA
ATOM     18  C   UNL     1      48.613   5.380  16.377  0.00  0.00    +0.000 C 
ATOM     19  N   UNL     1      47.540   5.334  15.524  0.00  0.00    +0.000 N 
ATOM     20  H   UNL     1      47.147   6.198  15.168  0.00  0.00    +0.000 HD
BRANCH  18  21
ATOM     21  C   UNL     1      48.926   6.697  16.948  0.00  0.00    +0.000 A 
ATOM     22  C   UNL     1      49.756   7.570  16.259  0.00  0.00    +0.000 A 
ATOM     23  S   UNL     1      50.021   9.045  17.075  0.00  0.00    +0.000 S 
ATOM     24  C   UNL     1      48.999   8.583  18.355  0.00  0.00    +0.000 A 
ATOM     25  N   UNL     1      48.760   9.420  19.400  0.00  0.00    +0.000 NA
ATOM     26  C   UNL     1      47.927   8.959  20.273  0.00  0.00    +0.000 A 
ATOM     27  N   UNL     1      47.320   7.732  20.201  0.00  0.00    +0.000 N 
ATOM     28  C   UNL     1      47.600   6.820  19.214  0.00  0.00    +0.000 A 
ATOM     29  O   UNL     1      47.160   5.676  19.263  0.00  0.00    +0.000 OA
ATOM     30  C   UNL     1      48.486   7.311  18.176  0.00  0.00    +0.000 A 
ATOM     31  H   UNL     1      46.706   7.415  20.935  0.00  0.00    +0.000 HD
ENDBRANCH  18  21
ENDBRANCH   1  19
TORSDOF 7
ENDMDL
MODEL 7
REMARK VINA RESULT:    -6.588      3.543      7.973
REMARK INTER + INTRA:         -10.395
REMARK INTER:                  -9.003
REMARK INTRA:                  -1.391
REMARK UNBOUND:                -1.111
REMARK  Name = 
REMARK  7 active torsions:
REMARK  status: ('A' for Active; 'I' for Inactive)
REMARK    1  A    between atoms: C_2  and  C_19
REMARK    2  A    between atoms: N_3  and  C_4
REMARK    3  A    between atoms: C_4  and  C_5
REMARK    4  A    between atoms: C_8  and  C_9
REMARK    5  A    between atoms: C_9  and  O_10
REMARK    6  A    between atoms: O_10  and  C_11
REMARK    7  A    between atoms: C_11  and  C_12
REMARK                            x       y       z     vdW  Elec       q    Type
REMARK                         _______ _______ _______ _____ _____    ______ ____
ROOT
ATOM      1  C   UNL     1      48.081   8.826  14.109  0.00  0.00    +0.000 C 
ENDROOT
BRANCH   1   2
ATOM      2  C   UNL     1      48.554   8.299  15.439  0.00  0.00    +0.000 A 
ATOM      3  C   UNL     1      48.162   8.929  16.628  0.00  0.00    +0.000 A 
ATOM      4  C   UNL     1      48.537   8.409  17.869  0.00  0.00    +0.000 A 
ATOM      5  C   UNL     1      49.322   7.252  17.951  0.00  0.00    +0.000 A 
ATOM      6  C   UNL     1      49.730   6.632  16.762  0.00  0.00    +0.000 A 
ATOM      7  C   UNL     1      49.363   7.158  15.519  0.00  0.00    +0.000 A 
BRANCH   5   8
ATOM      8  C   UNL     1      49.770   6.719  19.289  0.00  0.00    +0.000 C 
BRANCH   8   9
ATOM      9  O   UNL     1      48.698   6.034  19.934  0.00  0.00    +0.000 OA
BRANCH   9  10
ATOM     10  C   UNL     1      48.980   4.635  20.032  0.00  0.00    +0.000 C 
BRANCH  10  11
ATOM     11  C   UNL     1      48.518   3.991  18.773  0.00  0.00    +0.000 A 
ATOM     12  C   UNL     1      49.143   3.085  17.936  0.00  0.00    +0.000 A 
ATOM     13  C   UNL     1      48.257   2.800  16.870  0.00  0.00    +0.000 A 
ATOM     14  C   UNL     1      47.111   3.535  17.084  0.00  0.00    +0.000 A 
ATOM     15  N   UNL     1      47.280   4.251  18.237  0.00  0.00    +0.000 N 
ATOM     16  H   UNL     1      46.611   4.888  18.658  0.00  0.00    +0.000 HD
ENDBRANCH  10  11
ENDBRANCH   9  10
ENDBRANCH   8   9
ENDBRANCH   5   8
ENDBRANCH   1   2
BRANCH   1  19
ATOM     17  O   UNL     1      48.027   6.724  12.235  0.00  0.00    +0.000 OA
ATOM     18  C   UNL     1      46.972   7.117  12.716  0.00  0.00    +0.000 C 
ATOM     19  N   UNL     1      46.909   8.145  13.623  0.00  0.00    +0.000 N 
ATOM     20  H   UNL     1      46.039   8.330  14.109  0.00  0.00    +0.000 HD
BRANCH  18  21
ATOM     21  C   UNL     1      45.685   6.547  12.298  0.00  0.00    +0.000 A 
ATOM     22  C   UNL     1      44.731   7.358  11.699  0.00  0.00    +0.000 A 
ATOM     23  S   UNL     1      43.294   6.533  11.292  0.00  0.00    +0.000 S 
ATOM     24  C   UNL     1      43.917   5.055  11.862  0.00  0.00    +0.000 A 
ATOM     25  N   UNL     1      43.188   3.909  11.784  0.00  0.00    +0.000 NA
ATOM     26  C   UNL     1      43.805   2.856  12.208  0.00  0.00    +0.000 A 
ATOM     27  N   UNL     1      45.078   2.847  12.714  0.00  0.00    +0.000 N 
ATOM     28  C   UNL     1      45.815   3.991  12.896  0.00  0.00    +0.000 A 
ATOM     29  O   UNL     1      46.886   3.969  13.493  0.00  0.00    +0.000 OA
ATOM     30  C   UNL     1      45.191   5.196  12.382  0.00  0.00    +0.000 A 
ATOM     31  H   UNL     1      45.490   1.995  13.064  0.00  0.00    +0.000 HD
ENDBRANCH  18  21
ENDBRANCH   1  19
TORSDOF 7
ENDMDL
MODEL 8
REMARK VINA RESULT:    -6.563      3.335      8.076
REMARK INTER + INTRA:         -10.359
REMARK INTER:                  -9.122
REMARK INTRA:                  -1.237
REMARK UNBOUND:                -1.111
REMARK  Name = 
REMARK  7 active torsions:
REMARK  status: ('A' for Active; 'I' for Inactive)
REMARK    1  A    between atoms: C_2  and  C_19
REMARK    2  A    between atoms: N_3  and  C_4
REMARK    3  A    between atoms: C_4  and  C_5
REMARK    4  A    between atoms: C_8  and  C_9
REMARK    5  A    between atoms: C_9  and  O_10
REMARK    6  A    between atoms: O_10  and  C_11
REMARK    7  A    between atoms: C_11  and  C_12
REMARK                            x       y       z     vdW  Elec       q    Type
REMARK                         _______ _______ _______ _____ _____    ______ ____
ROOT
ATOM      1  C   UNL     1      48.243   8.190  12.049  0.00  0.00    +0.000 C 
ENDROOT
BRANCH   1   2
ATOM      2  C   UNL     1      48.444   8.038  13.534  0.00  0.00    +0.000 A 
ATOM      3  C   UNL     1      49.223   6.987  14.037  0.00  0.00    +0.000 A 
ATOM      4  C   UNL     1      49.475   6.877  15.407  0.00  0.00    +0.000 A 
ATOM      5  C   UNL     1      48.944   7.808  16.308  0.00  0.00    +0.000 A 
ATOM      6  C   UNL     1      48.148   8.848  15.808  0.00  0.00    +0.000 A 
ATOM      7  C   UNL     1      47.889   8.954  14.437  0.00  0.00    +0.000 A 
BRANCH   5   8
ATOM      8  C   UNL     1      49.172   7.660  17.792  0.00  0.00    +0.000 C 
BRANCH   8   9
ATOM      9  O   UNL     1      47.927   7.529  18.475  0.00  0.00    +0.000 OA
BRANCH   9  10
ATOM     10  C   UNL     1      47.968   6.432  19.392  0.00  0.00    +0.000 C 
BRANCH  10  11
ATOM     11  C   UNL     1      47.911   5.175  18.598  0.00  0.00    +0.000 A 
ATOM     12  C   UNL     1      48.675   4.026  18.664  0.00  0.00    +0.000 A 
ATOM     13  C   UNL     1      48.202   3.134  17.671  0.00  0.00    +0.000 A 
ATOM     14  C   UNL     1      47.157   3.760  17.026  0.00  0.00    +0.000 A 
ATOM     15  N   UNL     1      46.990   4.993  17.594  0.00  0.00    +0.000 N 
ATOM     16  H   UNL     1      46.300   5.690  17.335  0.00  0.00    +0.000 HD
ENDBRANCH  10  11
ENDBRANCH   9  10
ENDBRANCH   8   9
ENDBRANCH   5   8
ENDBRANCH   1   2
BRANCH   1  19
ATOM     17  O   UNL     1      45.451   7.929  11.777  0.00  0.00    +0.000 OA
ATOM     18  C   UNL     1      46.174   7.034  11.358  0.00  0.00    +0.000 C 
ATOM     19  N   UNL     1      47.541   7.076  11.464  0.00  0.00    +0.000 N 
ATOM     20  H   UNL     1      48.102   6.394  10.966  0.00  0.00    +0.000 HD
BRANCH  18  21
ATOM     21  C   UNL     1      45.611   5.815  10.765  0.00  0.00    +0.000 A 
ATOM     22  C   UNL     1      45.855   5.518   9.431  0.00  0.00    +0.000 A 
ATOM     23  S   UNL     1      45.113   4.074   8.908  0.00  0.00    +0.000 S 
ATOM     24  C   UNL     1      44.478   3.774  10.458  0.00  0.00    +0.000 A 
ATOM     25  N   UNL     1      43.743   2.658  10.713  0.00  0.00    +0.000 NA
ATOM     26  C   UNL     1      43.369   2.536  11.943  0.00  0.00    +0.000 A 
ATOM     27  N   UNL     1      43.650   3.435  12.938  0.00  0.00    +0.000 N 
ATOM     28  C   UNL     1      44.309   4.617  12.708  0.00  0.00    +0.000 A 
ATOM     29  O   UNL     1      44.409   5.470  13.585  0.00  0.00    +0.000 OA
ATOM     30  C   UNL     1      44.803   4.777  11.354  0.00  0.00    +0.000 A 
ATOM     31  H   UNL     1      43.296   3.300  13.873  0.00  0.00    +0.000 HD
ENDBRANCH  18  21
ENDBRANCH   1  19
TORSDOF 7
ENDMDL
MODEL 9
REMARK VINA RESULT:    -6.303      3.692      5.098
REMARK INTER + INTRA:          -9.993
REMARK INTER:                  -9.127
REMARK INTRA:                  -0.867
REMARK UNBOUND:                -1.111
REMARK  Name = 
REMARK  7 active torsions:
REMARK  status: ('A' for Active; 'I' for Inactive)
REMARK    1  A    between atoms: C_2  and  C_19
REMARK    2  A    between atoms: N_3  and  C_4
REMARK    3  A    between atoms: C_4  and  C_5
REMARK    4  A    between atoms: C_8  and  C_9
REMARK    5  A    between atoms: C_9  and  O_10
REMARK    6  A    between atoms: O_10  and  C_11
REMARK    7  A    between atoms: C_11  and  C_12
REMARK                            x       y       z     vdW  Elec       q    Type
REMARK                         _______ _______ _______ _____ _____    ______ ____
ROOT
ATOM      1  C   UNL     1      46.778   8.518  13.596  0.00  0.00    +0.000 C 
ENDROOT
BRANCH   1   2
ATOM      2  C   UNL     1      46.125   7.347  12.911  0.00  0.00    +0.000 A 
ATOM      3  C   UNL     1      46.489   6.037  13.252  0.00  0.00    +0.000 A 
ATOM      4  C   UNL     1      45.840   4.942  12.675  0.00  0.00    +0.000 A 
ATOM      5  C   UNL     1      44.820   5.131  11.734  0.00  0.00    +0.000 A 
ATOM      6  C   UNL     1      44.469   6.440  11.378  0.00  0.00    +0.000 A 
ATOM      7  C   UNL     1      45.124   7.536  11.949  0.00  0.00    +0.000 A 
BRANCH   5   8
ATOM      8  C   UNL     1      44.156   3.949  11.072  0.00  0.00    +0.000 C 
BRANCH   8   9
ATOM      9  O   UNL     1      44.603   3.819   9.723  0.00  0.00    +0.000 OA
BRANCH   9  10
ATOM     10  C   UNL     1      44.728   2.440   9.364  0.00  0.00    +0.000 C 
BRANCH  10  11
ATOM     11  C   UNL     1      45.715   2.348   8.255  0.00  0.00    +0.000 A 
ATOM     12  C   UNL     1      46.068   3.260   7.278  0.00  0.00    +0.000 A 
ATOM     13  C   UNL     1      47.060   2.660   6.465  0.00  0.00    +0.000 A 
ATOM     14  C   UNL     1      47.291   1.399   6.969  0.00  0.00    +0.000 A 
ATOM     15  N   UNL     1      46.473   1.220   8.051  0.00  0.00    +0.000 N 
ATOM     16  H   UNL     1      46.411   0.392   8.633  0.00  0.00    +0.000 HD
ENDBRANCH  10  11
ENDBRANCH   9  10
ENDBRANCH   8   9
ENDBRANCH   5   8
ENDBRANCH   1   2
BRANCH   1  19
ATOM     17  O   UNL     1      47.219  10.620  11.772  0.00  0.00    +0.000 OA
ATOM     18  C   UNL     1      48.169   9.933  12.127  0.00  0.00    +0.000 C 
ATOM     19  N   UNL     1      48.038   8.882  13.000  0.00  0.00    +0.000 N 
ATOM     20  H   UNL     1      48.868   8.445  13.384  0.00  0.00    +0.000 HD
BRANCH  18  21
ATOM     21  C   UNL     1      49.514  10.155  11.584  0.00  0.00    +0.000 A 
ATOM     22  C   UNL     1      49.962  11.447  11.349  0.00  0.00    +0.000 A 
ATOM     23  S   UNL     1      51.540  11.516  10.705  0.00  0.00    +0.000 S 
ATOM     24  C   UNL     1      51.695   9.822  10.760  0.00  0.00    +0.000 A 
ATOM     25  N   UNL     1      52.843   9.209  10.365  0.00  0.00    +0.000 NA
ATOM     26  C   UNL     1      52.837   7.925  10.508  0.00  0.00    +0.000 A 
ATOM     27  N   UNL     1      51.784   7.198  10.998  0.00  0.00    +0.000 N 
ATOM     28  C   UNL     1      50.576   7.764  11.323  0.00  0.00    +0.000 A 
ATOM     29  O   UNL     1      49.606   7.071  11.610  0.00  0.00    +0.000 OA
ATOM     30  C   UNL     1      50.548   9.212  11.236  0.00  0.00    +0.000 A 
ATOM     31  H   UNL     1      51.829   6.192  11.051  0.00  0.00    +0.000 HD
ENDBRANCH  18  21
ENDBRANCH   1  19
TORSDOF 7
ENDMDL
