MODEL 1
REMARK VINA RESULT:    -7.588      0.000      0.000
REMARK INTER + INTRA:         -11.744
REMARK INTER:                 -10.693
REMARK INTRA:                  -1.051
REMARK UNBOUND:                -1.051
REMARK  Name = 
REMARK  9 active torsions:
REMARK  status: ('A' for Active; 'I' for Inactive)
REMARK    1  A    between atoms: C_1  and  O_2
REMARK    2  A    between atoms: O_2  and  C_3
REMARK    3  A    between atoms: C_10  and  C_11
REMARK    4  A    between atoms: N_13  and  C_14
REMARK    5  A    between atoms: C_14  and  C_15
REMARK    6  A    between atoms: C_18  and  N_19
REMARK    7  A    between atoms: N_19  and  C_20
REMARK    8  A    between atoms: C_20  and  C_21
REMARK    9  A    between atoms: N_25  and  C_26
REMARK                            x       y       z     vdW  Elec       q    Type
REMARK                         _______ _______ _______ _____ _____    ______ ____
ROOT
ATOM      1  C   UNL     1      47.677   7.666  13.416  0.00  0.00    +0.000 C 
ENDROOT
BRANCH   1   2
ATOM      2  C   UNL     1      46.705   6.628  12.916  0.00  0.00    +0.000 A 
ATOM      3  C   UNL     1      46.012   6.827  11.721  0.00  0.00    +0.000 A 
ATOM      4  C   UNL     1      45.194   5.821  11.195  0.00  0.00    +0.000 A 
ATOM      5  C   UNL     1      45.007   4.603  11.858  0.00  0.00    +0.000 A 
ATOM      6  C   UNL     1      45.668   4.432  13.084  0.00  0.00    +0.000 A 
ATOM      7  C   UNL     1      46.496   5.433  13.615  0.00  0.00    +0.000 A 
BRANCH   5   8
ATOM      8  N   UNL     1      44.308   3.528  11.298  0.00  0.00    +0.000 N 
ATOM      9  H   UNL     1      43.501   3.251  11.854  0.00  0.00    +0.000 HD
BRANCH   8  10
ATOM     10  C   UNL     1      44.131   3.448   9.846  0.00  0.00    +0.000 C 
BRANCH  10  11
ATOM     11  C   UNL     1      45.448   3.131   9.117  0.00  0.00    +0.000 C 
ATOM     12  C   UNL     1      45.630   4.032   7.890  0.00  0.00    +0.000 C 
ATOM     13  C   UNL     1      46.866   3.629   7.095  0.00  0.00    +0.000 C 
ATOM     14  C   UNL     1      46.836   2.146   6.731  0.00  0.00    +0.000 C 
ATOM     15  N   UNL     1      46.698   1.313   7.934  0.00  0.00    +0.000 NA
ATOM     16  C   UNL     1      46.703  -0.107   7.575  0.00  0.00    +0.000 C 
ATOM     17  C   UNL     1      45.474   1.648   8.682  0.00  0.00    +0.000 C 
ENDBRANCH  10  11
ENDBRANCH   8  10
ENDBRANCH   5   8
ENDBRANCH   1   2
BRANCH   1  20
ATOM     18  C   UNL     1      49.022   7.194  15.423  0.00  0.00    +0.000 C 
ATOM     19  O   UNL     1      49.991   6.864  14.746  0.00  0.00    +0.000 OA
ATOM     20  N   UNL     1      47.849   7.597  14.846  0.00  0.00    +0.000 N 
ATOM     21  H   UNL     1      47.030   7.752  15.414  0.00  0.00    +0.000 HD
BRANCH  18  29
ATOM     22  C   UNL     1      48.860   4.701  17.801  0.00  0.00    +0.000 A 
ATOM     23  N   UNL     1      48.735   3.954  18.917  0.00  0.00    +0.000 NA
ATOM     24  C   UNL     1      48.754   4.574  20.097  0.00  0.00    +0.000 A 
ATOM     25  N   UNL     1      48.887   5.876  20.310  0.00  0.00    +0.000 NA
ATOM     26  C   UNL     1      48.992   6.590  19.172  0.00  0.00    +0.000 A 
ATOM     27  S   UNL     1      49.192   8.272  19.256  0.00  0.00    +0.000 S 
ATOM     28  C   UNL     1      49.217   8.404  17.563  0.00  0.00    +0.000 A 
ATOM     29  C   UNL     1      49.070   7.190  16.898  0.00  0.00    +0.000 A 
ATOM     30  C   UNL     1      48.973   6.097  17.868  0.00  0.00    +0.000 A 
BRANCH  22  32
ATOM     31  C   UNL     1      47.768   3.222  16.353  0.00  0.00    +0.000 C 
ATOM     32  O   UNL     1      48.916   4.040  16.588  0.00  0.00    +0.000 OA
ENDBRANCH  22  32
ENDBRANCH  18  29
ENDBRANCH   1  20
TORSDOF 7
ENDMDL
MODEL 2
REMARK VINA RESULT:    -7.531      1.616      2.529
REMARK INTER + INTRA:         -11.664
REMARK INTER:                 -10.460
REMARK INTRA:                  -1.204
REMARK UNBOUND:                -1.051
REMARK  Name = 
REMARK  9 active torsions:
REMARK  status: ('A' for Active; 'I' for Inactive)
REMARK    1  A    between atoms: C_1  and  O_2
REMARK    2  A    between atoms: O_2  and  C_3
REMARK    3  A    between atoms: C_10  and  C_11
REMARK    4  A    between atoms: N_13  and  C_14
REMARK    5  A    between atoms: C_14  and  C_15
REMARK    6  A    between atoms: C_18  and  N_19
REMARK    7  A    between atoms: N_19  and  C_20
REMARK    8  A    between atoms: C_20  and  C_21
REMARK    9  A    between atoms: N_25  and  C_26
REMARK                            x       y       z     vdW  Elec       q    Type
REMARK                         _______ _______ _______ _____ _____    ______ ____
ROOT
ATOM      1  C   UNL     1      48.261   6.653  13.794  0.00  0.00    +0.000 C 
ENDROOT
BRANCH   1   2
ATOM      2  C   UNL     1      47.054   6.208  13.009  0.00  0.00    +0.000 A 
ATOM      3  C   UNL     1      46.690   6.872  11.836  0.00  0.00    +0.000 A 
ATOM      4  C   UNL     1      45.639   6.397  11.044  0.00  0.00    +0.000 A 
ATOM      5  C   UNL     1      44.891   5.273  11.411  0.00  0.00    +0.000 A 
ATOM      6  C   UNL     1      45.231   4.643  12.618  0.00  0.00    +0.000 A 
ATOM      7  C   UNL     1      46.289   5.108  13.414  0.00  0.00    +0.000 A 
BRANCH   5   8
ATOM      8  N   UNL     1      43.926   4.693  10.580  0.00  0.00    +0.000 N 
ATOM      9  H   UNL     1      43.563   5.342   9.885  0.00  0.00    +0.000 HD
BRANCH   8  10
ATOM     10  C   UNL     1      44.089   3.309  10.128  0.00  0.00    +0.000 C 
BRANCH  10  11
ATOM     11  C   UNL     1      45.365   3.118   9.290  0.00  0.00    +0.000 C 
ATOM     12  C   UNL     1      45.378   4.061   8.081  0.00  0.00    +0.000 C 
ATOM     13  C   UNL     1      46.575   3.779   7.182  0.00  0.00    +0.000 C 
ATOM     14  C   UNL     1      46.633   2.308   6.775  0.00  0.00    +0.000 C 
ATOM     15  N   UNL     1      46.656   1.437   7.958  0.00  0.00    +0.000 NA
ATOM     16  C   UNL     1      46.743   0.031   7.555  0.00  0.00    +0.000 C 
ATOM     17  C   UNL     1      45.472   1.653   8.809  0.00  0.00    +0.000 C 
ENDBRANCH  10  11
ENDBRANCH   8  10
ENDBRANCH   5   8
ENDBRANCH   1   2
BRANCH   1  20
ATOM     18  C   UNL     1      49.052   6.439  16.115  0.00  0.00    +0.000 C 
ATOM     19  O   UNL     1      50.220   6.350  15.753  0.00  0.00    +0.000 OA
ATOM     20  N   UNL     1      48.032   6.587  15.216  0.00  0.00    +0.000 N 
ATOM     21  H   UNL     1      47.072   6.542  15.524  0.00  0.00    +0.000 HD
BRANCH  18  29
ATOM     22  C   UNL     1      47.774   8.791  18.291  0.00  0.00    +0.000 A 
ATOM     23  N   UNL     1      47.370   9.518  19.353  0.00  0.00    +0.000 NA
ATOM     24  C   UNL     1      47.314   8.921  20.543  0.00  0.00    +0.000 A 
ATOM     25  N   UNL     1      47.615   7.659  20.815  0.00  0.00    +0.000 NA
ATOM     26  C   UNL     1      48.030   6.969  19.734  0.00  0.00    +0.000 A 
ATOM     27  S   UNL     1      48.436   5.331  19.894  0.00  0.00    +0.000 S 
ATOM     28  C   UNL     1      48.836   5.218  18.247  0.00  0.00    +0.000 A 
ATOM     29  C   UNL     1      48.680   6.408  17.544  0.00  0.00    +0.000 A 
ATOM     30  C   UNL     1      48.159   7.450  18.432  0.00  0.00    +0.000 A 
BRANCH  22  32
ATOM     31  C   UNL     1      48.988  10.047  16.735  0.00  0.00    +0.000 C 
ATOM     32  O   UNL     1      47.754   9.399  17.050  0.00  0.00    +0.000 OA
ENDBRANCH  22  32
ENDBRANCH  18  29
ENDBRANCH   1  20
TORSDOF 7
ENDMDL
MODEL 3
REMARK VINA RESULT:    -7.150      1.881      3.368
REMARK INTER + INTRA:         -11.127
REMARK INTER:                 -10.037
REMARK INTRA:                  -1.090
REMARK UNBOUND:                -1.051
REMARK  Name = 
REMARK  9 active torsions:
REMARK  status: ('A' for Active; 'I' for Inactive)
REMARK    1  A    between atoms: C_1  and  O_2
REMARK    2  A    between atoms: O_2  and  C_3
REMARK    3  A    between atoms: C_10  and  C_11
REMARK    4  A    between atoms: N_13  and  C_14
REMARK    5  A    between atoms: C_14  and  C_15
REMARK    6  A    between atoms: C_18  and  N_19
REMARK    7  A    between atoms: N_19  and  C_20
REMARK    8  A    between atoms: C_20  and  C_21
REMARK    9  A    between atoms: N_25  and  C_26
REMARK                            x       y       z     vdW  Elec       q    Type
REMARK                         _______ _______ _______ _____ _____    ______ ____
ROOT
ATOM      1  C   UNL     1      46.717   4.426  14.762  0.00  0.00    +0.000 C 
ENDROOT
BRANCH   1   2
ATOM      2  C   UNL     1      46.096   4.634  13.405  0.00  0.00    +0.000 A 
ATOM      3  C   UNL     1      46.069   5.904  12.826  0.00  0.00    +0.000 A 
ATOM      4  C   UNL     1      45.596   6.085  11.522  0.00  0.00    +0.000 A 
ATOM      5  C   UNL     1      45.097   5.018  10.766  0.00  0.00    +0.000 A 
ATOM      6  C   UNL     1      45.080   3.753  11.375  0.00  0.00    +0.000 A 
ATOM      7  C   UNL     1      45.561   3.562  12.679  0.00  0.00    +0.000 A 
BRANCH   5   8
ATOM      8  N   UNL     1      44.742   5.137   9.418  0.00  0.00    +0.000 N 
ATOM      9  H   UNL     1      45.215   5.908   8.953  0.00  0.00    +0.000 HD
BRANCH   8  10
ATOM     10  C   UNL     1      44.549   3.933   8.605  0.00  0.00    +0.000 C 
BRANCH  10  11
ATOM     11  C   UNL     1      45.880   3.239   8.267  0.00  0.00    +0.000 C 
ATOM     12  C   UNL     1      46.477   3.793   6.968  0.00  0.00    +0.000 C 
ATOM     13  C   UNL     1      47.724   3.017   6.566  0.00  0.00    +0.000 C 
ATOM     14  C   UNL     1      47.445   1.517   6.487  0.00  0.00    +0.000 C 
ATOM     15  N   UNL     1      46.910   1.015   7.760  0.00  0.00    +0.000 NA
ATOM     16  C   UNL     1      46.678  -0.429   7.682  0.00  0.00    +0.000 C 
ATOM     17  C   UNL     1      45.668   1.714   8.134  0.00  0.00    +0.000 C 
ENDBRANCH  10  11
ENDBRANCH   8  10
ENDBRANCH   5   8
ENDBRANCH   1   2
BRANCH   1  20
ATOM     18  C   UNL     1      48.534   5.418  16.095  0.00  0.00    +0.000 C 
ATOM     19  O   UNL     1      48.741   4.359  16.677  0.00  0.00    +0.000 OA
ATOM     20  N   UNL     1      47.557   5.534  15.144  0.00  0.00    +0.000 N 
ATOM     21  H   UNL     1      47.325   6.439  14.761  0.00  0.00    +0.000 HD
BRANCH  18  29
ATOM     22  C   UNL     1      50.166   7.705  14.094  0.00  0.00    +0.000 A 
ATOM     23  N   UNL     1      50.948   8.670  13.567  0.00  0.00    +0.000 NA
ATOM     24  C   UNL     1      51.569   9.504  14.400  0.00  0.00    +0.000 A 
ATOM     25  N   UNL     1      51.506   9.500  15.724  0.00  0.00    +0.000 NA
ATOM     26  C   UNL     1      50.731   8.513  16.214  0.00  0.00    +0.000 A 
ATOM     27  S   UNL     1      50.518   8.371  17.890  0.00  0.00    +0.000 S 
ATOM     28  C   UNL     1      49.524   7.007  17.699  0.00  0.00    +0.000 A 
ATOM     29  C   UNL     1      49.336   6.626  16.375  0.00  0.00    +0.000 A 
ATOM     30  C   UNL     1      50.032   7.555  15.481  0.00  0.00    +0.000 A 
BRANCH  22  32
ATOM     31  C   UNL     1      49.169   7.547  11.984  0.00  0.00    +0.000 C 
ATOM     32  O   UNL     1      49.468   6.895  13.219  0.00  0.00    +0.000 OA
ENDBRANCH  22  32
ENDBRANCH  18  29
ENDBRANCH   1  20
TORSDOF 7
ENDMDL
MODEL 4
REMARK VINA RESULT:    -7.027      1.780      2.690
REMARK INTER + INTRA:         -10.954
REMARK INTER:                 -10.030
REMARK INTRA:                  -0.924
REMARK UNBOUND:                -1.051
REMARK  Name = 
REMARK  9 active torsions:
REMARK  status: ('A' for Active; 'I' for Inactive)
REMARK    1  A    between atoms: C_1  and  O_2
REMARK    2  A    between atoms: O_2  and  C_3
REMARK    3  A    between atoms: C_10  and  C_11
REMARK    4  A    between atoms: N_13  and  C_14
REMARK    5  A    between atoms: C_14  and  C_15
REMARK    6  A    between atoms: C_18  and  N_19
REMARK    7  A    between atoms: N_19  and  C_20
REMARK    8  A    between atoms: C_20  and  C_21
REMARK    9  A    between atoms: N_25  and  C_26
REMARK                            x       y       z     vdW  Elec       q    Type
REMARK                         _______ _______ _______ _____ _____    ______ ____
ROOT
ATOM      1  C   UNL     1      46.879   4.319  14.855  0.00  0.00    +0.000 C 
ENDROOT
BRANCH   1   2
ATOM      2  C   UNL     1      46.368   4.466  13.445  0.00  0.00    +0.000 A 
ATOM      3  C   UNL     1      45.624   3.443  12.852  0.00  0.00    +0.000 A 
ATOM      4  C   UNL     1      45.053   3.618  11.587  0.00  0.00    +0.000 A 
ATOM      5  C   UNL     1      45.235   4.795  10.853  0.00  0.00    +0.000 A 
ATOM      6  C   UNL     1      46.028   5.797  11.435  0.00  0.00    +0.000 A 
ATOM      7  C   UNL     1      46.597   5.633  12.707  0.00  0.00    +0.000 A 
BRANCH   5   8
ATOM      8  N   UNL     1      44.571   5.056   9.649  0.00  0.00    +0.000 N 
ATOM      9  H   UNL     1      44.768   5.985   9.284  0.00  0.00    +0.000 HD
BRANCH   8  10
ATOM     10  C   UNL     1      44.439   3.998   8.645  0.00  0.00    +0.000 C 
BRANCH  10  11
ATOM     11  C   UNL     1      45.784   3.319   8.335  0.00  0.00    +0.000 C 
ATOM     12  C   UNL     1      46.408   3.888   7.055  0.00  0.00    +0.000 C 
ATOM     13  C   UNL     1      47.672   3.126   6.678  0.00  0.00    +0.000 C 
ATOM     14  C   UNL     1      47.409   1.625   6.581  0.00  0.00    +0.000 C 
ATOM     15  N   UNL     1      46.846   1.108   7.836  0.00  0.00    +0.000 NA
ATOM     16  C   UNL     1      46.629  -0.338   7.741  0.00  0.00    +0.000 C 
ATOM     17  C   UNL     1      45.589   1.793   8.184  0.00  0.00    +0.000 C 
ENDBRANCH  10  11
ENDBRANCH   8  10
ENDBRANCH   5   8
ENDBRANCH   1   2
BRANCH   1  20
ATOM     18  C   UNL     1      48.529   5.518  16.232  0.00  0.00    +0.000 C 
ATOM     19  O   UNL     1      48.973   4.470  16.687  0.00  0.00    +0.000 OA
ATOM     20  N   UNL     1      47.500   5.530  15.330  0.00  0.00    +0.000 N 
ATOM     21  H   UNL     1      47.073   6.402  15.058  0.00  0.00    +0.000 HD
BRANCH  18  29
ATOM     22  C   UNL     1      47.964   7.658  18.878  0.00  0.00    +0.000 A 
ATOM     23  N   UNL     1      47.879   8.696  19.735  0.00  0.00    +0.000 NA
ATOM     24  C   UNL     1      48.631   9.771  19.501  0.00  0.00    +0.000 A 
ATOM     25  N   UNL     1      49.480   9.945  18.499  0.00  0.00    +0.000 NA
ATOM     26  C   UNL     1      49.525   8.896  17.655  0.00  0.00    +0.000 A 
ATOM     27  S   UNL     1      50.576   8.937  16.325  0.00  0.00    +0.000 S 
ATOM     28  C   UNL     1      50.063   7.402  15.808  0.00  0.00    +0.000 A 
ATOM     29  C   UNL     1      49.088   6.829  16.619  0.00  0.00    +0.000 A 
ATOM     30  C   UNL     1      48.794   7.713  17.750  0.00  0.00    +0.000 A 
BRANCH  22  32
ATOM     31  C   UNL     1      47.950   5.616  20.020  0.00  0.00    +0.000 C 
ATOM     32  O   UNL     1      47.238   6.519  19.173  0.00  0.00    +0.000 OA
ENDBRANCH  22  32
ENDBRANCH  18  29
ENDBRANCH   1  20
TORSDOF 7
ENDMDL
MODEL 5
REMARK VINA RESULT:    -6.965      1.385      2.013
REMARK INTER + INTRA:         -10.866
REMARK INTER:                  -9.774
REMARK INTRA:                  -1.092
REMARK UNBOUND:                -1.051
REMARK  Name = 
REMARK  9 active torsions:
REMARK  status: ('A' for Active; 'I' for Inactive)
REMARK    1  A    between atoms: C_1  and  O_2
REMARK    2  A    between atoms: O_2  and  C_3
REMARK    3  A    between atoms: C_10  and  C_11
REMARK    4  A    between atoms: N_13  and  C_14
REMARK    5  A    between atoms: C_14  and  C_15
REMARK    6  A    between atoms: C_18  and  N_19
REMARK    7  A    between atoms: N_19  and  C_20
REMARK    8  A    between atoms: C_20  and  C_21
REMARK    9  A    between atoms: N_25  and  C_26
REMARK                            x       y       z     vdW  Elec       q    Type
REMARK                         _______ _______ _______ _____ _____    ______ ____
ROOT
ATOM      1  C   UNL     1      48.336   8.739  14.325  0.00  0.00    +0.000 C 
ENDROOT
BRANCH   1   2
ATOM      2  C   UNL     1      47.281   8.086  13.471  0.00  0.00    +0.000 A 
ATOM      3  C   UNL     1      46.165   8.811  13.048  0.00  0.00    +0.000 A 
ATOM      4  C   UNL     1      45.239   8.245  12.165  0.00  0.00    +0.000 A 
ATOM      5  C   UNL     1      45.369   6.929  11.706  0.00  0.00    +0.000 A 
ATOM      6  C   UNL     1      46.466   6.191  12.177  0.00  0.00    +0.000 A 
ATOM      7  C   UNL     1      47.404   6.754  13.056  0.00  0.00    +0.000 A 
BRANCH   5   8
ATOM      8  N   UNL     1      44.541   6.378  10.722  0.00  0.00    +0.000 N 
ATOM      9  H   UNL     1      44.900   6.519   9.780  0.00  0.00    +0.000 HD
BRANCH   8  10
ATOM     10  C   UNL     1      43.882   5.091  10.960  0.00  0.00    +0.000 C 
BRANCH  10  11
ATOM     11  C   UNL     1      44.086   4.108   9.794  0.00  0.00    +0.000 C 
ATOM     12  C   UNL     1      44.202   2.666  10.302  0.00  0.00    +0.000 C 
ATOM     13  C   UNL     1      44.535   1.711   9.162  0.00  0.00    +0.000 C 
ATOM     14  C   UNL     1      45.779   2.164   8.401  0.00  0.00    +0.000 C 
ATOM     15  N   UNL     1      45.618   3.535   7.898  0.00  0.00    +0.000 NA
ATOM     16  C   UNL     1      46.804   3.945   7.143  0.00  0.00    +0.000 C 
ATOM     17  C   UNL     1      45.356   4.483   8.996  0.00  0.00    +0.000 C 
ENDBRANCH  10  11
ENDBRANCH   8  10
ENDBRANCH   5   8
ENDBRANCH   1   2
BRANCH   1  20
ATOM     18  C   UNL     1      49.362   7.226  15.973  0.00  0.00    +0.000 C 
ATOM     19  O   UNL     1      50.205   6.851  15.166  0.00  0.00    +0.000 OA
ATOM     20  N   UNL     1      48.408   8.148  15.638  0.00  0.00    +0.000 N 
ATOM     21  H   UNL     1      47.655   8.356  16.276  0.00  0.00    +0.000 HD
BRANCH  18  29
ATOM     22  C   UNL     1      48.559   4.176  17.369  0.00  0.00    +0.000 A 
ATOM     23  N   UNL     1      48.224   3.143  18.170  0.00  0.00    +0.000 NA
ATOM     24  C   UNL     1      48.315   3.311  19.489  0.00  0.00    +0.000 A 
ATOM     25  N   UNL     1      48.710   4.403  20.126  0.00  0.00    +0.000 NA
ATOM     26  C   UNL     1      49.019   5.419  19.296  0.00  0.00    +0.000 A 
ATOM     27  S   UNL     1      49.565   6.889  19.939  0.00  0.00    +0.000 S 
ATOM     28  C   UNL     1      49.702   7.574  18.391  0.00  0.00    +0.000 A 
ATOM     29  C   UNL     1      49.335   6.716  17.359  0.00  0.00    +0.000 A 
ATOM     30  C   UNL     1      48.961   5.408  17.903  0.00  0.00    +0.000 A 
BRANCH  22  32
ATOM     31  C   UNL     1      47.226   4.110  15.448  0.00  0.00    +0.000 C 
ATOM     32  O   UNL     1      48.534   3.965  16.004  0.00  0.00    +0.000 OA
ENDBRANCH  22  32
ENDBRANCH  18  29
ENDBRANCH   1  20
TORSDOF 7
ENDMDL
MODEL 6
REMARK VINA RESULT:    -6.795      2.180      2.579
REMARK INTER + INTRA:         -10.627
REMARK INTER:                  -9.771
REMARK INTRA:                  -0.856
REMARK UNBOUND:                -1.051
REMARK  Name = 
REMARK  9 active torsions:
REMARK  status: ('A' for Active; 'I' for Inactive)
REMARK    1  A    between atoms: C_1  and  O_2
REMARK    2  A    between atoms: O_2  and  C_3
REMARK    3  A    between atoms: C_10  and  C_11
REMARK    4  A    between atoms: N_13  and  C_14
REMARK    5  A    between atoms: C_14  and  C_15
REMARK    6  A    between atoms: C_18  and  N_19
REMARK    7  A    between atoms: N_19  and  C_20
REMARK    8  A    between atoms: C_20  and  C_21
REMARK    9  A    between atoms: N_25  and  C_26
REMARK                            x       y       z     vdW  Elec       q    Type
REMARK                         _______ _______ _______ _____ _____    ______ ____
ROOT
ATOM      1  C   UNL     1      46.415   4.659  14.925  0.00  0.00    +0.000 C 
ENDROOT
BRANCH   1   2
ATOM      2  C   UNL     1      45.989   4.876  13.496  0.00  0.00    +0.000 A 
ATOM      3  C   UNL     1      46.389   6.022  12.805  0.00  0.00    +0.000 A 
ATOM      4  C   UNL     1      46.091   6.176  11.447  0.00  0.00    +0.000 A 
ATOM      5  C   UNL     1      45.355   5.218  10.741  0.00  0.00    +0.000 A 
ATOM      6  C   UNL     1      44.914   4.094  11.457  0.00  0.00    +0.000 A 
ATOM      7  C   UNL     1      45.214   3.928  12.817  0.00  0.00    +0.000 A 
BRANCH   5   8
ATOM      8  N   UNL     1      45.155   5.274   9.357  0.00  0.00    +0.000 N 
ATOM      9  H   UNL     1      45.800   5.910   8.892  0.00  0.00    +0.000 HD
BRANCH   8  10
ATOM     10  C   UNL     1      44.828   4.053   8.617  0.00  0.00    +0.000 C 
BRANCH  10  11
ATOM     11  C   UNL     1      46.086   3.269   8.203  0.00  0.00    +0.000 C 
ATOM     12  C   UNL     1      46.614   3.750   6.846  0.00  0.00    +0.000 C 
ATOM     13  C   UNL     1      47.778   2.886   6.377  0.00  0.00    +0.000 C 
ATOM     14  C   UNL     1      47.405   1.405   6.367  0.00  0.00    +0.000 C 
ATOM     15  N   UNL     1      46.939   0.972   7.692  0.00  0.00    +0.000 NA
ATOM     16  C   UNL     1      46.616  -0.456   7.678  0.00  0.00    +0.000 C 
ATOM     17  C   UNL     1      45.774   1.757   8.135  0.00  0.00    +0.000 C 
ENDBRANCH  10  11
ENDBRANCH   8  10
ENDBRANCH   5   8
ENDBRANCH   1   2
BRANCH   1  20
ATOM     18  C   UNL     1      48.264   5.264  16.434  0.00  0.00    +0.000 C 
ATOM     19  O   UNL     1      47.620   4.932  17.423  0.00  0.00    +0.000 OA
ATOM     20  N   UNL     1      47.743   5.163  15.173  0.00  0.00    +0.000 N 
ATOM     21  H   UNL     1      48.242   5.549  14.384  0.00  0.00    +0.000 HD
BRANCH  18  29
ATOM     22  C   UNL     1      51.170   3.999  17.796  0.00  0.00    +0.000 A 
ATOM     23  N   UNL     1      52.397   3.791  18.315  0.00  0.00    +0.000 NA
ATOM     24  C   UNL     1      53.311   4.751  18.179  0.00  0.00    +0.000 A 
ATOM     25  N   UNL     1      53.154   5.920  17.574  0.00  0.00    +0.000 NA
ATOM     26  C   UNL     1      51.911   6.099  17.083  0.00  0.00    +0.000 A 
ATOM     27  S   UNL     1      51.537   7.531  16.256  0.00  0.00    +0.000 S 
ATOM     28  C   UNL     1      49.934   7.027  16.007  0.00  0.00    +0.000 A 
ATOM     29  C   UNL     1      49.644   5.777  16.544  0.00  0.00    +0.000 A 
ATOM     30  C   UNL     1      50.845   5.204  17.158  0.00  0.00    +0.000 A 
BRANCH  22  32
ATOM     31  C   UNL     1      50.627   1.838  17.082  0.00  0.00    +0.000 C 
ATOM     32  O   UNL     1      50.255   2.966  17.876  0.00  0.00    +0.000 OA
ENDBRANCH  22  32
ENDBRANCH  18  29
ENDBRANCH   1  20
TORSDOF 7
ENDMDL
MODEL 7
REMARK VINA RESULT:    -6.259      2.256      3.820
REMARK INTER + INTRA:          -9.871
REMARK INTER:                  -8.838
REMARK INTRA:                  -1.033
REMARK UNBOUND:                -1.051
REMARK  Name = 
REMARK  9 active torsions:
REMARK  status: ('A' for Active; 'I' for Inactive)
REMARK    1  A    between atoms: C_1  and  O_2
REMARK    2  A    between atoms: O_2  and  C_3
REMARK    3  A    between atoms: C_10  and  C_11
REMARK    4  A    between atoms: N_13  and  C_14
REMARK    5  A    between atoms: C_14  and  C_15
REMARK    6  A    between atoms: C_18  and  N_19
REMARK    7  A    between atoms: N_19  and  C_20
REMARK    8  A    between atoms: C_20  and  C_21
REMARK    9  A    between atoms: N_25  and  C_26
REMARK                            x       y       z     vdW  Elec       q    Type
REMARK                         _______ _______ _______ _____ _____    ______ ____
ROOT
ATOM      1  C   UNL     1      47.548   5.253  14.808  0.00  0.00    +0.000 C 
ENDROOT
BRANCH   1   2
ATOM      2  C   UNL     1      46.827   5.324  13.487  0.00  0.00    +0.000 A 
ATOM      3  C   UNL     1      47.149   6.317  12.559  0.00  0.00    +0.000 A 
ATOM      4  C   UNL     1      46.564   6.322  11.288  0.00  0.00    +0.000 A 
ATOM      5  C   UNL     1      45.614   5.367  10.911  0.00  0.00    +0.000 A 
ATOM      6  C   UNL     1      45.259   4.404  11.868  0.00  0.00    +0.000 A 
ATOM      7  C   UNL     1      45.846   4.387  13.143  0.00  0.00    +0.000 A 
BRANCH   5   8
ATOM      8  N   UNL     1      45.111   5.261   9.610  0.00  0.00    +0.000 N 
ATOM      9  H   UNL     1      45.821   5.420   8.899  0.00  0.00    +0.000 HD
BRANCH   8  10
ATOM     10  C   UNL     1      44.119   4.231   9.292  0.00  0.00    +0.000 C 
BRANCH  10  11
ATOM     11  C   UNL     1      44.683   3.149   8.357  0.00  0.00    +0.000 C 
ATOM     12  C   UNL     1      45.346   2.020   9.155  0.00  0.00    +0.000 C 
ATOM     13  C   UNL     1      46.019   1.016   8.227  0.00  0.00    +0.000 C 
ATOM     14  C   UNL     1      46.992   1.705   7.273  0.00  0.00    +0.000 C 
ATOM     15  N   UNL     1      46.314   2.755   6.499  0.00  0.00    +0.000 NA
ATOM     16  C   UNL     1      47.250   3.386   5.565  0.00  0.00    +0.000 C 
ATOM     17  C   UNL     1      45.710   3.768   7.381  0.00  0.00    +0.000 C 
ENDBRANCH  10  11
ENDBRANCH   8  10
ENDBRANCH   5   8
ENDBRANCH   1   2
BRANCH   1  20
ATOM     18  C   UNL     1      49.089   6.828  15.906  0.00  0.00    +0.000 C 
ATOM     19  O   UNL     1      49.939   5.957  16.053  0.00  0.00    +0.000 OA
ATOM     20  N   UNL     1      47.888   6.563  15.307  0.00  0.00    +0.000 N 
ATOM     21  H   UNL     1      47.158   7.259  15.299  0.00  0.00    +0.000 HD
BRANCH  18  29
ATOM     22  C   UNL     1      51.406   9.244  15.073  0.00  0.00    +0.000 A 
ATOM     23  N   UNL     1      52.221  10.316  15.005  0.00  0.00    +0.000 NA
ATOM     24  C   UNL     1      51.968  11.354  15.802  0.00  0.00    +0.000 A 
ATOM     25  N   UNL     1      50.979  11.462  16.677  0.00  0.00    +0.000 NA
ATOM     26  C   UNL     1      50.196  10.366  16.730  0.00  0.00    +0.000 A 
ATOM     27  S   UNL     1      48.867  10.337  17.782  0.00  0.00    +0.000 S 
ATOM     28  C   UNL     1      48.460   8.758  17.305  0.00  0.00    +0.000 A 
ATOM     29  C   UNL     1      49.316   8.217  16.352  0.00  0.00    +0.000 A 
ATOM     30  C   UNL     1      50.337   9.199  15.980  0.00  0.00    +0.000 A 
BRANCH  22  32
ATOM     31  C   UNL     1      52.397   8.611  13.051  0.00  0.00    +0.000 C 
ATOM     32  O   UNL     1      51.633   8.207  14.188  0.00  0.00    +0.000 OA
ENDBRANCH  22  32
ENDBRANCH  18  29
ENDBRANCH   1  20
TORSDOF 7
ENDMDL
MODEL 8
REMARK VINA RESULT:    -6.226      2.662      3.212
REMARK INTER + INTRA:          -9.825
REMARK INTER:                  -8.788
REMARK INTRA:                  -1.036
REMARK UNBOUND:                -1.051
REMARK  Name = 
REMARK  9 active torsions:
REMARK  status: ('A' for Active; 'I' for Inactive)
REMARK    1  A    between atoms: C_1  and  O_2
REMARK    2  A    between atoms: O_2  and  C_3
REMARK    3  A    between atoms: C_10  and  C_11
REMARK    4  A    between atoms: N_13  and  C_14
REMARK    5  A    between atoms: C_14  and  C_15
REMARK    6  A    between atoms: C_18  and  N_19
REMARK    7  A    between atoms: N_19  and  C_20
REMARK    8  A    between atoms: C_20  and  C_21
REMARK    9  A    between atoms: N_25  and  C_26
REMARK                            x       y       z     vdW  Elec       q    Type
REMARK                         _______ _______ _______ _____ _____    ______ ____
ROOT
ATOM      1  C   UNL     1      47.239   5.716  14.721  0.00  0.00    +0.000 C 
ENDROOT
BRANCH   1   2
ATOM      2  C   UNL     1      46.654   5.670  13.333  0.00  0.00    +0.000 A 
ATOM      3  C   UNL     1      47.092   6.562  12.352  0.00  0.00    +0.000 A 
ATOM      4  C   UNL     1      46.636   6.452  11.033  0.00  0.00    +0.000 A 
ATOM      5  C   UNL     1      45.702   5.482  10.656  0.00  0.00    +0.000 A 
ATOM      6  C   UNL     1      45.228   4.623  11.660  0.00  0.00    +0.000 A 
ATOM      7  C   UNL     1      45.687   4.720  12.983  0.00  0.00    +0.000 A 
BRANCH   5   8
ATOM      8  N   UNL     1      45.327   5.258   9.327  0.00  0.00    +0.000 N 
ATOM      9  H   UNL     1      46.117   5.281   8.686  0.00  0.00    +0.000 HD
BRANCH   8  10
ATOM     10  C   UNL     1      44.291   4.269   9.017  0.00  0.00    +0.000 C 
BRANCH  10  11
ATOM     11  C   UNL     1      44.831   3.108   8.165  0.00  0.00    +0.000 C 
ATOM     12  C   UNL     1      45.412   1.998   9.048  0.00  0.00    +0.000 C 
ATOM     13  C   UNL     1      46.064   0.911   8.202  0.00  0.00    +0.000 C 
ATOM     14  C   UNL     1      47.099   1.497   7.244  0.00  0.00    +0.000 C 
ATOM     15  N   UNL     1      46.498   2.530   6.389  0.00  0.00    +0.000 NA
ATOM     16  C   UNL     1      47.493   3.060   5.454  0.00  0.00    +0.000 C 
ATOM     17  C   UNL     1      45.917   3.621   7.191  0.00  0.00    +0.000 C 
ENDBRANCH  10  11
ENDBRANCH   8  10
ENDBRANCH   5   8
ENDBRANCH   1   2
BRANCH   1  20
ATOM     18  C   UNL     1      49.139   7.133  15.385  0.00  0.00    +0.000 C 
ATOM     19  O   UNL     1      48.413   7.869  16.044  0.00  0.00    +0.000 OA
ATOM     20  N   UNL     1      48.640   6.057  14.703  0.00  0.00    +0.000 N 
ATOM     21  H   UNL     1      49.231   5.534  14.075  0.00  0.00    +0.000 HD
BRANCH  18  29
ATOM     22  C   UNL     1      51.857   5.730  16.978  0.00  0.00    +0.000 A 
ATOM     23  N   UNL     1      53.063   5.427  17.501  0.00  0.00    +0.000 NA
ATOM     24  C   UNL     1      54.129   6.096  17.061  0.00  0.00    +0.000 A 
ATOM     25  N   UNL     1      54.145   7.050  16.141  0.00  0.00    +0.000 NA
ATOM     26  C   UNL     1      52.921   7.338  15.655  0.00  0.00    +0.000 A 
ATOM     27  S   UNL     1      52.757   8.520  14.451  0.00  0.00    +0.000 S 
ATOM     28  C   UNL     1      51.071   8.312  14.407  0.00  0.00    +0.000 A 
ATOM     29  C   UNL     1      50.596   7.356  15.299  0.00  0.00    +0.000 A 
ATOM     30  C   UNL     1      51.714   6.744  16.021  0.00  0.00    +0.000 A 
BRANCH  22  32
ATOM     31  C   UNL     1      51.108   3.609  17.620  0.00  0.00    +0.000 C 
ATOM     32  O   UNL     1      50.772   4.978  17.387  0.00  0.00    +0.000 OA
ENDBRANCH  22  32
ENDBRANCH  18  29
ENDBRANCH   1  20
TORSDOF 7
ENDMDL
MODEL 9
REMARK VINA RESULT:    -6.016      2.020      3.212
REMARK INTER + INTRA:          -9.528
REMARK INTER:                  -8.245
REMARK INTRA:                  -1.283
REMARK UNBOUND:                -1.051
REMARK  Name = 
REMARK  9 active torsions:
REMARK  status: ('A' for Active; 'I' for Inactive)
REMARK    1  A    between atoms: C_1  and  O_2
REMARK    2  A    between atoms: O_2  and  C_3
REMARK    3  A    between atoms: C_10  and  C_11
REMARK    4  A    between atoms: N_13  and  C_14
REMARK    5  A    between atoms: C_14  and  C_15
REMARK    6  A    between atoms: C_18  and  N_19
REMARK    7  A    between atoms: N_19  and  C_20
REMARK    8  A    between atoms: C_20  and  C_21
REMARK    9  A    between atoms: N_25  and  C_26
REMARK                            x       y       z     vdW  Elec       q    Type
REMARK                         _______ _______ _______ _____ _____    ______ ____
ROOT
ATOM      1  C   UNL     1      50.657   7.722  14.350  0.00  0.00    +0.000 C 
ENDROOT
BRANCH   1   2
ATOM      2  C   UNL     1      49.402   7.420  13.572  0.00  0.00    +0.000 A 
ATOM      3  C   UNL     1      48.234   7.037  14.235  0.00  0.00    +0.000 A 
ATOM      4  C   UNL     1      47.038   6.864  13.530  0.00  0.00    +0.000 A 
ATOM      5  C   UNL     1      46.972   7.027  12.141  0.00  0.00    +0.000 A 
ATOM      6  C   UNL     1      48.163   7.361  11.478  0.00  0.00    +0.000 A 
ATOM      7  C   UNL     1      49.365   7.545  12.178  0.00  0.00    +0.000 A 
BRANCH   5   8
ATOM      8  N   UNL     1      45.771   6.994  11.424  0.00  0.00    +0.000 N 
ATOM      9  H   UNL     1      45.895   6.687  10.462  0.00  0.00    +0.000 HD
BRANCH   8  10
ATOM     10  C   UNL     1      44.543   6.538  12.080  0.00  0.00    +0.000 C 
BRANCH  10  11
ATOM     11  C   UNL     1      43.924   5.320  11.373  0.00  0.00    +0.000 C 
ATOM     12  C   UNL     1      43.892   4.100  12.302  0.00  0.00    +0.000 C 
ATOM     13  C   UNL     1      43.401   2.862  11.562  0.00  0.00    +0.000 C 
ATOM     14  C   UNL     1      44.219   2.610  10.297  0.00  0.00    +0.000 C 
ATOM     15  N   UNL     1      44.197   3.785   9.414  0.00  0.00    +0.000 NA
ATOM     16  C   UNL     1      44.956   3.519   8.191  0.00  0.00    +0.000 C 
ATOM     17  C   UNL     1      44.726   4.979  10.096  0.00  0.00    +0.000 C 
ENDBRANCH  10  11
ENDBRANCH   8  10
ENDBRANCH   5   8
ENDBRANCH   1   2
BRANCH   1  20
ATOM     18  C   UNL     1      51.637   6.770  16.398  0.00  0.00    +0.000 C 
ATOM     19  O   UNL     1      52.740   6.669  15.872  0.00  0.00    +0.000 OA
ATOM     20  N   UNL     1      50.562   7.274  15.718  0.00  0.00    +0.000 N 
ATOM     21  H   UNL     1      49.640   7.241  16.126  0.00  0.00    +0.000 HD
BRANCH  18  29
ATOM     22  C   UNL     1      49.268   4.798  17.947  0.00  0.00    +0.000 A 
ATOM     23  N   UNL     1      48.439   4.165  18.802  0.00  0.00    +0.000 NA
ATOM     24  C   UNL     1      48.704   4.235  20.106  0.00  0.00    +0.000 A 
ATOM     25  N   UNL     1      49.717   4.869  20.680  0.00  0.00    +0.000 NA
ATOM     26  C   UNL     1      50.513   5.503  19.797  0.00  0.00    +0.000 A 
ATOM     27  S   UNL     1      51.872   6.348  20.354  0.00  0.00    +0.000 S 
ATOM     28  C   UNL     1      52.284   6.827  18.777  0.00  0.00    +0.000 A 
ATOM     29  C   UNL     1      51.406   6.367  17.800  0.00  0.00    +0.000 A 
ATOM     30  C   UNL     1      50.363   5.540  18.411  0.00  0.00    +0.000 A 
BRANCH  22  32
ATOM     31  C   UNL     1      47.720   4.150  16.318  0.00  0.00    +0.000 C 
ATOM     32  O   UNL     1      49.028   4.654  16.594  0.00  0.00    +0.000 OA
ENDBRANCH  22  32
ENDBRANCH  18  29
ENDBRANCH   1  20
TORSDOF 7
ENDMDL
