MODEL 1
REMARK VINA RESULT:    -7.894      0.000      0.000
REMARK INTER + INTRA:         -12.075
REMARK INTER:                 -11.125
REMARK INTRA:                  -0.949
REMARK UNBOUND:                -0.949
REMARK  Name = 
REMARK  7 active torsions:
REMARK  status: ('A' for Active; 'I' for Inactive)
REMARK    1  A    between atoms: C_2  and  C_21
REMARK    2  A    between atoms: N_3  and  C_4
REMARK    3  A    between atoms: C_4  and  C_5
REMARK    4  A    between atoms: C_8  and  C_9
REMARK    5  A    between atoms: C_9  and  O_10
REMARK    6  A    between atoms: O_10  and  C_11
REMARK    7  A    between atoms: C_11  and  C_12
REMARK                            x       y       z     vdW  Elec       q    Type
REMARK                         _______ _______ _______ _____ _____    ______ ____
ROOT
ATOM      1  C   UNL     1      46.570   7.571  13.110  0.00  0.00    +0.000 C 
ENDROOT
BRANCH   1   2
ATOM      2  C   UNL     1      45.874   6.425  12.414  0.00  0.00    +0.000 A 
ATOM      3  C   UNL     1      46.005   6.244  11.039  0.00  0.00    +0.000 A 
ATOM      4  C   UNL     1      45.341   5.177  10.432  0.00  0.00    +0.000 A 
ATOM      5  C   UNL     1      44.573   4.304  11.205  0.00  0.00    +0.000 A 
ATOM      6  C   UNL     1      44.530   4.543  12.573  0.00  0.00    +0.000 A 
ATOM      7  N   UNL     1      45.154   5.575  13.188  0.00  0.00    +0.000 NA
BRANCH   5   8
ATOM      8  C   UNL     1      43.794   3.178  10.593  0.00  0.00    +0.000 C 
BRANCH   8   9
ATOM      9  O   UNL     1      44.182   3.013   9.233  0.00  0.00    +0.000 OA
BRANCH   9  10
ATOM     10  C   UNL     1      45.258   2.082   9.110  0.00  0.00    +0.000 C 
BRANCH  10  11
ATOM     11  C   UNL     1      46.050   2.334   7.849  0.00  0.00    +0.000 A 
ATOM     12  N   UNL     1      46.083   3.628   7.411  0.00  0.00    +0.000 NA
ATOM     13  C   UNL     1      46.794   3.895   6.293  0.00  0.00    +0.000 A 
ATOM     14  C   UNL     1      47.489   2.936   5.578  0.00  0.00    +0.000 A 
ATOM     15  C   UNL     1      47.458   1.624   6.038  0.00  0.00    +0.000 A 
ATOM     16  C   UNL     1      46.736   1.310   7.189  0.00  0.00    +0.000 A 
ATOM     17 CL   UNL     1      46.761  -0.320   7.750  0.00  0.00    +0.000 Cl
ENDBRANCH  10  11
ENDBRANCH   9  10
ENDBRANCH   8   9
ENDBRANCH   5   8
ENDBRANCH   1   2
BRANCH   1  20
ATOM     18  O   UNL     1      49.080   6.416  13.301  0.00  0.00    +0.000 OA
ATOM     19  C   UNL     1      48.477   6.662  14.345  0.00  0.00    +0.000 C 
ATOM     20  N   UNL     1      47.197   7.156  14.344  0.00  0.00    +0.000 N 
ATOM     21  H   UNL     1      46.848   7.609  15.184  0.00  0.00    +0.000 HD
BRANCH  19  22
ATOM     22  C   UNL     1      49.066   6.370  15.656  0.00  0.00    +0.000 A 
ATOM     23  C   UNL     1      50.142   7.119  16.113  0.00  0.00    +0.000 A 
ATOM     24  S   UNL     1      50.729   6.617  17.633  0.00  0.00    +0.000 S 
ATOM     25  C   UNL     1      49.529   5.416  17.761  0.00  0.00    +0.000 A 
ATOM     26  N   UNL     1      49.446   4.618  18.861  0.00  0.00    +0.000 NA
ATOM     27  C   UNL     1      48.465   3.779  18.836  0.00  0.00    +0.000 A 
ATOM     28  N   UNL     1      47.565   3.656  17.808  0.00  0.00    +0.000 N 
ATOM     29  C   UNL     1      47.638   4.409  16.665  0.00  0.00    +0.000 A 
ATOM     30  O   UNL     1      46.858   4.232  15.737  0.00  0.00    +0.000 OA
ATOM     31  C   UNL     1      48.707   5.387  16.648  0.00  0.00    +0.000 A 
ATOM     32  H   UNL     1      46.827   2.969  17.844  0.00  0.00    +0.000 HD
ENDBRANCH  19  22
ENDBRANCH   1  20
TORSDOF 7
ENDMDL
MODEL 2
REMARK VINA RESULT:    -7.819      1.982      2.398
REMARK INTER + INTRA:         -11.968
REMARK INTER:                 -10.981
REMARK INTRA:                  -0.987
REMARK UNBOUND:                -0.949
REMARK  Name = 
REMARK  7 active torsions:
REMARK  status: ('A' for Active; 'I' for Inactive)
REMARK    1  A    between atoms: C_2  and  C_21
REMARK    2  A    between atoms: N_3  and  C_4
REMARK    3  A    between atoms: C_4  and  C_5
REMARK    4  A    between atoms: C_8  and  C_9
REMARK    5  A    between atoms: C_9  and  O_10
REMARK    6  A    between atoms: O_10  and  C_11
REMARK    7  A    between atoms: C_11  and  C_12
REMARK                            x       y       z     vdW  Elec       q    Type
REMARK                         _______ _______ _______ _____ _____    ______ ____
ROOT
ATOM      1  C   UNL     1      48.281   7.395  13.954  0.00  0.00    +0.000 C 
ENDROOT
BRANCH   1   2
ATOM      2  C   UNL     1      47.254   6.509  13.287  0.00  0.00    +0.000 A 
ATOM      3  C   UNL     1      46.939   5.261  13.820  0.00  0.00    +0.000 A 
ATOM      4  C   UNL     1      45.991   4.470  13.171  0.00  0.00    +0.000 A 
ATOM      5  C   UNL     1      45.365   4.940  12.016  0.00  0.00    +0.000 A 
ATOM      6  C   UNL     1      45.717   6.210  11.578  0.00  0.00    +0.000 A 
ATOM      7  N   UNL     1      46.641   6.996  12.180  0.00  0.00    +0.000 NA
BRANCH   5   8
ATOM      8  C   UNL     1      44.382   4.104  11.250  0.00  0.00    +0.000 C 
BRANCH   8   9
ATOM      9  O   UNL     1      45.011   2.901  10.819  0.00  0.00    +0.000 OA
BRANCH   9  10
ATOM     10  C   UNL     1      44.511   2.481   9.549  0.00  0.00    +0.000 C 
BRANCH  10  11
ATOM     11  C   UNL     1      45.642   2.200   8.589  0.00  0.00    +0.000 A 
ATOM     12  N   UNL     1      45.913   0.882   8.352  0.00  0.00    +0.000 NA
ATOM     13  C   UNL     1      46.910   0.591   7.487  0.00  0.00    +0.000 A 
ATOM     14  C   UNL     1      47.660   1.550   6.830  0.00  0.00    +0.000 A 
ATOM     15  C   UNL     1      47.370   2.889   7.069  0.00  0.00    +0.000 A 
ATOM     16  C   UNL     1      46.346   3.227   7.955  0.00  0.00    +0.000 A 
ATOM     17 CL   UNL     1      45.988   4.898   8.188  0.00  0.00    +0.000 Cl
ENDBRANCH  10  11
ENDBRANCH   9  10
ENDBRANCH   8   9
ENDBRANCH   5   8
ENDBRANCH   1   2
BRANCH   1  20
ATOM     18  O   UNL     1      50.278   6.440  15.618  0.00  0.00    +0.000 OA
ATOM     19  C   UNL     1      49.269   6.912  16.140  0.00  0.00    +0.000 C 
ATOM     20  N   UNL     1      48.196   7.332  15.395  0.00  0.00    +0.000 N 
ATOM     21  H   UNL     1      47.525   7.966  15.821  0.00  0.00    +0.000 HD
BRANCH  19  22
ATOM     22  C   UNL     1      49.125   6.987  17.598  0.00  0.00    +0.000 A 
ATOM     23  C   UNL     1      49.148   8.221  18.233  0.00  0.00    +0.000 A 
ATOM     24  S   UNL     1      49.011   8.120  19.930  0.00  0.00    +0.000 S 
ATOM     25  C   UNL     1      48.860   6.426  19.871  0.00  0.00    +0.000 A 
ATOM     26  N   UNL     1      48.683   5.695  21.007  0.00  0.00    +0.000 NA
ATOM     27  C   UNL     1      48.546   4.427  20.807  0.00  0.00    +0.000 A 
ATOM     28  N   UNL     1      48.579   3.819  19.578  0.00  0.00    +0.000 N 
ATOM     29  C   UNL     1      48.797   4.511  18.413  0.00  0.00    +0.000 A 
ATOM     30  O   UNL     1      48.885   3.932  17.338  0.00  0.00    +0.000 OA
ATOM     31  C   UNL     1      48.934   5.945  18.576  0.00  0.00    +0.000 A 
ATOM     32  H   UNL     1      48.479   2.819  19.489  0.00  0.00    +0.000 HD
ENDBRANCH  19  22
ENDBRANCH   1  20
TORSDOF 7
ENDMDL
MODEL 3
REMARK VINA RESULT:    -7.726      2.571      3.498
REMARK INTER + INTRA:         -11.837
REMARK INTER:                 -10.874
REMARK INTRA:                  -0.963
REMARK UNBOUND:                -0.949
REMARK  Name = 
REMARK  7 active torsions:
REMARK  status: ('A' for Active; 'I' for Inactive)
REMARK    1  A    between atoms: C_2  and  C_21
REMARK    2  A    between atoms: N_3  and  C_4
REMARK    3  A    between atoms: C_4  and  C_5
REMARK    4  A    between atoms: C_8  and  C_9
REMARK    5  A    between atoms: C_9  and  O_10
REMARK    6  A    between atoms: O_10  and  C_11
REMARK    7  A    between atoms: C_11  and  C_12
REMARK                            x       y       z     vdW  Elec       q    Type
REMARK                         _______ _______ _______ _____ _____    ______ ____
ROOT
ATOM      1  C   UNL     1      47.523   4.046  15.527  0.00  0.00    +0.000 C 
ENDROOT
BRANCH   1   2
ATOM      2  C   UNL     1      46.887   4.481  14.227  0.00  0.00    +0.000 A 
ATOM      3  C   UNL     1      47.181   5.727  13.675  0.00  0.00    +0.000 A 
ATOM      4  C   UNL     1      46.568   6.095  12.477  0.00  0.00    +0.000 A 
ATOM      5  C   UNL     1      45.690   5.215  11.845  0.00  0.00    +0.000 A 
ATOM      6  C   UNL     1      45.485   3.982  12.451  0.00  0.00    +0.000 A 
ATOM      7  N   UNL     1      46.056   3.601  13.617  0.00  0.00    +0.000 NA
BRANCH   5   8
ATOM      8  C   UNL     1      44.962   5.587  10.586  0.00  0.00    +0.000 C 
BRANCH   8   9
ATOM      9  O   UNL     1      45.767   5.267   9.457  0.00  0.00    +0.000 OA
BRANCH   9  10
ATOM     10  C   UNL     1      45.051   4.457   8.523  0.00  0.00    +0.000 C 
BRANCH  10  11
ATOM     11  C   UNL     1      45.914   3.327   8.014  0.00  0.00    +0.000 A 
ATOM     12  N   UNL     1      46.971   3.688   7.227  0.00  0.00    +0.000 NA
ATOM     13  C   UNL     1      47.774   2.705   6.764  0.00  0.00    +0.000 A 
ATOM     14  C   UNL     1      47.589   1.364   7.048  0.00  0.00    +0.000 A 
ATOM     15  C   UNL     1      46.517   1.007   7.859  0.00  0.00    +0.000 A 
ATOM     16  C   UNL     1      45.666   1.995   8.356  0.00  0.00    +0.000 A 
ATOM     17 CL   UNL     1      44.377   1.514   9.395  0.00  0.00    +0.000 Cl
ENDBRANCH  10  11
ENDBRANCH   9  10
ENDBRANCH   8   9
ENDBRANCH   5   8
ENDBRANCH   1   2
BRANCH   1  20
ATOM     18  O   UNL     1      49.686   5.331  16.684  0.00  0.00    +0.000 OA
ATOM     19  C   UNL     1      48.557   5.701  17.004  0.00  0.00    +0.000 C 
ATOM     20  N   UNL     1      47.429   5.067  16.545  0.00  0.00    +0.000 N 
ATOM     21  H   UNL     1      46.541   5.559  16.589  0.00  0.00    +0.000 HD
BRANCH  19  22
ATOM     22  C   UNL     1      48.351   6.798  17.956  0.00  0.00    +0.000 A 
ATOM     23  C   UNL     1      48.282   6.529  19.316  0.00  0.00    +0.000 A 
ATOM     24  S   UNL     1      47.996   7.911  20.273  0.00  0.00    +0.000 S 
ATOM     25  C   UNL     1      48.009   8.926  18.907  0.00  0.00    +0.000 A 
ATOM     26  N   UNL     1      47.842  10.273  19.028  0.00  0.00    +0.000 NA
ATOM     27  C   UNL     1      47.913  10.920  17.914  0.00  0.00    +0.000 A 
ATOM     28  N   UNL     1      48.124  10.346  16.686  0.00  0.00    +0.000 N 
ATOM     29  C   UNL     1      48.256   8.991  16.513  0.00  0.00    +0.000 A 
ATOM     30  O   UNL     1      48.380   8.503  15.397  0.00  0.00    +0.000 OA
ATOM     31  C   UNL     1      48.208   8.216  17.736  0.00  0.00    +0.000 A 
ATOM     32  H   UNL     1      48.156  10.907  15.848  0.00  0.00    +0.000 HD
ENDBRANCH  19  22
ENDBRANCH   1  20
TORSDOF 7
ENDMDL
MODEL 4
REMARK VINA RESULT:    -7.652      2.163      3.168
REMARK INTER + INTRA:         -11.733
REMARK INTER:                 -10.662
REMARK INTRA:                  -1.071
REMARK UNBOUND:                -0.949
REMARK  Name = 
REMARK  7 active torsions:
REMARK  status: ('A' for Active; 'I' for Inactive)
REMARK    1  A    between atoms: C_2  and  C_21
REMARK    2  A    between atoms: N_3  and  C_4
REMARK    3  A    between atoms: C_4  and  C_5
REMARK    4  A    between atoms: C_8  and  C_9
REMARK    5  A    between atoms: C_9  and  O_10
REMARK    6  A    between atoms: O_10  and  C_11
REMARK    7  A    between atoms: C_11  and  C_12
REMARK                            x       y       z     vdW  Elec       q    Type
REMARK                         _______ _______ _______ _____ _____    ______ ____
ROOT
ATOM      1  C   UNL     1      47.525   3.444  15.161  0.00  0.00    +0.000 C 
ENDROOT
BRANCH   1   2
ATOM      2  C   UNL     1      46.822   4.008  13.948  0.00  0.00    +0.000 A 
ATOM      3  C   UNL     1      46.988   5.345  13.590  0.00  0.00    +0.000 A 
ATOM      4  C   UNL     1      46.316   5.830  12.467  0.00  0.00    +0.000 A 
ATOM      5  C   UNL     1      45.507   4.976  11.716  0.00  0.00    +0.000 A 
ATOM      6  C   UNL     1      45.431   3.652  12.129  0.00  0.00    +0.000 A 
ATOM      7  N   UNL     1      46.061   3.155  13.219  0.00  0.00    +0.000 NA
BRANCH   5   8
ATOM      8  C   UNL     1      44.719   5.463  10.536  0.00  0.00    +0.000 C 
BRANCH   8   9
ATOM      9  O   UNL     1      45.477   5.276   9.345  0.00  0.00    +0.000 OA
BRANCH   9  10
ATOM     10  C   UNL     1      44.827   4.368   8.455  0.00  0.00    +0.000 C 
BRANCH  10  11
ATOM     11  C   UNL     1      45.788   3.310   7.965  0.00  0.00    +0.000 A 
ATOM     12  N   UNL     1      46.822   3.753   7.189  0.00  0.00    +0.000 NA
ATOM     13  C   UNL     1      47.710   2.837   6.744  0.00  0.00    +0.000 A 
ATOM     14  C   UNL     1      47.633   1.488   7.036  0.00  0.00    +0.000 A 
ATOM     15  C   UNL     1      46.584   1.048   7.836  0.00  0.00    +0.000 A 
ATOM     16  C   UNL     1      45.648   1.964   8.315  0.00  0.00    +0.000 A 
ATOM     17 CL   UNL     1      44.389   1.385   9.341  0.00  0.00    +0.000 Cl
ENDBRANCH  10  11
ENDBRANCH   9  10
ENDBRANCH   8   9
ENDBRANCH   5   8
ENDBRANCH   1   2
BRANCH   1  20
ATOM     18  O   UNL     1      46.724   3.449  17.812  0.00  0.00    +0.000 OA
ATOM     19  C   UNL     1      47.476   4.346  17.435  0.00  0.00    +0.000 C 
ATOM     20  N   UNL     1      47.856   4.470  16.122  0.00  0.00    +0.000 N 
ATOM     21  H   UNL     1      48.680   5.023  15.903  0.00  0.00    +0.000 HD
BRANCH  19  22
ATOM     22  C   UNL     1      47.952   5.384  18.356  0.00  0.00    +0.000 A 
ATOM     23  C   UNL     1      47.060   6.000  19.225  0.00  0.00    +0.000 A 
ATOM     24  S   UNL     1      47.773   7.210  20.192  0.00  0.00    +0.000 S 
ATOM     25  C   UNL     1      49.310   6.916  19.523  0.00  0.00    +0.000 A 
ATOM     26  N   UNL     1      50.404   7.612  19.939  0.00  0.00    +0.000 NA
ATOM     27  C   UNL     1      51.508   7.257  19.372  0.00  0.00    +0.000 A 
ATOM     28  N   UNL     1      51.619   6.277  18.418  0.00  0.00    +0.000 N 
ATOM     29  C   UNL     1      50.538   5.581  17.941  0.00  0.00    +0.000 A 
ATOM     30  O   UNL     1      50.661   4.756  17.043  0.00  0.00    +0.000 OA
ATOM     31  C   UNL     1      49.274   5.922  18.560  0.00  0.00    +0.000 A 
ATOM     32  H   UNL     1      52.511   6.055  18.003  0.00  0.00    +0.000 HD
ENDBRANCH  19  22
ENDBRANCH   1  20
TORSDOF 7
ENDMDL
MODEL 5
REMARK VINA RESULT:    -7.590      2.407      2.789
REMARK INTER + INTRA:         -11.646
REMARK INTER:                 -10.570
REMARK INTRA:                  -1.076
REMARK UNBOUND:                -0.949
REMARK  Name = 
REMARK  7 active torsions:
REMARK  status: ('A' for Active; 'I' for Inactive)
REMARK    1  A    between atoms: C_2  and  C_21
REMARK    2  A    between atoms: N_3  and  C_4
REMARK    3  A    between atoms: C_4  and  C_5
REMARK    4  A    between atoms: C_8  and  C_9
REMARK    5  A    between atoms: C_9  and  O_10
REMARK    6  A    between atoms: O_10  and  C_11
REMARK    7  A    between atoms: C_11  and  C_12
REMARK                            x       y       z     vdW  Elec       q    Type
REMARK                         _______ _______ _______ _____ _____    ______ ____
ROOT
ATOM      1  C   UNL     1      47.962   7.450  14.039  0.00  0.00    +0.000 C 
ENDROOT
BRANCH   1   2
ATOM      2  C   UNL     1      47.023   6.609  13.206  0.00  0.00    +0.000 A 
ATOM      3  C   UNL     1      46.618   7.036  11.942  0.00  0.00    +0.000 A 
ATOM      4  C   UNL     1      45.745   6.234  11.207  0.00  0.00    +0.000 A 
ATOM      5  C   UNL     1      45.304   5.019  11.734  0.00  0.00    +0.000 A 
ATOM      6  C   UNL     1      45.788   4.660  12.985  0.00  0.00    +0.000 A 
ATOM      7  N   UNL     1      46.626   5.421  13.726  0.00  0.00    +0.000 NA
BRANCH   5   8
ATOM      8  C   UNL     1      44.320   4.150  11.008  0.00  0.00    +0.000 C 
BRANCH   8   9
ATOM      9  O   UNL     1      44.936   2.912  10.667  0.00  0.00    +0.000 OA
BRANCH   9  10
ATOM     10  C   UNL     1      44.485   2.442   9.396  0.00  0.00    +0.000 C 
BRANCH  10  11
ATOM     11  C   UNL     1      45.652   2.142   8.485  0.00  0.00    +0.000 A 
ATOM     12  N   UNL     1      45.935   0.820   8.289  0.00  0.00    +0.000 NA
ATOM     13  C   UNL     1      46.964   0.512   7.469  0.00  0.00    +0.000 A 
ATOM     14  C   UNL     1      47.735   1.457   6.818  0.00  0.00    +0.000 A 
ATOM     15  C   UNL     1      47.433   2.801   7.015  0.00  0.00    +0.000 A 
ATOM     16  C   UNL     1      46.377   3.156   7.854  0.00  0.00    +0.000 A 
ATOM     17 CL   UNL     1      46.006   4.831   8.034  0.00  0.00    +0.000 Cl
ENDBRANCH  10  11
ENDBRANCH   9  10
ENDBRANCH   8   9
ENDBRANCH   5   8
ENDBRANCH   1   2
BRANCH   1  20
ATOM     18  O   UNL     1      50.238   6.609  15.374  0.00  0.00    +0.000 OA
ATOM     19  C   UNL     1      49.190   6.690  16.014  0.00  0.00    +0.000 C 
ATOM     20  N   UNL     1      47.999   7.018  15.417  0.00  0.00    +0.000 N 
ATOM     21  H   UNL     1      47.237   7.353  16.000  0.00  0.00    +0.000 HD
BRANCH  19  22
ATOM     22  C   UNL     1      49.140   6.369  17.445  0.00  0.00    +0.000 A 
ATOM     23  C   UNL     1      49.688   5.180  17.906  0.00  0.00    +0.000 A 
ATOM     24  S   UNL     1      49.504   4.948  19.585  0.00  0.00    +0.000 S 
ATOM     25  C   UNL     1      48.732   6.455  19.764  0.00  0.00    +0.000 A 
ATOM     26  N   UNL     1      48.325   6.897  20.986  0.00  0.00    +0.000 NA
ATOM     27  C   UNL     1      47.790   8.071  20.975  0.00  0.00    +0.000 A 
ATOM     28  N   UNL     1      47.615   8.842  19.855  0.00  0.00    +0.000 N 
ATOM     29  C   UNL     1      47.972   8.419  18.600  0.00  0.00    +0.000 A 
ATOM     30  O   UNL     1      47.744   9.104  17.610  0.00  0.00    +0.000 OA
ATOM     31  C   UNL     1      48.600   7.114  18.555  0.00  0.00    +0.000 A 
ATOM     32  H   UNL     1      47.176   9.750  19.911  0.00  0.00    +0.000 HD
ENDBRANCH  19  22
ENDBRANCH   1  20
TORSDOF 7
ENDMDL
MODEL 6
REMARK VINA RESULT:    -7.482      2.425      3.211
REMARK INTER + INTRA:         -11.493
REMARK INTER:                 -10.458
REMARK INTRA:                  -1.035
REMARK UNBOUND:                -0.949
REMARK  Name = 
REMARK  7 active torsions:
REMARK  status: ('A' for Active; 'I' for Inactive)
REMARK    1  A    between atoms: C_2  and  C_21
REMARK    2  A    between atoms: N_3  and  C_4
REMARK    3  A    between atoms: C_4  and  C_5
REMARK    4  A    between atoms: C_8  and  C_9
REMARK    5  A    between atoms: C_9  and  O_10
REMARK    6  A    between atoms: O_10  and  C_11
REMARK    7  A    between atoms: C_11  and  C_12
REMARK                            x       y       z     vdW  Elec       q    Type
REMARK                         _______ _______ _______ _____ _____    ______ ____
ROOT
ATOM      1  C   UNL     1      46.941   4.029  15.771  0.00  0.00    +0.000 C 
ENDROOT
BRANCH   1   2
ATOM      2  C   UNL     1      46.588   4.608  14.420  0.00  0.00    +0.000 A 
ATOM      3  C   UNL     1      47.390   5.587  13.836  0.00  0.00    +0.000 A 
ATOM      4  C   UNL     1      47.027   6.101  12.591  0.00  0.00    +0.000 A 
ATOM      5  C   UNL     1      45.886   5.622  11.945  0.00  0.00    +0.000 A 
ATOM      6  C   UNL     1      45.170   4.621  12.588  0.00  0.00    +0.000 A 
ATOM      7  N   UNL     1      45.490   4.111  13.800  0.00  0.00    +0.000 NA
BRANCH   5   8
ATOM      8  C   UNL     1      45.423   6.183  10.633  0.00  0.00    +0.000 C 
BRANCH   8   9
ATOM      9  O   UNL     1      46.101   5.527   9.567  0.00  0.00    +0.000 OA
BRANCH   9  10
ATOM     10  C   UNL     1      45.202   4.731   8.793  0.00  0.00    +0.000 C 
BRANCH  10  11
ATOM     11  C   UNL     1      45.914   3.542   8.192  0.00  0.00    +0.000 A 
ATOM     12  N   UNL     1      46.904   3.827   7.295  0.00  0.00    +0.000 NA
ATOM     13  C   UNL     1      47.572   2.788   6.747  0.00  0.00    +0.000 A 
ATOM     14  C   UNL     1      47.314   1.463   7.049  0.00  0.00    +0.000 A 
ATOM     15  C   UNL     1      46.311   1.184   7.972  0.00  0.00    +0.000 A 
ATOM     16  C   UNL     1      45.601   2.230   8.559  0.00  0.00    +0.000 A 
ATOM     17 CL   UNL     1      44.398   1.842   9.733  0.00  0.00    +0.000 Cl
ENDBRANCH  10  11
ENDBRANCH   9  10
ENDBRANCH   8   9
ENDBRANCH   5   8
ENDBRANCH   1   2
BRANCH   1  20
ATOM     18  O   UNL     1      47.930   5.176  18.090  0.00  0.00    +0.000 OA
ATOM     19  C   UNL     1      48.737   4.702  17.291  0.00  0.00    +0.000 C 
ATOM     20  N   UNL     1      48.343   4.190  16.080  0.00  0.00    +0.000 N 
ATOM     21  H   UNL     1      48.973   3.562  15.589  0.00  0.00    +0.000 HD
BRANCH  19  22
ATOM     22  C   UNL     1      50.180   4.725  17.555  0.00  0.00    +0.000 A 
ATOM     23  C   UNL     1      50.806   5.922  17.874  0.00  0.00    +0.000 A 
ATOM     24  S   UNL     1      52.488   5.774  18.107  0.00  0.00    +0.000 S 
ATOM     25  C   UNL     1      52.431   4.093  17.844  0.00  0.00    +0.000 A 
ATOM     26  N   UNL     1      53.556   3.329  17.923  0.00  0.00    +0.000 NA
ATOM     27  C   UNL     1      53.356   2.068  17.739  0.00  0.00    +0.000 A 
ATOM     28  N   UNL     1      52.138   1.498  17.471  0.00  0.00    +0.000 N 
ATOM     29  C   UNL     1      50.987   2.234  17.341  0.00  0.00    +0.000 A 
ATOM     30  O   UNL     1      49.926   1.704  17.038  0.00  0.00    +0.000 OA
ATOM     31  C   UNL     1      51.149   3.657  17.562  0.00  0.00    +0.000 A 
ATOM     32  H   UNL     1      52.050   0.504  17.323  0.00  0.00    +0.000 HD
ENDBRANCH  19  22
ENDBRANCH   1  20
TORSDOF 7
ENDMDL
MODEL 7
REMARK VINA RESULT:    -7.442      3.324      5.441
REMARK INTER + INTRA:         -11.437
REMARK INTER:                 -10.423
REMARK INTRA:                  -1.014
REMARK UNBOUND:                -0.949
REMARK  Name = 
REMARK  7 active torsions:
REMARK  status: ('A' for Active; 'I' for Inactive)
REMARK    1  A    between atoms: C_2  and  C_21
REMARK    2  A    between atoms: N_3  and  C_4
REMARK    3  A    between atoms: C_4  and  C_5
REMARK    4  A    between atoms: C_8  and  C_9
REMARK    5  A    between atoms: C_9  and  O_10
REMARK    6  A    between atoms: O_10  and  C_11
REMARK    7  A    between atoms: C_11  and  C_12
REMARK                            x       y       z     vdW  Elec       q    Type
REMARK                         _______ _______ _______ _____ _____    ______ ____
ROOT
ATOM      1  C   UNL     1      47.783   3.276  17.345  0.00  0.00    +0.000 C 
ENDROOT
BRANCH   1   2
ATOM      2  C   UNL     1      47.705   4.153  16.117  0.00  0.00    +0.000 A 
ATOM      3  C   UNL     1      48.213   5.451  16.138  0.00  0.00    +0.000 A 
ATOM      4  C   UNL     1      48.115   6.232  14.986  0.00  0.00    +0.000 A 
ATOM      5  C   UNL     1      47.530   5.705  13.834  0.00  0.00    +0.000 A 
ATOM      6  C   UNL     1      47.084   4.391  13.897  0.00  0.00    +0.000 A 
ATOM      7  N   UNL     1      47.155   3.613  15.002  0.00  0.00    +0.000 NA
BRANCH   5   8
ATOM      8  C   UNL     1      47.350   6.523  12.590  0.00  0.00    +0.000 C 
BRANCH   8   9
ATOM      9  O   UNL     1      46.035   7.068  12.562  0.00  0.00    +0.000 OA
BRANCH   9  10
ATOM     10  C   UNL     1      45.368   6.749  11.340  0.00  0.00    +0.000 C 
BRANCH  10  11
ATOM     11  C   UNL     1      44.675   5.410  11.436  0.00  0.00    +0.000 A 
ATOM     12  N   UNL     1      43.950   5.191  12.572  0.00  0.00    +0.000 NA
ATOM     13  C   UNL     1      43.304   4.009  12.687  0.00  0.00    +0.000 A 
ATOM     14  C   UNL     1      43.334   3.021  11.720  0.00  0.00    +0.000 A 
ATOM     15  C   UNL     1      44.067   3.258  10.562  0.00  0.00    +0.000 A 
ATOM     16  C   UNL     1      44.745   4.467  10.407  0.00  0.00    +0.000 A 
ATOM     17 CL   UNL     1      45.603   4.738   8.936  0.00  0.00    +0.000 Cl
ENDBRANCH  10  11
ENDBRANCH   9  10
ENDBRANCH   8   9
ENDBRANCH   5   8
ENDBRANCH   1   2
BRANCH   1  20
ATOM     18  O   UNL     1      49.580   1.611  16.054  0.00  0.00    +0.000 OA
ATOM     19  C   UNL     1      49.986   2.264  17.014  0.00  0.00    +0.000 C 
ATOM     20  N   UNL     1      49.147   3.050  17.764  0.00  0.00    +0.000 N 
ATOM     21  H   UNL     1      49.551   3.778  18.345  0.00  0.00    +0.000 HD
BRANCH  19  22
ATOM     22  C   UNL     1      51.381   2.183  17.461  0.00  0.00    +0.000 A 
ATOM     23  C   UNL     1      51.978   0.943  17.641  0.00  0.00    +0.000 A 
ATOM     24  S   UNL     1      53.586   1.033  18.204  0.00  0.00    +0.000 S 
ATOM     25  C   UNL     1      53.558   2.735  18.173  0.00  0.00    +0.000 A 
ATOM     26  N   UNL     1      54.655   3.463  18.524  0.00  0.00    +0.000 NA
ATOM     27  C   UNL     1      54.501   4.740  18.416  0.00  0.00    +0.000 A 
ATOM     28  N   UNL     1      53.350   5.359  18.001  0.00  0.00    +0.000 N 
ATOM     29  C   UNL     1      52.210   4.666  17.679  0.00  0.00    +0.000 A 
ATOM     30  O   UNL     1      51.178   5.250  17.374  0.00  0.00    +0.000 OA
ATOM     31  C   UNL     1      52.333   3.225  17.759  0.00  0.00    +0.000 A 
ATOM     32  H   UNL     1      53.289   6.365  17.951  0.00  0.00    +0.000 HD
ENDBRANCH  19  22
ENDBRANCH   1  20
TORSDOF 7
ENDMDL
MODEL 8
REMARK VINA RESULT:    -7.341      4.076      8.387
REMARK INTER + INTRA:         -11.294
REMARK INTER:                  -9.957
REMARK INTRA:                  -1.337
REMARK UNBOUND:                -0.949
REMARK  Name = 
REMARK  7 active torsions:
REMARK  status: ('A' for Active; 'I' for Inactive)
REMARK    1  A    between atoms: C_2  and  C_21
REMARK    2  A    between atoms: N_3  and  C_4
REMARK    3  A    between atoms: C_4  and  C_5
REMARK    4  A    between atoms: C_8  and  C_9
REMARK    5  A    between atoms: C_9  and  O_10
REMARK    6  A    between atoms: O_10  and  C_11
REMARK    7  A    between atoms: C_11  and  C_12
REMARK                            x       y       z     vdW  Elec       q    Type
REMARK                         _______ _______ _______ _____ _____    ______ ____
ROOT
ATOM      1  C   UNL     1      48.331   7.956  12.248  0.00  0.00    +0.000 C 
ENDROOT
BRANCH   1   2
ATOM      2  C   UNL     1      48.478   7.918  13.751  0.00  0.00    +0.000 A 
ATOM      3  C   UNL     1      48.150   9.029  14.526  0.00  0.00    +0.000 A 
ATOM      4  C   UNL     1      48.306   8.956  15.910  0.00  0.00    +0.000 A 
ATOM      5  C   UNL     1      48.771   7.779  16.498  0.00  0.00    +0.000 A 
ATOM      6  C   UNL     1      49.039   6.712  15.649  0.00  0.00    +0.000 A 
ATOM      7  N   UNL     1      48.908   6.756  14.303  0.00  0.00    +0.000 NA
BRANCH   5   8
ATOM      8  C   UNL     1      49.011   7.670  17.975  0.00  0.00    +0.000 C 
BRANCH   8   9
ATOM      9  O   UNL     1      47.826   7.213  18.619  0.00  0.00    +0.000 OA
BRANCH   9  10
ATOM     10  C   UNL     1      48.079   6.041  19.397  0.00  0.00    +0.000 C 
BRANCH  10  11
ATOM     11  C   UNL     1      48.199   4.822  18.514  0.00  0.00    +0.000 A 
ATOM     12  N   UNL     1      47.074   4.468  17.825  0.00  0.00    +0.000 NA
ATOM     13  C   UNL     1      47.147   3.390  17.014  0.00  0.00    +0.000 A 
ATOM     14  C   UNL     1      48.293   2.635  16.841  0.00  0.00    +0.000 A 
ATOM     15  C   UNL     1      49.437   3.010  17.539  0.00  0.00    +0.000 A 
ATOM     16  C   UNL     1      49.399   4.118  18.384  0.00  0.00    +0.000 A 
ATOM     17 CL   UNL     1      50.851   4.575  19.195  0.00  0.00    +0.000 Cl
ENDBRANCH  10  11
ENDBRANCH   9  10
ENDBRANCH   8   9
ENDBRANCH   5   8
ENDBRANCH   1   2
BRANCH   1  20
ATOM     18  O   UNL     1      45.624   7.929  11.662  0.00  0.00    +0.000 OA
ATOM     19  C   UNL     1      46.279   6.918  11.412  0.00  0.00    +0.000 C 
ATOM     20  N   UNL     1      47.606   6.812  11.745  0.00  0.00    +0.000 N 
ATOM     21  H   UNL     1      48.171   6.108  11.279  0.00  0.00    +0.000 HD
BRANCH  19  22
ATOM     22  C   UNL     1      45.658   5.733  10.809  0.00  0.00    +0.000 A 
ATOM     23  C   UNL     1      45.832   5.475   9.456  0.00  0.00    +0.000 A 
ATOM     24  S   UNL     1      45.007   4.085   8.913  0.00  0.00    +0.000 S 
ATOM     25  C   UNL     1      44.433   3.748  10.479  0.00  0.00    +0.000 A 
ATOM     26  N   UNL     1      43.663   2.652  10.726  0.00  0.00    +0.000 NA
ATOM     27  C   UNL     1      43.332   2.503  11.964  0.00  0.00    +0.000 A 
ATOM     28  N   UNL     1      43.690   3.353  12.980  0.00  0.00    +0.000 N 
ATOM     29  C   UNL     1      44.428   4.490  12.769  0.00  0.00    +0.000 A 
ATOM     30  O   UNL     1      44.678   5.263  13.685  0.00  0.00    +0.000 OA
ATOM     31  C   UNL     1      44.849   4.695  11.398  0.00  0.00    +0.000 A 
ATOM     32  H   UNL     1      43.387   3.188  13.928  0.00  0.00    +0.000 HD
ENDBRANCH  19  22
ENDBRANCH   1  20
TORSDOF 7
ENDMDL
MODEL 9
REMARK VINA RESULT:    -7.225      3.516      4.750
REMARK INTER + INTRA:         -11.131
REMARK INTER:                 -10.281
REMARK INTRA:                  -0.850
REMARK UNBOUND:                -0.949
REMARK  Name = 
REMARK  7 active torsions:
REMARK  status: ('A' for Active; 'I' for Inactive)
REMARK    1  A    between atoms: C_2  and  C_21
REMARK    2  A    between atoms: N_3  and  C_4
REMARK    3  A    between atoms: C_4  and  C_5
REMARK    4  A    between atoms: C_8  and  C_9
REMARK    5  A    between atoms: C_9  and  O_10
REMARK    6  A    between atoms: O_10  and  C_11
REMARK    7  A    between atoms: C_11  and  C_12
REMARK                            x       y       z     vdW  Elec       q    Type
REMARK                         _______ _______ _______ _____ _____    ______ ____
ROOT
ATOM      1  C   UNL     1      48.634   4.711  17.440  0.00  0.00    +0.000 C 
ENDROOT
BRANCH   1   2
ATOM      2  C   UNL     1      48.100   5.056  16.069  0.00  0.00    +0.000 A 
ATOM      3  C   UNL     1      48.480   6.237  15.435  0.00  0.00    +0.000 A 
ATOM      4  C   UNL     1      47.959   6.523  14.172  0.00  0.00    +0.000 A 
ATOM      5  C   UNL     1      47.085   5.624  13.560  0.00  0.00    +0.000 A 
ATOM      6  C   UNL     1      46.791   4.456  14.253  0.00  0.00    +0.000 A 
ATOM      7  N   UNL     1      47.271   4.157  15.482  0.00  0.00    +0.000 NA
BRANCH   5   8
ATOM      8  C   UNL     1      46.454   5.912  12.230  0.00  0.00    +0.000 C 
BRANCH   8   9
ATOM      9  O   UNL     1      45.165   5.309  12.172  0.00  0.00    +0.000 OA
BRANCH   9  10
ATOM     10  C   UNL     1      44.535   5.555  10.913  0.00  0.00    +0.000 C 
BRANCH  10  11
ATOM     11  C   UNL     1      44.848   4.454   9.928  0.00  0.00    +0.000 A 
ATOM     12  N   UNL     1      45.651   4.801   8.878  0.00  0.00    +0.000 NA
ATOM     13  C   UNL     1      45.965   3.839   7.983  0.00  0.00    +0.000 A 
ATOM     14  C   UNL     1      45.526   2.531   8.076  0.00  0.00    +0.000 A 
ATOM     15  C   UNL     1      44.718   2.184   9.154  0.00  0.00    +0.000 A 
ATOM     16  C   UNL     1      44.374   3.151  10.099  0.00  0.00    +0.000 A 
ATOM     17 CL   UNL     1      43.409   2.669  11.445  0.00  0.00    +0.000 Cl
ENDBRANCH  10  11
ENDBRANCH   9  10
ENDBRANCH   8   9
ENDBRANCH   5   8
ENDBRANCH   1   2
BRANCH   1  20
ATOM     18  O   UNL     1      50.416   4.876  19.554  0.00  0.00    +0.000 OA
ATOM     19  C   UNL     1      50.799   4.338  18.517  0.00  0.00    +0.000 C 
ATOM     20  N   UNL     1      50.014   4.286  17.392  0.00  0.00    +0.000 N 
ATOM     21  H   UNL     1      50.236   3.603  16.674  0.00  0.00    +0.000 HD
BRANCH  19  22
ATOM     22  C   UNL     1      52.153   3.783  18.397  0.00  0.00    +0.000 A 
ATOM     23  C   UNL     1      53.245   4.528  18.821  0.00  0.00    +0.000 A 
ATOM     24  S   UNL     1      54.742   3.751  18.569  0.00  0.00    +0.000 S 
ATOM     25  C   UNL     1      53.978   2.367  17.935  0.00  0.00    +0.000 A 
ATOM     26  N   UNL     1      54.702   1.284  17.536  0.00  0.00    +0.000 NA
ATOM     27  C   UNL     1      53.989   0.296  17.113  0.00  0.00    +0.000 A 
ATOM     28  N   UNL     1      52.619   0.291  17.040  0.00  0.00    +0.000 N 
ATOM     29  C   UNL     1      51.854   1.375  17.391  0.00  0.00    +0.000 A 
ATOM     30  O   UNL     1      50.637   1.363  17.255  0.00  0.00    +0.000 OA
ATOM     31  C   UNL     1      52.602   2.507  17.898  0.00  0.00    +0.000 A 
ATOM     32  H   UNL     1      52.119  -0.511  16.686  0.00  0.00    +0.000 HD
ENDBRANCH  19  22
ENDBRANCH   1  20
TORSDOF 7
ENDMDL
