MODEL 1
REMARK VINA RESULT:    -9.112      0.000      0.000
REMARK INTER + INTRA:         -12.486
REMARK INTER:                 -11.776
REMARK INTRA:                  -0.710
REMARK UNBOUND:                -0.710
REMARK  Name = 
REMARK  5 active torsions:
REMARK  status: ('A' for Active; 'I' for Inactive)
REMARK    1  A    between atoms: C_2  and  C_4
REMARK    2  A    between atoms: C_7  and  C_8
REMARK    3  A    between atoms: C_8  and  C_9
REMARK    4  A    between atoms: C_9  and  C_10
REMARK    5  A    between atoms: C_14  and  C_15
REMARK                            x       y       z     vdW  Elec       q    Type
REMARK                         _______ _______ _______ _____ _____    ______ ____
ROOT
ATOM      1  C   UNL     1      43.992   4.599  11.703  0.00  0.00    +0.000 C 
ATOM      2  C   UNL     1      43.344   3.336  12.267  0.00  0.00    +0.000 C 
ATOM      3  C   UNL     1      42.772   4.672  12.621  0.00  0.00    +0.000 C 
ENDROOT
BRANCH   1   4
ATOM      4  C   UNL     1      45.353   4.982  12.275  0.00  0.00    +0.000 A 
ATOM      5  N   UNL     1      45.942   4.145  13.148  0.00  0.00    +0.000 NA
ATOM      6  C   UNL     1      47.098   4.548  13.695  0.00  0.00    +0.000 A 
ATOM      7  C   UNL     1      47.685   5.761  13.428  0.00  0.00    +0.000 A 
ATOM      8  C   UNL     1      47.029   6.572  12.525  0.00  0.00    +0.000 A 
ATOM      9  N   UNL     1      45.875   6.183  11.940  0.00  0.00    +0.000 NA
BRANCH   8  10
ATOM     10  C   UNL     1      47.505   7.927  12.167  0.00  0.00    +0.000 A 
ATOM     11  C   UNL     1      48.836   8.170  11.773  0.00  0.00    +0.000 A 
ATOM     12  C   UNL     1      49.286   9.462  11.474  0.00  0.00    +0.000 A 
ATOM     13  C   UNL     1      48.410  10.539  11.555  0.00  0.00    +0.000 A 
ATOM     14  C   UNL     1      47.090  10.315  11.924  0.00  0.00    +0.000 A 
ATOM     15  F   UNL     1      46.243  11.349  11.997  0.00  0.00    +0.000 F 
ATOM     16  C   UNL     1      46.637   9.033  12.224  0.00  0.00    +0.000 A 
ENDBRANCH   8  10
ENDBRANCH   1   4
BRANCH   1  17
ATOM     17  C   UNL     1      43.832   4.786  10.204  0.00  0.00    +0.000 C 
BRANCH  17  21
ATOM     18  C   UNL     1      46.453   2.474   7.745  0.00  0.00    +0.000 A 
ATOM     19  C   UNL     1      45.644   1.802   8.663  0.00  0.00    +0.000 A 
ATOM     20  C   UNL     1      44.768   2.530   9.469  0.00  0.00    +0.000 A 
ATOM     21  C   UNL     1      44.701   3.915   9.326  0.00  0.00    +0.000 A 
ATOM     22  N   UNL     1      45.506   4.581   8.456  0.00  0.00    +0.000 NA
ATOM     23  C   UNL     1      46.362   3.856   7.694  0.00  0.00    +0.000 A 
BRANCH  18  25
ATOM     24  N   UNL     1      48.504   2.491   6.446  0.00  0.00    +0.000 N 
ATOM     25  C   UNL     1      47.413   1.779   6.861  0.00  0.00    +0.000 C 
ATOM     26  O   UNL     1      47.260   0.609   6.538  0.00  0.00    +0.000 OA
ATOM     27  H   UNL     1      49.200   1.985   5.912  0.00  0.00    +0.000 HD
ATOM     28  H   UNL     1      48.787   3.358   6.882  0.00  0.00    +0.000 HD
ENDBRANCH  18  25
ENDBRANCH  17  21
ENDBRANCH   1  17
TORSDOF 5
ENDMDL
MODEL 2
REMARK VINA RESULT:    -9.042      2.558      3.909
REMARK INTER + INTRA:         -12.395
REMARK INTER:                 -12.128
REMARK INTRA:                  -0.267
REMARK UNBOUND:                -0.710
REMARK  Name = 
REMARK  5 active torsions:
REMARK  status: ('A' for Active; 'I' for Inactive)
REMARK    1  A    between atoms: C_2  and  C_4
REMARK    2  A    between atoms: C_7  and  C_8
REMARK    3  A    between atoms: C_8  and  C_9
REMARK    4  A    between atoms: C_9  and  C_10
REMARK    5  A    between atoms: C_14  and  C_15
REMARK                            x       y       z     vdW  Elec       q    Type
REMARK                         _______ _______ _______ _____ _____    ______ ____
ROOT
ATOM      1  C   UNL     1      44.136   4.737  11.725  0.00  0.00    +0.000 C 
ATOM      2  C   UNL     1      43.798   3.408  12.397  0.00  0.00    +0.000 C 
ATOM      3  C   UNL     1      42.988   4.621  12.727  0.00  0.00    +0.000 C 
ENDROOT
BRANCH   1   4
ATOM      4  C   UNL     1      45.423   5.422  12.174  0.00  0.00    +0.000 A 
ATOM      5  N   UNL     1      46.054   6.234  11.309  0.00  0.00    +0.000 NA
ATOM      6  C   UNL     1      47.225   6.756  11.704  0.00  0.00    +0.000 A 
ATOM      7  C   UNL     1      47.807   6.486  12.919  0.00  0.00    +0.000 A 
ATOM      8  C   UNL     1      47.108   5.644  13.759  0.00  0.00    +0.000 A 
ATOM      9  N   UNL     1      45.916   5.122  13.397  0.00  0.00    +0.000 NA
BRANCH   8  10
ATOM     10  C   UNL     1      47.621   5.218  15.080  0.00  0.00    +0.000 A 
ATOM     11  C   UNL     1      48.624   5.937  15.759  0.00  0.00    +0.000 A 
ATOM     12  C   UNL     1      49.130   5.504  16.990  0.00  0.00    +0.000 A 
ATOM     13  C   UNL     1      48.636   4.343  17.575  0.00  0.00    +0.000 A 
ATOM     14  C   UNL     1      47.635   3.630  16.928  0.00  0.00    +0.000 A 
ATOM     15  F   UNL     1      47.153   2.515  17.490  0.00  0.00    +0.000 F 
ATOM     16  C   UNL     1      47.128   4.056  15.702  0.00  0.00    +0.000 A 
ENDBRANCH   8  10
ENDBRANCH   1   4
BRANCH   1  17
ATOM     17  C   UNL     1      43.846   4.793  10.235  0.00  0.00    +0.000 C 
BRANCH  17  21
ATOM     18  C   UNL     1      46.433   2.461   7.759  0.00  0.00    +0.000 A 
ATOM     19  C   UNL     1      45.666   1.800   8.721  0.00  0.00    +0.000 A 
ATOM     20  C   UNL     1      44.801   2.535   9.534  0.00  0.00    +0.000 A 
ATOM     21  C   UNL     1      44.703   3.913   9.355  0.00  0.00    +0.000 A 
ATOM     22  N   UNL     1      45.468   4.569   8.441  0.00  0.00    +0.000 NA
ATOM     23  C   UNL     1      46.314   3.838   7.672  0.00  0.00    +0.000 A 
BRANCH  18  25
ATOM     24  N   UNL     1      48.487   2.451   6.465  0.00  0.00    +0.000 N 
ATOM     25  C   UNL     1      47.378   1.758   6.865  0.00  0.00    +0.000 C 
ATOM     26  O   UNL     1      47.197   0.598   6.521  0.00  0.00    +0.000 OA
ATOM     27  H   UNL     1      49.172   1.937   5.924  0.00  0.00    +0.000 HD
ATOM     28  H   UNL     1      48.789   3.302   6.916  0.00  0.00    +0.000 HD
ENDBRANCH  18  25
ENDBRANCH  17  21
ENDBRANCH   1  17
TORSDOF 5
ENDMDL
MODEL 3
REMARK VINA RESULT:    -8.434      1.828      2.519
REMARK INTER + INTRA:         -11.609
REMARK INTER:                 -10.848
REMARK INTRA:                  -0.762
REMARK UNBOUND:                -0.710
REMARK  Name = 
REMARK  5 active torsions:
REMARK  status: ('A' for Active; 'I' for Inactive)
REMARK    1  A    between atoms: C_2  and  C_4
REMARK    2  A    between atoms: C_7  and  C_8
REMARK    3  A    between atoms: C_8  and  C_9
REMARK    4  A    between atoms: C_9  and  C_10
REMARK    5  A    between atoms: C_14  and  C_15
REMARK                            x       y       z     vdW  Elec       q    Type
REMARK                         _______ _______ _______ _____ _____    ______ ____
ROOT
ATOM      1  C   UNL     1      44.370   4.756  11.611  0.00  0.00    +0.000 C 
ATOM      2  C   UNL     1      45.257   3.689  12.248  0.00  0.00    +0.000 C 
ATOM      3  C   UNL     1      43.939   4.014  12.876  0.00  0.00    +0.000 C 
ENDROOT
BRANCH   1   4
ATOM      4  C   UNL     1      44.838   6.202  11.743  0.00  0.00    +0.000 A 
ATOM      5  N   UNL     1      43.996   7.185  11.382  0.00  0.00    +0.000 NA
ATOM      6  C   UNL     1      44.465   8.441  11.432  0.00  0.00    +0.000 A 
ATOM      7  C   UNL     1      45.747   8.759  11.807  0.00  0.00    +0.000 A 
ATOM      8  C   UNL     1      46.561   7.704  12.165  0.00  0.00    +0.000 A 
ATOM      9  N   UNL     1      46.108   6.431  12.147  0.00  0.00    +0.000 NA
BRANCH   8  10
ATOM     10  C   UNL     1      47.980   7.875  12.547  0.00  0.00    +0.000 A 
ATOM     11  C   UNL     1      48.886   8.599  11.747  0.00  0.00    +0.000 A 
ATOM     12  C   UNL     1      50.235   8.723  12.098  0.00  0.00    +0.000 A 
ATOM     13  C   UNL     1      50.708   8.129  13.264  0.00  0.00    +0.000 A 
ATOM     14  C   UNL     1      49.825   7.425  14.073  0.00  0.00    +0.000 A 
ATOM     15  F   UNL     1      50.275   6.857  15.198  0.00  0.00    +0.000 F 
ATOM     16  C   UNL     1      48.481   7.299  13.728  0.00  0.00    +0.000 A 
ENDBRANCH   8  10
ENDBRANCH   1   4
BRANCH   1  17
ATOM     17  C   UNL     1      43.779   4.376  10.264  0.00  0.00    +0.000 C 
BRANCH  17  21
ATOM     18  C   UNL     1      46.599   2.707   7.523  0.00  0.00    +0.000 A 
ATOM     19  C   UNL     1      45.882   1.836   8.345  0.00  0.00    +0.000 A 
ATOM     20  C   UNL     1      44.944   2.352   9.239  0.00  0.00    +0.000 A 
ATOM     21  C   UNL     1      44.724   3.727   9.280  0.00  0.00    +0.000 A 
ATOM     22  N   UNL     1      45.439   4.586   8.504  0.00  0.00    +0.000 NA
ATOM     23  C   UNL     1      46.358   4.065   7.653  0.00  0.00    +0.000 A 
BRANCH  18  25
ATOM     24  N   UNL     1      47.786   2.991   5.424  0.00  0.00    +0.000 N 
ATOM     25  C   UNL     1      47.617   2.243   6.555  0.00  0.00    +0.000 C 
ATOM     26  O   UNL     1      48.301   1.251   6.767  0.00  0.00    +0.000 OA
ATOM     27  H   UNL     1      48.541   2.717   4.807  0.00  0.00    +0.000 HD
ATOM     28  H   UNL     1      47.424   3.930   5.333  0.00  0.00    +0.000 HD
ENDBRANCH  18  25
ENDBRANCH  17  21
ENDBRANCH   1  17
TORSDOF 5
ENDMDL
MODEL 4
REMARK VINA RESULT:    -8.004      3.806      7.264
REMARK INTER + INTRA:         -11.054
REMARK INTER:                 -10.828
REMARK INTRA:                  -0.226
REMARK UNBOUND:                -0.710
REMARK  Name = 
REMARK  5 active torsions:
REMARK  status: ('A' for Active; 'I' for Inactive)
REMARK    1  A    between atoms: C_2  and  C_4
REMARK    2  A    between atoms: C_7  and  C_8
REMARK    3  A    between atoms: C_8  and  C_9
REMARK    4  A    between atoms: C_9  and  C_10
REMARK    5  A    between atoms: C_14  and  C_15
REMARK                            x       y       z     vdW  Elec       q    Type
REMARK                         _______ _______ _______ _____ _____    ______ ____
ROOT
ATOM      1  C   UNL     1      46.020   7.135  12.107  0.00  0.00    +0.000 C 
ATOM      2  C   UNL     1      45.930   8.581  11.625  0.00  0.00    +0.000 C 
ATOM      3  C   UNL     1      45.347   8.215  12.953  0.00  0.00    +0.000 C 
ENDROOT
BRANCH   1   4
ATOM      4  C   UNL     1      45.134   6.120  11.391  0.00  0.00    +0.000 A 
ATOM      5  N   UNL     1      43.872   5.952  11.821  0.00  0.00    +0.000 NA
ATOM      6  C   UNL     1      43.145   4.995  11.224  0.00  0.00    +0.000 A 
ATOM      7  C   UNL     1      43.629   4.181  10.230  0.00  0.00    +0.000 A 
ATOM      8  C   UNL     1      44.933   4.405   9.835  0.00  0.00    +0.000 A 
ATOM      9  N   UNL     1      45.681   5.377  10.402  0.00  0.00    +0.000 NA
BRANCH   8  10
ATOM     10  C   UNL     1      45.616   3.584   8.812  0.00  0.00    +0.000 A 
ATOM     11  C   UNL     1      46.250   4.161   7.694  0.00  0.00    +0.000 A 
ATOM     12  C   UNL     1      46.860   3.373   6.710  0.00  0.00    +0.000 A 
ATOM     13  C   UNL     1      46.856   1.987   6.829  0.00  0.00    +0.000 A 
ATOM     14  C   UNL     1      46.252   1.402   7.933  0.00  0.00    +0.000 A 
ATOM     15  F   UNL     1      46.251   0.069   8.054  0.00  0.00    +0.000 F 
ATOM     16  C   UNL     1      45.642   2.181   8.914  0.00  0.00    +0.000 A 
ENDBRANCH   8  10
ENDBRANCH   1   4
BRANCH   1  17
ATOM     17  C   UNL     1      47.422   6.660  12.449  0.00  0.00    +0.000 C 
BRANCH  17  21
ATOM     18  C   UNL     1      47.728   4.211  15.937  0.00  0.00    +0.000 A 
ATOM     19  C   UNL     1      47.019   3.715  14.842  0.00  0.00    +0.000 A 
ATOM     20  C   UNL     1      46.915   4.487  13.684  0.00  0.00    +0.000 A 
ATOM     21  C   UNL     1      47.541   5.731  13.635  0.00  0.00    +0.000 A 
ATOM     22  N   UNL     1      48.208   6.235  14.707  0.00  0.00    +0.000 NA
ATOM     23  C   UNL     1      48.284   5.476  15.828  0.00  0.00    +0.000 A 
BRANCH  18  25
ATOM     24  N   UNL     1      46.781   2.785  17.659  0.00  0.00    +0.000 N 
ATOM     25  C   UNL     1      47.878   3.462  17.203  0.00  0.00    +0.000 C 
ATOM     26  O   UNL     1      48.943   3.419  17.803  0.00  0.00    +0.000 OA
ATOM     27  H   UNL     1      46.913   2.206  18.479  0.00  0.00    +0.000 HD
ATOM     28  H   UNL     1      45.976   2.598  17.078  0.00  0.00    +0.000 HD
ENDBRANCH  18  25
ENDBRANCH  17  21
ENDBRANCH   1  17
TORSDOF 5
ENDMDL
MODEL 5
REMARK VINA RESULT:    -7.220      3.635      7.361
REMARK INTER + INTRA:         -10.040
REMARK INTER:                  -9.654
REMARK INTRA:                  -0.387
REMARK UNBOUND:                -0.710
REMARK  Name = 
REMARK  5 active torsions:
REMARK  status: ('A' for Active; 'I' for Inactive)
REMARK    1  A    between atoms: C_2  and  C_4
REMARK    2  A    between atoms: C_7  and  C_8
REMARK    3  A    between atoms: C_8  and  C_9
REMARK    4  A    between atoms: C_9  and  C_10
REMARK    5  A    between atoms: C_14  and  C_15
REMARK                            x       y       z     vdW  Elec       q    Type
REMARK                         _______ _______ _______ _____ _____    ______ ____
ROOT
ATOM      1  C   UNL     1      48.538   7.957  12.561  0.00  0.00    +0.000 C 
ATOM      2  C   UNL     1      49.621   7.205  11.791  0.00  0.00    +0.000 C 
ATOM      3  C   UNL     1      49.509   8.688  11.635  0.00  0.00    +0.000 C 
ENDROOT
BRANCH   1   4
ATOM      4  C   UNL     1      47.101   7.756  12.091  0.00  0.00    +0.000 A 
ATOM      5  N   UNL     1      46.172   8.655  12.460  0.00  0.00    +0.000 NA
ATOM      6  C   UNL     1      44.904   8.407  12.100  0.00  0.00    +0.000 A 
ATOM      7  C   UNL     1      44.516   7.289  11.404  0.00  0.00    +0.000 A 
ATOM      8  C   UNL     1      45.517   6.405  11.056  0.00  0.00    +0.000 A 
ATOM      9  N   UNL     1      46.806   6.641  11.385  0.00  0.00    +0.000 NA
BRANCH   8  10
ATOM     10  C   UNL     1      45.258   5.133  10.349  0.00  0.00    +0.000 A 
ATOM     11  C   UNL     1      44.650   4.034  10.988  0.00  0.00    +0.000 A 
ATOM     12  C   UNL     1      44.443   2.821  10.321  0.00  0.00    +0.000 A 
ATOM     13  C   UNL     1      44.835   2.683   8.993  0.00  0.00    +0.000 A 
ATOM     14  C   UNL     1      45.420   3.760   8.342  0.00  0.00    +0.000 A 
ATOM     15  F   UNL     1      45.792   3.633   7.063  0.00  0.00    +0.000 F 
ATOM     16  C   UNL     1      45.628   4.970   9.001  0.00  0.00    +0.000 A 
ENDBRANCH   8  10
ENDBRANCH   1   4
BRANCH   1  17
ATOM     17  C   UNL     1      48.737   8.002  14.066  0.00  0.00    +0.000 C 
BRANCH  17  21
ATOM     18  C   UNL     1      47.837   4.530  16.389  0.00  0.00    +0.000 A 
ATOM     19  C   UNL     1      47.203   4.682  15.154  0.00  0.00    +0.000 A 
ATOM     20  C   UNL     1      47.489   5.799  14.368  0.00  0.00    +0.000 A 
ATOM     21  C   UNL     1      48.420   6.731  14.820  0.00  0.00    +0.000 A 
ATOM     22  N   UNL     1      49.020   6.607  16.034  0.00  0.00    +0.000 NA
ATOM     23  C   UNL     1      48.716   5.523  16.790  0.00  0.00    +0.000 A 
BRANCH  18  25
ATOM     24  N   UNL     1      48.647   2.902  17.997  0.00  0.00    +0.000 N 
ATOM     25  C   UNL     1      47.583   3.382  17.285  0.00  0.00    +0.000 C 
ATOM     26  O   UNL     1      46.466   2.899  17.412  0.00  0.00    +0.000 OA
ATOM     27  H   UNL     1      48.450   2.172  18.671  0.00  0.00    +0.000 HD
ATOM     28  H   UNL     1      49.509   3.418  18.104  0.00  0.00    +0.000 HD
ENDBRANCH  18  25
ENDBRANCH  17  21
ENDBRANCH   1  17
TORSDOF 5
ENDMDL
MODEL 6
REMARK VINA RESULT:    -6.968      5.748      8.661
REMARK INTER + INTRA:          -9.715
REMARK INTER:                  -9.697
REMARK INTRA:                  -0.017
REMARK UNBOUND:                -0.710
REMARK  Name = 
REMARK  5 active torsions:
REMARK  status: ('A' for Active; 'I' for Inactive)
REMARK    1  A    between atoms: C_2  and  C_4
REMARK    2  A    between atoms: C_7  and  C_8
REMARK    3  A    between atoms: C_8  and  C_9
REMARK    4  A    between atoms: C_9  and  C_10
REMARK    5  A    between atoms: C_14  and  C_15
REMARK                            x       y       z     vdW  Elec       q    Type
REMARK                         _______ _______ _______ _____ _____    ______ ____
ROOT
ATOM      1  C   UNL     1      48.104   3.203  16.753  0.00  0.00    +0.000 C 
ATOM      2  C   UNL     1      48.230   3.749  18.174  0.00  0.00    +0.000 C 
ATOM      3  C   UNL     1      47.043   2.913  17.815  0.00  0.00    +0.000 C 
ENDROOT
BRANCH   1   4
ATOM      4  C   UNL     1      47.777   4.215  15.660  0.00  0.00    +0.000 A 
ATOM      5  N   UNL     1      48.447   5.379  15.640  0.00  0.00    +0.000 NA
ATOM      6  C   UNL     1      48.080   6.281  14.717  0.00  0.00    +0.000 A 
ATOM      7  C   UNL     1      47.056   6.081  13.824  0.00  0.00    +0.000 A 
ATOM      8  C   UNL     1      46.408   4.865  13.898  0.00  0.00    +0.000 A 
ATOM      9  N   UNL     1      46.771   3.929  14.801  0.00  0.00    +0.000 NA
BRANCH   8  10
ATOM     10  C   UNL     1      45.255   4.514  13.040  0.00  0.00    +0.000 A 
ATOM     11  C   UNL     1      45.227   3.332  12.273  0.00  0.00    +0.000 A 
ATOM     12  C   UNL     1      44.148   3.028  11.434  0.00  0.00    +0.000 A 
ATOM     13  C   UNL     1      43.067   3.899  11.350  0.00  0.00    +0.000 A 
ATOM     14  C   UNL     1      43.069   5.060  12.111  0.00  0.00    +0.000 A 
ATOM     15  F   UNL     1      42.028   5.898  12.037  0.00  0.00    +0.000 F 
ATOM     16  C   UNL     1      44.140   5.368  12.947  0.00  0.00    +0.000 A 
ENDBRANCH   8  10
ENDBRANCH   1   4
BRANCH   1  17
ATOM     17  C   UNL     1      49.124   2.140  16.383  0.00  0.00    +0.000 C 
BRANCH  17  21
ATOM     18  C   UNL     1      52.974   2.212  18.233  0.00  0.00    +0.000 A 
ATOM     19  C   UNL     1      52.308   3.425  18.047  0.00  0.00    +0.000 A 
ATOM     20  C   UNL     1      51.042   3.430  17.458  0.00  0.00    +0.000 A 
ATOM     21  C   UNL     1      50.458   2.221  17.088  0.00  0.00    +0.000 A 
ATOM     22  N   UNL     1      51.112   1.038  17.238  0.00  0.00    +0.000 NA
ATOM     23  C   UNL     1      52.347   1.056  17.797  0.00  0.00    +0.000 A 
BRANCH  18  25
ATOM     24  N   UNL     1      55.303   2.897  18.293  0.00  0.00    +0.000 N 
ATOM     25  C   UNL     1      54.320   2.120  18.840  0.00  0.00    +0.000 C 
ATOM     26  O   UNL     1      54.541   1.407  19.809  0.00  0.00    +0.000 OA
ATOM     27  H   UNL     1      56.199   2.894  18.766  0.00  0.00    +0.000 HD
ATOM     28  H   UNL     1      55.106   3.665  17.668  0.00  0.00    +0.000 HD
ENDBRANCH  18  25
ENDBRANCH  17  21
ENDBRANCH   1  17
TORSDOF 5
ENDMDL
MODEL 7
REMARK VINA RESULT:    -6.920      3.739      6.259
REMARK INTER + INTRA:          -9.652
REMARK INTER:                  -9.055
REMARK INTRA:                  -0.598
REMARK UNBOUND:                -0.710
REMARK  Name = 
REMARK  5 active torsions:
REMARK  status: ('A' for Active; 'I' for Inactive)
REMARK    1  A    between atoms: C_2  and  C_4
REMARK    2  A    between atoms: C_7  and  C_8
REMARK    3  A    between atoms: C_8  and  C_9
REMARK    4  A    between atoms: C_9  and  C_10
REMARK    5  A    between atoms: C_14  and  C_15
REMARK                            x       y       z     vdW  Elec       q    Type
REMARK                         _______ _______ _______ _____ _____    ______ ____
ROOT
ATOM      1  C   UNL     1      48.095   8.103  12.671  0.00  0.00    +0.000 C 
ATOM      2  C   UNL     1      49.021   8.980  11.831  0.00  0.00    +0.000 C 
ATOM      3  C   UNL     1      49.162   7.493  11.763  0.00  0.00    +0.000 C 
ENDROOT
BRANCH   1   4
ATOM      4  C   UNL     1      48.336   8.100  14.176  0.00  0.00    +0.000 A 
ATOM      5  N   UNL     1      48.514   9.277  14.801  0.00  0.00    +0.000 NA
ATOM      6  C   UNL     1      48.806   9.236  16.110  0.00  0.00    +0.000 A 
ATOM      7  C   UNL     1      48.950   8.070  16.821  0.00  0.00    +0.000 A 
ATOM      8  C   UNL     1      48.755   6.897  16.121  0.00  0.00    +0.000 A 
ATOM      9  N   UNL     1      48.438   6.908  14.808  0.00  0.00    +0.000 NA
BRANCH   8  10
ATOM     10  C   UNL     1      48.921   5.559  16.729  0.00  0.00    +0.000 A 
ATOM     11  C   UNL     1      50.175   5.087  17.165  0.00  0.00    +0.000 A 
ATOM     12  C   UNL     1      50.328   3.804  17.704  0.00  0.00    +0.000 A 
ATOM     13  C   UNL     1      49.224   2.967  17.828  0.00  0.00    +0.000 A 
ATOM     14  C   UNL     1      47.977   3.422  17.420  0.00  0.00    +0.000 A 
ATOM     15  F   UNL     1      46.912   2.621  17.543  0.00  0.00    +0.000 F 
ATOM     16  C   UNL     1      47.819   4.697  16.882  0.00  0.00    +0.000 A 
ENDBRANCH   8  10
ENDBRANCH   1   4
BRANCH   1  17
ATOM     17  C   UNL     1      46.639   8.111  12.237  0.00  0.00    +0.000 C 
BRANCH  17  21
ATOM     18  C   UNL     1      44.729   4.348  11.565  0.00  0.00    +0.000 A 
ATOM     19  C   UNL     1      45.253   5.029  10.465  0.00  0.00    +0.000 A 
ATOM     20  C   UNL     1      45.895   6.254  10.657  0.00  0.00    +0.000 A 
ATOM     21  C   UNL     1      46.021   6.763  11.947  0.00  0.00    +0.000 A 
ATOM     22  N   UNL     1      45.487   6.122  13.021  0.00  0.00    +0.000 NA
ATOM     23  C   UNL     1      44.853   4.941  12.811  0.00  0.00    +0.000 A 
BRANCH  18  25
ATOM     24  N   UNL     1      43.694   2.417  12.612  0.00  0.00    +0.000 N 
ATOM     25  C   UNL     1      44.027   3.052  11.447  0.00  0.00    +0.000 C 
ATOM     26  O   UNL     1      43.727   2.580  10.360  0.00  0.00    +0.000 OA
ATOM     27  H   UNL     1      43.140   1.574  12.526  0.00  0.00    +0.000 HD
ATOM     28  H   UNL     1      43.703   2.883  13.508  0.00  0.00    +0.000 HD
ENDBRANCH  18  25
ENDBRANCH  17  21
ENDBRANCH   1  17
TORSDOF 5
ENDMDL
MODEL 8
REMARK VINA RESULT:    -6.675      4.047      7.721
REMARK INTER + INTRA:          -9.337
REMARK INTER:                  -8.851
REMARK INTRA:                  -0.486
REMARK UNBOUND:                -0.710
REMARK  Name = 
REMARK  5 active torsions:
REMARK  status: ('A' for Active; 'I' for Inactive)
REMARK    1  A    between atoms: C_2  and  C_4
REMARK    2  A    between atoms: C_7  and  C_8
REMARK    3  A    between atoms: C_8  and  C_9
REMARK    4  A    between atoms: C_9  and  C_10
REMARK    5  A    between atoms: C_14  and  C_15
REMARK                            x       y       z     vdW  Elec       q    Type
REMARK                         _______ _______ _______ _____ _____    ______ ____
ROOT
ATOM      1  C   UNL     1      47.658   7.889  12.498  0.00  0.00    +0.000 C 
ATOM      2  C   UNL     1      48.120   9.002  11.560  0.00  0.00    +0.000 C 
ATOM      3  C   UNL     1      47.563   9.360  12.901  0.00  0.00    +0.000 C 
ENDROOT
BRANCH   1   4
ATOM      4  C   UNL     1      46.376   7.159  12.113  0.00  0.00    +0.000 A 
ATOM      5  N   UNL     1      45.274   7.360  12.856  0.00  0.00    +0.000 NA
ATOM      6  C   UNL     1      44.186   6.641  12.542  0.00  0.00    +0.000 A 
ATOM      7  C   UNL     1      44.153   5.713  11.531  0.00  0.00    +0.000 A 
ATOM      8  C   UNL     1      45.317   5.554  10.807  0.00  0.00    +0.000 A 
ATOM      9  N   UNL     1      46.421   6.281  11.085  0.00  0.00    +0.000 NA
BRANCH   8  10
ATOM     10  C   UNL     1      45.459   4.563   9.719  0.00  0.00    +0.000 A 
ATOM     11  C   UNL     1      46.137   4.862   8.520  0.00  0.00    +0.000 A 
ATOM     12  C   UNL     1      46.233   3.929   7.481  0.00  0.00    +0.000 A 
ATOM     13  C   UNL     1      45.656   2.671   7.621  0.00  0.00    +0.000 A 
ATOM     14  C   UNL     1      44.999   2.353   8.801  0.00  0.00    +0.000 A 
ATOM     15  F   UNL     1      44.448   1.141   8.942  0.00  0.00    +0.000 F 
ATOM     16  C   UNL     1      44.900   3.277   9.839  0.00  0.00    +0.000 A 
ENDBRANCH   8  10
ENDBRANCH   1   4
BRANCH   1  17
ATOM     17  C   UNL     1      48.772   7.016  13.052  0.00  0.00    +0.000 C 
BRANCH  17  21
ATOM     18  C   UNL     1      48.301   5.390  16.975  0.00  0.00    +0.000 A 
ATOM     19  C   UNL     1      48.918   6.635  16.846  0.00  0.00    +0.000 A 
ATOM     20  C   UNL     1      49.073   7.197  15.577  0.00  0.00    +0.000 A 
ATOM     21  C   UNL     1      48.586   6.514  14.465  0.00  0.00    +0.000 A 
ATOM     22  N   UNL     1      48.010   5.288  14.578  0.00  0.00    +0.000 NA
ATOM     23  C   UNL     1      47.884   4.752  15.817  0.00  0.00    +0.000 A 
BRANCH  18  25
ATOM     24  N   UNL     1      47.250   3.656  18.311  0.00  0.00    +0.000 N 
ATOM     25  C   UNL     1      48.106   4.722  18.279  0.00  0.00    +0.000 C 
ATOM     26  O   UNL     1      48.707   5.083  19.282  0.00  0.00    +0.000 OA
ATOM     27  H   UNL     1      47.187   3.151  19.186  0.00  0.00    +0.000 HD
ATOM     28  H   UNL     1      46.935   3.186  17.474  0.00  0.00    +0.000 HD
ENDBRANCH  18  25
ENDBRANCH  17  21
ENDBRANCH   1  17
TORSDOF 5
ENDMDL
MODEL 9
REMARK VINA RESULT:    -6.321      4.352      6.854
REMARK INTER + INTRA:          -8.879
REMARK INTER:                  -8.065
REMARK INTRA:                  -0.814
REMARK UNBOUND:                -0.710
REMARK  Name = 
REMARK  5 active torsions:
REMARK  status: ('A' for Active; 'I' for Inactive)
REMARK    1  A    between atoms: C_2  and  C_4
REMARK    2  A    between atoms: C_7  and  C_8
REMARK    3  A    between atoms: C_8  and  C_9
REMARK    4  A    between atoms: C_9  and  C_10
REMARK    5  A    between atoms: C_14  and  C_15
REMARK                            x       y       z     vdW  Elec       q    Type
REMARK                         _______ _______ _______ _____ _____    ______ ____
ROOT
ATOM      1  C   UNL     1      48.842   8.162  13.176  0.00  0.00    +0.000 C 
ATOM      2  C   UNL     1      47.666   9.054  13.568  0.00  0.00    +0.000 C 
ATOM      3  C   UNL     1      48.772   9.625  12.740  0.00  0.00    +0.000 C 
ENDROOT
BRANCH   1   4
ATOM      4  C   UNL     1      49.813   7.783  14.289  0.00  0.00    +0.000 A 
ATOM      5  N   UNL     1      51.102   8.146  14.168  0.00  0.00    +0.000 NA
ATOM      6  C   UNL     1      51.947   7.727  15.122  0.00  0.00    +0.000 A 
ATOM      7  C   UNL     1      51.567   6.943  16.183  0.00  0.00    +0.000 A 
ATOM      8  C   UNL     1      50.231   6.605  16.248  0.00  0.00    +0.000 A 
ATOM      9  N   UNL     1      49.353   7.032  15.314  0.00  0.00    +0.000 NA
BRANCH   8  10
ATOM     10  C   UNL     1      49.672   5.729  17.301  0.00  0.00    +0.000 A 
ATOM     11  C   UNL     1      50.137   5.769  18.630  0.00  0.00    +0.000 A 
ATOM     12  C   UNL     1      49.629   4.908  19.611  0.00  0.00    +0.000 A 
ATOM     13  C   UNL     1      48.636   3.991  19.283  0.00  0.00    +0.000 A 
ATOM     14  C   UNL     1      48.154   3.949  17.982  0.00  0.00    +0.000 A 
ATOM     15  F   UNL     1      47.194   3.072  17.664  0.00  0.00    +0.000 F 
ATOM     16  C   UNL     1      48.656   4.802  17.002  0.00  0.00    +0.000 A 
ENDBRANCH   8  10
ENDBRANCH   1   4
BRANCH   1  17
ATOM     17  C   UNL     1      48.505   7.056  12.191  0.00  0.00    +0.000 C 
BRANCH  17  21
ATOM     18  C   UNL     1      44.940   4.774  12.779  0.00  0.00    +0.000 A 
ATOM     19  C   UNL     1      45.940   4.700  13.751  0.00  0.00    +0.000 A 
ATOM     20  C   UNL     1      47.109   5.446  13.592  0.00  0.00    +0.000 A 
ATOM     21  C   UNL     1      47.246   6.269  12.476  0.00  0.00    +0.000 A 
ATOM     22  N   UNL     1      46.291   6.325  11.510  0.00  0.00    +0.000 NA
ATOM     23  C   UNL     1      45.170   5.580  11.676  0.00  0.00    +0.000 A 
BRANCH  18  25
ATOM     24  N   UNL     1      43.723   2.690  12.517  0.00  0.00    +0.000 N 
ATOM     25  C   UNL     1      43.677   4.011  12.867  0.00  0.00    +0.000 C 
ATOM     26  O   UNL     1      42.641   4.525  13.265  0.00  0.00    +0.000 OA
ATOM     27  H   UNL     1      42.876   2.153  12.660  0.00  0.00    +0.000 HD
ATOM     28  H   UNL     1      44.591   2.181  12.424  0.00  0.00    +0.000 HD
ENDBRANCH  18  25
ENDBRANCH  17  21
ENDBRANCH   1  17
TORSDOF 5
ENDMDL
