MODEL 1
REMARK VINA RESULT:    -8.852      0.000      0.000
REMARK INTER + INTRA:         -13.726
REMARK INTER:                 -12.475
REMARK INTRA:                  -1.251
REMARK UNBOUND:                -1.251
REMARK  Name = 
REMARK  10 active torsions:
REMARK  status: ('A' for Active; 'I' for Inactive)
REMARK    1  A    between atoms: C_1  and  C_2
REMARK    2  A    between atoms: N_4  and  C_5
REMARK    3  A    between atoms: C_7  and  C_8
REMARK    4  A    between atoms: C_8  and  C_9
REMARK    5  A    between atoms: C_8  and  C_10
REMARK    6  A    between atoms: C_10  and  N_11
REMARK    7  A    between atoms: N_11  and  C_12
REMARK    8  A    between atoms: C_15  and  C_16
REMARK    9  A    between atoms: C_22  and  C_23
REMARK   10  A    between atoms: C_29  and  C_30
REMARK                            x       y       z     vdW  Elec       q    Type
REMARK                         _______ _______ _______ _____ _____    ______ ____
ROOT
ATOM      1  C   UNL     1      47.440   5.367  15.053  0.00  0.00    +0.000 A 
ATOM      2  C   UNL     1      46.376   4.819  14.318  0.00  0.00    +0.000 A 
ATOM      3  C   UNL     1      46.118   5.152  12.974  0.00  0.00    +0.000 A 
ATOM      4  C   UNL     1      46.966   6.067  12.344  0.00  0.00    +0.000 A 
ATOM      5  C   UNL     1      48.052   6.623  13.034  0.00  0.00    +0.000 A 
ATOM      6  C   UNL     1      48.286   6.246  14.370  0.00  0.00    +0.000 A 
ENDROOT
BRANCH   1  10
ATOM      7  C   UNL     1      48.912   2.124  16.268  0.00  0.00    +0.000 C 
ATOM      8  C   UNL     1      48.253   2.861  17.432  0.00  0.00    +0.000 C 
ATOM      9  C   UNL     1      47.108   3.798  16.992  0.00  0.00    +0.000 C 
ATOM     10  N   UNL     1      47.619   5.033  16.382  0.00  0.00    +0.000 N 
ATOM     11  C   UNL     1      48.652   5.712  17.188  0.00  0.00    +0.000 C 
ATOM     12  C   UNL     1      49.764   4.719  17.586  0.00  0.00    +0.000 C 
ATOM     13  C   UNL     1      50.743   5.376  18.552  0.00  0.00    +0.000 C 
ATOM     14  O   UNL     1      49.231   3.551  18.236  0.00  0.00    +0.000 OA
ENDBRANCH   1  10
BRANCH   5  15
ATOM     15  C   UNL     1      48.953   7.644  12.385  0.00  0.00    +0.000 C 
ATOM     16  F   UNL     1      50.219   7.655  12.892  0.00  0.00    +0.000 F 
ATOM     17  F   UNL     1      49.094   7.432  11.046  0.00  0.00    +0.000 F 
ATOM     18  F   UNL     1      48.486   8.915  12.515  0.00  0.00    +0.000 F 
ENDBRANCH   5  15
BRANCH   3  19
ATOM     19  C   UNL     1      44.915   4.574  12.231  0.00  0.00    +0.000 C 
ATOM     20  C   UNL     1      43.762   4.273  13.195  0.00  0.00    +0.000 C 
BRANCH  19  21
ATOM     21  C   UNL     1      44.515   5.527  11.083  0.00  0.00    +0.000 C 
BRANCH  21  22
ATOM     22  N   UNL     1      43.847   4.837   9.970  0.00  0.00    +0.000 N 
ATOM     23  H   UNL     1      43.366   5.481   9.344  0.00  0.00    +0.000 HD
BRANCH  22  24
ATOM     24  C   UNL     1      44.621   3.920   9.236  0.00  0.00    +0.000 A 
ATOM     25  C   UNL     1      45.626   4.313   8.348  0.00  0.00    +0.000 A 
ATOM     26  C   UNL     1      46.415   3.365   7.701  0.00  0.00    +0.000 A 
ATOM     27  C   UNL     1      46.201   2.023   7.986  0.00  0.00    +0.000 A 
ATOM     28  N   UNL     1      45.261   1.581   8.864  0.00  0.00    +0.000 NA
ATOM     29  C   UNL     1      44.519   2.543   9.472  0.00  0.00    +0.000 A 
BRANCH  27  30
ATOM     30  C   UNL     1      47.056   0.994   7.320  0.00  0.00    +0.000 C 
ATOM     31  N   UNL     1      46.778  -0.303   7.647  0.00  0.00    +0.000 N 
ATOM     32  O   UNL     1      47.953   1.283   6.537  0.00  0.00    +0.000 OA
ATOM     33  H   UNL     1      46.044  -0.502   8.320  0.00  0.00    +0.000 HD
ATOM     34  H   UNL     1      47.344  -1.045   7.266  0.00  0.00    +0.000 HD
ENDBRANCH  27  30
ENDBRANCH  22  24
ENDBRANCH  21  22
ENDBRANCH  19  21
ENDBRANCH   3  19
TORSDOF 7
ENDMDL
MODEL 2
REMARK VINA RESULT:    -8.749      2.725      4.137
REMARK INTER + INTRA:         -13.580
REMARK INTER:                 -12.386
REMARK INTRA:                  -1.194
REMARK UNBOUND:                -1.251
REMARK  Name = 
REMARK  10 active torsions:
REMARK  status: ('A' for Active; 'I' for Inactive)
REMARK    1  A    between atoms: C_1  and  C_2
REMARK    2  A    between atoms: N_4  and  C_5
REMARK    3  A    between atoms: C_7  and  C_8
REMARK    4  A    between atoms: C_8  and  C_9
REMARK    5  A    between atoms: C_8  and  C_10
REMARK    6  A    between atoms: C_10  and  N_11
REMARK    7  A    between atoms: N_11  and  C_12
REMARK    8  A    between atoms: C_15  and  C_16
REMARK    9  A    between atoms: C_22  and  C_23
REMARK   10  A    between atoms: C_29  and  C_30
REMARK                            x       y       z     vdW  Elec       q    Type
REMARK                         _______ _______ _______ _____ _____    ______ ____
ROOT
ATOM      1  C   UNL     1      47.547   6.711  13.473  0.00  0.00    +0.000 A 
ATOM      2  C   UNL     1      46.379   6.360  12.774  0.00  0.00    +0.000 A 
ATOM      3  C   UNL     1      45.596   5.237  13.100  0.00  0.00    +0.000 A 
ATOM      4  C   UNL     1      45.998   4.438  14.174  0.00  0.00    +0.000 A 
ATOM      5  C   UNL     1      47.145   4.762  14.912  0.00  0.00    +0.000 A 
ATOM      6  C   UNL     1      47.888   5.907  14.565  0.00  0.00    +0.000 A 
ENDROOT
BRANCH   1  10
ATOM      7  C   UNL     1      50.800   7.753  15.052  0.00  0.00    +0.000 C 
ATOM      8  C   UNL     1      50.276   8.874  14.157  0.00  0.00    +0.000 C 
ATOM      9  C   UNL     1      48.741   8.862  13.997  0.00  0.00    +0.000 C 
ATOM     10  N   UNL     1      48.297   7.802  13.081  0.00  0.00    +0.000 N 
ATOM     11  C   UNL     1      49.018   7.787  11.794  0.00  0.00    +0.000 C 
ATOM     12  C   UNL     1      50.543   7.795  12.031  0.00  0.00    +0.000 C 
ATOM     13  C   UNL     1      51.286   7.945  10.708  0.00  0.00    +0.000 C 
ATOM     14  O   UNL     1      50.948   8.882  12.881  0.00  0.00    +0.000 OA
ENDBRANCH   1  10
BRANCH   5  15
ATOM     15  C   UNL     1      47.619   3.890  16.048  0.00  0.00    +0.000 C 
ATOM     16  F   UNL     1      46.685   3.709  17.024  0.00  0.00    +0.000 F 
ATOM     17  F   UNL     1      47.963   2.639  15.630  0.00  0.00    +0.000 F 
ATOM     18  F   UNL     1      48.719   4.391  16.671  0.00  0.00    +0.000 F 
ENDBRANCH   5  15
BRANCH   3  19
ATOM     19  C   UNL     1      44.366   4.862  12.276  0.00  0.00    +0.000 C 
ATOM     20  C   UNL     1      43.074   5.127  13.058  0.00  0.00    +0.000 C 
BRANCH  19  21
ATOM     21  C   UNL     1      44.416   5.596  10.918  0.00  0.00    +0.000 C 
BRANCH  21  22
ATOM     22  N   UNL     1      43.773   4.841   9.832  0.00  0.00    +0.000 N 
ATOM     23  H   UNL     1      43.264   5.443   9.187  0.00  0.00    +0.000 HD
BRANCH  22  24
ATOM     24  C   UNL     1      44.582   3.933   9.127  0.00  0.00    +0.000 A 
ATOM     25  C   UNL     1      45.608   4.336   8.267  0.00  0.00    +0.000 A 
ATOM     26  C   UNL     1      46.430   3.397   7.650  0.00  0.00    +0.000 A 
ATOM     27  C   UNL     1      46.226   2.054   7.934  0.00  0.00    +0.000 A 
ATOM     28  N   UNL     1      45.267   1.602   8.785  0.00  0.00    +0.000 NA
ATOM     29  C   UNL     1      44.493   2.555   9.366  0.00  0.00    +0.000 A 
BRANCH  27  30
ATOM     30  C   UNL     1      47.115   1.034   7.299  0.00  0.00    +0.000 C 
ATOM     31  N   UNL     1      46.879  -0.261   7.664  0.00  0.00    +0.000 N 
ATOM     32  O   UNL     1      48.004   1.329   6.509  0.00  0.00    +0.000 OA
ATOM     33  H   UNL     1      46.152  -0.464   8.341  0.00  0.00    +0.000 HD
ATOM     34  H   UNL     1      47.470  -0.995   7.305  0.00  0.00    +0.000 HD
ENDBRANCH  27  30
ENDBRANCH  22  24
ENDBRANCH  21  22
ENDBRANCH  19  21
ENDBRANCH   3  19
TORSDOF 7
ENDMDL
MODEL 3
REMARK VINA RESULT:    -8.676      2.894      4.384
REMARK INTER + INTRA:         -13.477
REMARK INTER:                 -12.262
REMARK INTRA:                  -1.215
REMARK UNBOUND:                -1.251
REMARK  Name = 
REMARK  10 active torsions:
REMARK  status: ('A' for Active; 'I' for Inactive)
REMARK    1  A    between atoms: C_1  and  C_2
REMARK    2  A    between atoms: N_4  and  C_5
REMARK    3  A    between atoms: C_7  and  C_8
REMARK    4  A    between atoms: C_8  and  C_9
REMARK    5  A    between atoms: C_8  and  C_10
REMARK    6  A    between atoms: C_10  and  N_11
REMARK    7  A    between atoms: N_11  and  C_12
REMARK    8  A    between atoms: C_15  and  C_16
REMARK    9  A    between atoms: C_22  and  C_23
REMARK   10  A    between atoms: C_29  and  C_30
REMARK                            x       y       z     vdW  Elec       q    Type
REMARK                         _______ _______ _______ _____ _____    ______ ____
ROOT
ATOM      1  C   UNL     1      47.750   6.585  13.504  0.00  0.00    +0.000 A 
ATOM      2  C   UNL     1      46.640   6.155  12.758  0.00  0.00    +0.000 A 
ATOM      3  C   UNL     1      45.856   5.042  13.119  0.00  0.00    +0.000 A 
ATOM      4  C   UNL     1      46.200   4.338  14.276  0.00  0.00    +0.000 A 
ATOM      5  C   UNL     1      47.287   4.745  15.061  0.00  0.00    +0.000 A 
ATOM      6  C   UNL     1      48.031   5.876  14.675  0.00  0.00    +0.000 A 
ENDROOT
BRANCH   1  10
ATOM      7  C   UNL     1      46.334   9.810  12.177  0.00  0.00    +0.000 C 
ATOM      8  C   UNL     1      47.829   9.738  11.874  0.00  0.00    +0.000 C 
ATOM      9  C   UNL     1      48.361   8.293  11.759  0.00  0.00    +0.000 C 
ATOM     10  N   UNL     1      48.506   7.661  13.078  0.00  0.00    +0.000 N 
ATOM     11  C   UNL     1      49.251   8.480  14.053  0.00  0.00    +0.000 C 
ATOM     12  C   UNL     1      48.662   9.906  14.118  0.00  0.00    +0.000 C 
ATOM     13  C   UNL     1      49.528  10.799  14.999  0.00  0.00    +0.000 C 
ATOM     14  O   UNL     1      48.593  10.516  12.817  0.00  0.00    +0.000 OA
ENDBRANCH   1  10
BRANCH   5  15
ATOM     15  C   UNL     1      47.699   3.974  16.290  0.00  0.00    +0.000 C 
ATOM     16  F   UNL     1      48.051   2.682  16.033  0.00  0.00    +0.000 F 
ATOM     17  F   UNL     1      48.775   4.532  16.914  0.00  0.00    +0.000 F 
ATOM     18  F   UNL     1      46.714   3.914  17.227  0.00  0.00    +0.000 F 
ENDBRANCH   5  15
BRANCH   3  19
ATOM     19  C   UNL     1      44.692   4.576  12.247  0.00  0.00    +0.000 C 
ATOM     20  C   UNL     1      43.419   4.387  13.079  0.00  0.00    +0.000 C 
BRANCH  19  21
ATOM     21  C   UNL     1      44.509   5.560  11.069  0.00  0.00    +0.000 C 
BRANCH  21  22
ATOM     22  N   UNL     1      43.878   4.940   9.895  0.00  0.00    +0.000 N 
ATOM     23  H   UNL     1      43.470   5.626   9.263  0.00  0.00    +0.000 HD
BRANCH  22  24
ATOM     24  C   UNL     1      44.650   4.007   9.180  0.00  0.00    +0.000 A 
ATOM     25  C   UNL     1      45.672   4.379   8.302  0.00  0.00    +0.000 A 
ATOM     26  C   UNL     1      46.457   3.415   7.675  0.00  0.00    +0.000 A 
ATOM     27  C   UNL     1      46.222   2.079   7.968  0.00  0.00    +0.000 A 
ATOM     28  N   UNL     1      45.264   1.656   8.836  0.00  0.00    +0.000 NA
ATOM     29  C   UNL     1      44.527   2.633   9.426  0.00  0.00    +0.000 A 
BRANCH  27  30
ATOM     30  C   UNL     1      47.072   1.033   7.322  0.00  0.00    +0.000 C 
ATOM     31  N   UNL     1      46.803  -0.255   7.692  0.00  0.00    +0.000 N 
ATOM     32  O   UNL     1      47.958   1.301   6.520  0.00  0.00    +0.000 OA
ATOM     33  H   UNL     1      46.079  -0.435   8.380  0.00  0.00    +0.000 HD
ATOM     34  H   UNL     1      47.367  -1.006   7.326  0.00  0.00    +0.000 HD
ENDBRANCH  27  30
ENDBRANCH  22  24
ENDBRANCH  21  22
ENDBRANCH  19  21
ENDBRANCH   3  19
TORSDOF 7
ENDMDL
MODEL 4
REMARK VINA RESULT:    -8.247      1.643      2.404
REMARK INTER + INTRA:         -12.872
REMARK INTER:                 -11.611
REMARK INTRA:                  -1.261
REMARK UNBOUND:                -1.251
REMARK  Name = 
REMARK  10 active torsions:
REMARK  status: ('A' for Active; 'I' for Inactive)
REMARK    1  A    between atoms: C_1  and  C_2
REMARK    2  A    between atoms: N_4  and  C_5
REMARK    3  A    between atoms: C_7  and  C_8
REMARK    4  A    between atoms: C_8  and  C_9
REMARK    5  A    between atoms: C_8  and  C_10
REMARK    6  A    between atoms: C_10  and  N_11
REMARK    7  A    between atoms: N_11  and  C_12
REMARK    8  A    between atoms: C_15  and  C_16
REMARK    9  A    between atoms: C_22  and  C_23
REMARK   10  A    between atoms: C_29  and  C_30
REMARK                            x       y       z     vdW  Elec       q    Type
REMARK                         _______ _______ _______ _____ _____    ______ ____
ROOT
ATOM      1  C   UNL     1      48.281   6.707  14.270  0.00  0.00    +0.000 A 
ATOM      2  C   UNL     1      47.393   5.796  13.673  0.00  0.00    +0.000 A 
ATOM      3  C   UNL     1      46.591   6.120  12.562  0.00  0.00    +0.000 A 
ATOM      4  C   UNL     1      46.690   7.408  12.026  0.00  0.00    +0.000 A 
ATOM      5  C   UNL     1      47.578   8.341  12.578  0.00  0.00    +0.000 A 
ATOM      6  C   UNL     1      48.377   7.968  13.676  0.00  0.00    +0.000 A 
ENDROOT
BRANCH   1  10
ATOM      7  C   UNL     1      49.162   9.023  17.102  0.00  0.00    +0.000 C 
ATOM      8  C   UNL     1      49.990   7.744  17.202  0.00  0.00    +0.000 C 
ATOM      9  C   UNL     1      50.216   7.054  15.840  0.00  0.00    +0.000 C 
ATOM     10  N   UNL     1      49.012   6.344  15.384  0.00  0.00    +0.000 N 
ATOM     11  C   UNL     1      48.426   5.451  16.402  0.00  0.00    +0.000 C 
ATOM     12  C   UNL     1      48.225   6.209  17.732  0.00  0.00    +0.000 C 
ATOM     13  C   UNL     1      47.775   5.249  18.827  0.00  0.00    +0.000 C 
ATOM     14  O   UNL     1      49.439   6.838  18.178  0.00  0.00    +0.000 OA
ENDBRANCH   1  10
BRANCH   5  15
ATOM     15  C   UNL     1      47.670   9.748  12.041  0.00  0.00    +0.000 C 
ATOM     16  F   UNL     1      48.650   9.914  11.108  0.00  0.00    +0.000 F 
ATOM     17  F   UNL     1      46.515  10.147  11.437  0.00  0.00    +0.000 F 
ATOM     18  F   UNL     1      47.919  10.666  13.014  0.00  0.00    +0.000 F 
ENDBRANCH   5  15
BRANCH   3  19
ATOM     19  C   UNL     1      45.597   5.116  11.981  0.00  0.00    +0.000 C 
ATOM     20  C   UNL     1      44.772   4.451  13.089  0.00  0.00    +0.000 C 
BRANCH  19  21
ATOM     21  C   UNL     1      44.729   5.814  10.911  0.00  0.00    +0.000 C 
BRANCH  21  22
ATOM     22  N   UNL     1      43.964   4.867  10.085  0.00  0.00    +0.000 N 
ATOM     23  H   UNL     1      43.266   5.331   9.506  0.00  0.00    +0.000 HD
BRANCH  22  24
ATOM     24  C   UNL     1      44.707   3.949   9.322  0.00  0.00    +0.000 A 
ATOM     25  C   UNL     1      45.618   4.340   8.337  0.00  0.00    +0.000 A 
ATOM     26  C   UNL     1      46.385   3.394   7.660  0.00  0.00    +0.000 A 
ATOM     27  C   UNL     1      46.245   2.058   8.011  0.00  0.00    +0.000 A 
ATOM     28  N   UNL     1      45.400   1.620   8.982  0.00  0.00    +0.000 NA
ATOM     29  C   UNL     1      44.677   2.580   9.616  0.00  0.00    +0.000 A 
BRANCH  27  30
ATOM     30  C   UNL     1      47.078   1.033   7.312  0.00  0.00    +0.000 C 
ATOM     31  N   UNL     1      46.809  -0.266   7.640  0.00  0.00    +0.000 N 
ATOM     32  O   UNL     1      47.951   1.326   6.504  0.00  0.00    +0.000 OA
ATOM     33  H   UNL     1      46.097  -0.469   8.334  0.00  0.00    +0.000 HD
ATOM     34  H   UNL     1      47.363  -1.006   7.237  0.00  0.00    +0.000 HD
ENDBRANCH  27  30
ENDBRANCH  22  24
ENDBRANCH  21  22
ENDBRANCH  19  21
ENDBRANCH   3  19
TORSDOF 7
ENDMDL
MODEL 5
REMARK VINA RESULT:    -8.206      3.352      4.433
REMARK INTER + INTRA:         -12.815
REMARK INTER:                 -11.717
REMARK INTRA:                  -1.098
REMARK UNBOUND:                -1.251
REMARK  Name = 
REMARK  10 active torsions:
REMARK  status: ('A' for Active; 'I' for Inactive)
REMARK    1  A    between atoms: C_1  and  C_2
REMARK    2  A    between atoms: N_4  and  C_5
REMARK    3  A    between atoms: C_7  and  C_8
REMARK    4  A    between atoms: C_8  and  C_9
REMARK    5  A    between atoms: C_8  and  C_10
REMARK    6  A    between atoms: C_10  and  N_11
REMARK    7  A    between atoms: N_11  and  C_12
REMARK    8  A    between atoms: C_15  and  C_16
REMARK    9  A    between atoms: C_22  and  C_23
REMARK   10  A    between atoms: C_29  and  C_30
REMARK                            x       y       z     vdW  Elec       q    Type
REMARK                         _______ _______ _______ _____ _____    ______ ____
ROOT
ATOM      1  C   UNL     1      46.901   8.648  12.360  0.00  0.00    +0.000 A 
ATOM      2  C   UNL     1      46.691   7.259  12.321  0.00  0.00    +0.000 A 
ATOM      3  C   UNL     1      45.505   6.674  11.836  0.00  0.00    +0.000 A 
ATOM      4  C   UNL     1      44.495   7.517  11.367  0.00  0.00    +0.000 A 
ATOM      5  C   UNL     1      44.670   8.908  11.368  0.00  0.00    +0.000 A 
ATOM      6  C   UNL     1      45.880   9.450  11.842  0.00  0.00    +0.000 A 
ENDROOT
BRANCH   1  10
ATOM      7  C   UNL     1      49.000   6.964  14.990  0.00  0.00    +0.000 C 
ATOM      8  C   UNL     1      49.438   8.418  14.831  0.00  0.00    +0.000 C 
ATOM      9  C   UNL     1      48.312   9.344  14.323  0.00  0.00    +0.000 C 
ATOM     10  N   UNL     1      48.069   9.166  12.885  0.00  0.00    +0.000 N 
ATOM     11  C   UNL     1      49.292   9.229  12.062  0.00  0.00    +0.000 C 
ATOM     12  C   UNL     1      50.369   8.276  12.624  0.00  0.00    +0.000 C 
ATOM     13  C   UNL     1      51.684   8.461  11.877  0.00  0.00    +0.000 C 
ATOM     14  O   UNL     1      50.625   8.521  14.019  0.00  0.00    +0.000 OA
ENDBRANCH   1  10
BRANCH   5  15
ATOM     15  C   UNL     1      43.575   9.836  10.904  0.00  0.00    +0.000 C 
ATOM     16  F   UNL     1      43.357  10.886  11.746  0.00  0.00    +0.000 F 
ATOM     17  F   UNL     1      43.847  10.389   9.688  0.00  0.00    +0.000 F 
ATOM     18  F   UNL     1      42.376   9.209  10.770  0.00  0.00    +0.000 F 
ENDBRANCH   5  15
BRANCH   3  19
ATOM     19  C   UNL     1      45.299   5.161  11.866  0.00  0.00    +0.000 C 
ATOM     20  C   UNL     1      45.634   4.584  13.246  0.00  0.00    +0.000 C 
BRANCH  19  21
ATOM     21  C   UNL     1      43.863   4.830  11.401  0.00  0.00    +0.000 C 
BRANCH  21  22
ATOM     22  N   UNL     1      43.735   4.759   9.938  0.00  0.00    +0.000 N 
ATOM     23  H   UNL     1      43.648   5.679   9.509  0.00  0.00    +0.000 HD
BRANCH  22  24
ATOM     24  C   UNL     1      44.689   3.984   9.256  0.00  0.00    +0.000 A 
ATOM     25  C   UNL     1      44.744   2.591   9.347  0.00  0.00    +0.000 A 
ATOM     26  C   UNL     1      45.661   1.863   8.593  0.00  0.00    +0.000 A 
ATOM     27  C   UNL     1      46.496   2.552   7.725  0.00  0.00    +0.000 A 
ATOM     28  N   UNL     1      46.469   3.903   7.569  0.00  0.00    +0.000 NA
ATOM     29  C   UNL     1      45.556   4.568   8.322  0.00  0.00    +0.000 A 
BRANCH  27  30
ATOM     30  C   UNL     1      47.470   1.784   6.891  0.00  0.00    +0.000 C 
ATOM     31  N   UNL     1      48.527   2.503   6.409  0.00  0.00    +0.000 N 
ATOM     32  O   UNL     1      47.334   0.592   6.642  0.00  0.00    +0.000 OA
ATOM     33  H   UNL     1      48.591   3.494   6.614  0.00  0.00    +0.000 HD
ATOM     34  H   UNL     1      49.198   2.056   5.804  0.00  0.00    +0.000 HD
ENDBRANCH  27  30
ENDBRANCH  22  24
ENDBRANCH  21  22
ENDBRANCH  19  21
ENDBRANCH   3  19
TORSDOF 7
ENDMDL
MODEL 6
REMARK VINA RESULT:    -7.985      3.375      4.253
REMARK INTER + INTRA:         -12.504
REMARK INTER:                 -11.349
REMARK INTRA:                  -1.155
REMARK UNBOUND:                -1.251
REMARK  Name = 
REMARK  10 active torsions:
REMARK  status: ('A' for Active; 'I' for Inactive)
REMARK    1  A    between atoms: C_1  and  C_2
REMARK    2  A    between atoms: N_4  and  C_5
REMARK    3  A    between atoms: C_7  and  C_8
REMARK    4  A    between atoms: C_8  and  C_9
REMARK    5  A    between atoms: C_8  and  C_10
REMARK    6  A    between atoms: C_10  and  N_11
REMARK    7  A    between atoms: N_11  and  C_12
REMARK    8  A    between atoms: C_15  and  C_16
REMARK    9  A    between atoms: C_22  and  C_23
REMARK   10  A    between atoms: C_29  and  C_30
REMARK                            x       y       z     vdW  Elec       q    Type
REMARK                         _______ _______ _______ _____ _____    ______ ____
ROOT
ATOM      1  C   UNL     1      47.267   7.942  13.047  0.00  0.00    +0.000 A 
ATOM      2  C   UNL     1      46.882   6.632  12.719  0.00  0.00    +0.000 A 
ATOM      3  C   UNL     1      45.733   6.336  11.958  0.00  0.00    +0.000 A 
ATOM      4  C   UNL     1      44.947   7.400  11.506  0.00  0.00    +0.000 A 
ATOM      5  C   UNL     1      45.307   8.723  11.793  0.00  0.00    +0.000 A 
ATOM      6  C   UNL     1      46.474   8.975  12.540  0.00  0.00    +0.000 A 
ENDROOT
BRANCH   1  10
ATOM      7  C   UNL     1      50.387   9.696  11.884  0.00  0.00    +0.000 C 
ATOM      8  C   UNL     1      50.653   8.996  13.215  0.00  0.00    +0.000 C 
ATOM      9  C   UNL     1      49.745   7.770  13.452  0.00  0.00    +0.000 C 
ATOM     10  N   UNL     1      48.382   8.168  13.832  0.00  0.00    +0.000 N 
ATOM     11  C   UNL     1      48.333   9.152  14.930  0.00  0.00    +0.000 C 
ATOM     12  C   UNL     1      49.258  10.349  14.622  0.00  0.00    +0.000 C 
ATOM     13  C   UNL     1      49.335  11.284  15.823  0.00  0.00    +0.000 C 
ATOM     14  O   UNL     1      50.598   9.925  14.316  0.00  0.00    +0.000 OA
ENDBRANCH   1  10
BRANCH   5  15
ATOM     15  C   UNL     1      44.449   9.882  11.350  0.00  0.00    +0.000 C 
ATOM     16  F   UNL     1      43.129   9.568  11.222  0.00  0.00    +0.000 F 
ATOM     17  F   UNL     1      44.496  10.925  12.227  0.00  0.00    +0.000 F 
ATOM     18  F   UNL     1      44.832  10.389  10.147  0.00  0.00    +0.000 F 
ENDBRANCH   5  15
BRANCH   3  19
ATOM     19  C   UNL     1      45.321   4.893  11.673  0.00  0.00    +0.000 C 
ATOM     20  C   UNL     1      45.662   3.977  12.854  0.00  0.00    +0.000 C 
BRANCH  19  21
ATOM     21  C   UNL     1      43.827   4.855  11.284  0.00  0.00    +0.000 C 
BRANCH  21  22
ATOM     22  N   UNL     1      43.613   4.750   9.833  0.00  0.00    +0.000 N 
ATOM     23  H   UNL     1      43.551   5.661   9.382  0.00  0.00    +0.000 HD
BRANCH  22  24
ATOM     24  C   UNL     1      44.484   3.905   9.124  0.00  0.00    +0.000 A 
ATOM     25  C   UNL     1      45.492   4.384   8.282  0.00  0.00    +0.000 A 
ATOM     26  C   UNL     1      46.377   3.507   7.660  0.00  0.00    +0.000 A 
ATOM     27  C   UNL     1      46.255   2.150   7.922  0.00  0.00    +0.000 A 
ATOM     28  N   UNL     1      45.316   1.626   8.756  0.00  0.00    +0.000 NA
ATOM     29  C   UNL     1      44.479   2.521   9.341  0.00  0.00    +0.000 A 
BRANCH  27  30
ATOM     30  C   UNL     1      47.212   1.197   7.283  0.00  0.00    +0.000 C 
ATOM     31  N   UNL     1      48.277   1.771   6.647  0.00  0.00    +0.000 N 
ATOM     32  O   UNL     1      47.059  -0.018   7.313  0.00  0.00    +0.000 OA
ATOM     33  H   UNL     1      48.356   2.782   6.619  0.00  0.00    +0.000 HD
ATOM     34  H   UNL     1      48.938   1.188   6.158  0.00  0.00    +0.000 HD
ENDBRANCH  27  30
ENDBRANCH  22  24
ENDBRANCH  21  22
ENDBRANCH  19  21
ENDBRANCH   3  19
TORSDOF 7
ENDMDL
MODEL 7
REMARK VINA RESULT:    -7.464      1.757      2.316
REMARK INTER + INTRA:         -11.769
REMARK INTER:                 -10.512
REMARK INTRA:                  -1.257
REMARK UNBOUND:                -1.251
REMARK  Name = 
REMARK  10 active torsions:
REMARK  status: ('A' for Active; 'I' for Inactive)
REMARK    1  A    between atoms: C_1  and  C_2
REMARK    2  A    between atoms: N_4  and  C_5
REMARK    3  A    between atoms: C_7  and  C_8
REMARK    4  A    between atoms: C_8  and  C_9
REMARK    5  A    between atoms: C_8  and  C_10
REMARK    6  A    between atoms: C_10  and  N_11
REMARK    7  A    between atoms: N_11  and  C_12
REMARK    8  A    between atoms: C_15  and  C_16
REMARK    9  A    between atoms: C_22  and  C_23
REMARK   10  A    between atoms: C_29  and  C_30
REMARK                            x       y       z     vdW  Elec       q    Type
REMARK                         _______ _______ _______ _____ _____    ______ ____
ROOT
ATOM      1  C   UNL     1      48.446   6.906  14.760  0.00  0.00    +0.000 A 
ATOM      2  C   UNL     1      47.440   6.138  14.151  0.00  0.00    +0.000 A 
ATOM      3  C   UNL     1      47.264   6.069  12.755  0.00  0.00    +0.000 A 
ATOM      4  C   UNL     1      48.138   6.795  11.941  0.00  0.00    +0.000 A 
ATOM      5  C   UNL     1      49.169   7.558  12.506  0.00  0.00    +0.000 A 
ATOM      6  C   UNL     1      49.321   7.583  13.906  0.00  0.00    +0.000 A 
ENDROOT
BRANCH   1  10
ATOM      7  C   UNL     1      51.469   5.862  16.744  0.00  0.00    +0.000 C 
ATOM      8  C   UNL     1      50.276   6.048  17.678  0.00  0.00    +0.000 C 
ATOM      9  C   UNL     1      48.915   5.825  16.983  0.00  0.00    +0.000 C 
ATOM     10  N   UNL     1      48.544   6.968  16.137  0.00  0.00    +0.000 N 
ATOM     11  C   UNL     1      48.645   8.272  16.819  0.00  0.00    +0.000 C 
ATOM     12  C   UNL     1      50.030   8.426  17.484  0.00  0.00    +0.000 C 
ATOM     13  C   UNL     1      50.077   9.697  18.324  0.00  0.00    +0.000 C 
ATOM     14  O   UNL     1      50.332   7.320  18.353  0.00  0.00    +0.000 OA
ENDBRANCH   1  10
BRANCH   5  15
ATOM     15  C   UNL     1      50.096   8.382  11.647  0.00  0.00    +0.000 C 
ATOM     16  F   UNL     1      49.502   9.481  11.101  0.00  0.00    +0.000 F 
ATOM     17  F   UNL     1      51.168   8.851  12.346  0.00  0.00    +0.000 F 
ATOM     18  F   UNL     1      50.611   7.677  10.604  0.00  0.00    +0.000 F 
ENDBRANCH   5  15
BRANCH   3  19
ATOM     19  C   UNL     1      46.121   5.266  12.139  0.00  0.00    +0.000 C 
ATOM     20  C   UNL     1      45.128   4.804  13.212  0.00  0.00    +0.000 C 
BRANCH  19  21
ATOM     21  C   UNL     1      45.459   6.095  11.015  0.00  0.00    +0.000 C 
BRANCH  21  22
ATOM     22  N   UNL     1      44.579   5.293  10.152  0.00  0.00    +0.000 N 
ATOM     23  H   UNL     1      43.903   5.864   9.648  0.00  0.00    +0.000 HD
BRANCH  22  24
ATOM     24  C   UNL     1      45.203   4.382   9.282  0.00  0.00    +0.000 A 
ATOM     25  C   UNL     1      46.055   4.779   8.248  0.00  0.00    +0.000 A 
ATOM     26  C   UNL     1      46.707   3.834   7.460  0.00  0.00    +0.000 A 
ATOM     27  C   UNL     1      46.518   2.490   7.749  0.00  0.00    +0.000 A 
ATOM     28  N   UNL     1      45.728   2.042   8.762  0.00  0.00    +0.000 NA
ATOM     29  C   UNL     1      45.115   3.001   9.503  0.00  0.00    +0.000 A 
BRANCH  27  30
ATOM     30  C   UNL     1      47.230   1.463   6.930  0.00  0.00    +0.000 C 
ATOM     31  N   UNL     1      48.258   1.933   6.161  0.00  0.00    +0.000 N 
ATOM     32  O   UNL     1      46.918   0.279   6.933  0.00  0.00    +0.000 OA
ATOM     33  H   UNL     1      48.470   2.925   6.165  0.00  0.00    +0.000 HD
ATOM     34  H   UNL     1      48.753   1.301   5.552  0.00  0.00    +0.000 HD
ENDBRANCH  27  30
ENDBRANCH  22  24
ENDBRANCH  21  22
ENDBRANCH  19  21
ENDBRANCH   3  19
TORSDOF 7
ENDMDL
MODEL 8
REMARK VINA RESULT:    -7.094      3.119      7.809
REMARK INTER + INTRA:         -11.247
REMARK INTER:                  -9.972
REMARK INTRA:                  -1.275
REMARK UNBOUND:                -1.251
REMARK  Name = 
REMARK  10 active torsions:
REMARK  status: ('A' for Active; 'I' for Inactive)
REMARK    1  A    between atoms: C_1  and  C_2
REMARK    2  A    between atoms: N_4  and  C_5
REMARK    3  A    between atoms: C_7  and  C_8
REMARK    4  A    between atoms: C_8  and  C_9
REMARK    5  A    between atoms: C_8  and  C_10
REMARK    6  A    between atoms: C_10  and  N_11
REMARK    7  A    between atoms: N_11  and  C_12
REMARK    8  A    between atoms: C_15  and  C_16
REMARK    9  A    between atoms: C_22  and  C_23
REMARK   10  A    between atoms: C_29  and  C_30
REMARK                            x       y       z     vdW  Elec       q    Type
REMARK                         _______ _______ _______ _____ _____    ______ ____
ROOT
ATOM      1  C   UNL     1      45.711   6.927  11.822  0.00  0.00    +0.000 A 
ATOM      2  C   UNL     1      46.957   7.314  12.342  0.00  0.00    +0.000 A 
ATOM      3  C   UNL     1      47.349   8.660  12.478  0.00  0.00    +0.000 A 
ATOM      4  C   UNL     1      46.451   9.654  12.081  0.00  0.00    +0.000 A 
ATOM      5  C   UNL     1      45.188   9.313  11.577  0.00  0.00    +0.000 A 
ATOM      6  C   UNL     1      44.829   7.955  11.477  0.00  0.00    +0.000 A 
ENDROOT
BRANCH   1  10
ATOM      7  C   UNL     1      42.215   5.534  11.783  0.00  0.00    +0.000 C 
ATOM      8  C   UNL     1      43.222   4.399  11.940  0.00  0.00    +0.000 C 
ATOM      9  C   UNL     1      44.543   4.841  12.606  0.00  0.00    +0.000 C 
ATOM     10  N   UNL     1      45.398   5.589  11.674  0.00  0.00    +0.000 N 
ATOM     11  C   UNL     1      45.596   4.917  10.376  0.00  0.00    +0.000 C 
ATOM     12  C   UNL     1      44.236   4.509   9.769  0.00  0.00    +0.000 C 
ATOM     13  C   UNL     1      44.445   3.672   8.512  0.00  0.00    +0.000 C 
ATOM     14  O   UNL     1      43.454   3.725  10.687  0.00  0.00    +0.000 OA
ENDBRANCH   1  10
BRANCH   5  15
ATOM     15  C   UNL     1      44.221  10.370  11.104  0.00  0.00    +0.000 C 
ATOM     16  F   UNL     1      43.434   9.966  10.068  0.00  0.00    +0.000 F 
ATOM     17  F   UNL     1      43.363  10.762  12.088  0.00  0.00    +0.000 F 
ATOM     18  F   UNL     1      44.846  11.502  10.681  0.00  0.00    +0.000 F 
ENDBRANCH   5  15
BRANCH   3  19
ATOM     19  C   UNL     1      48.737   9.033  12.995  0.00  0.00    +0.000 C 
ATOM     20  C   UNL     1      48.645  10.014  14.170  0.00  0.00    +0.000 C 
BRANCH  19  21
ATOM     21  C   UNL     1      49.519   7.745  13.338  0.00  0.00    +0.000 C 
BRANCH  21  22
ATOM     22  N   UNL     1      49.946   7.690  14.744  0.00  0.00    +0.000 N 
ATOM     23  H   UNL     1      49.787   8.568  15.235  0.00  0.00    +0.000 HD
BRANCH  22  24
ATOM     24  C   UNL     1      49.477   6.605  15.506  0.00  0.00    +0.000 A 
ATOM     25  C   UNL     1      50.033   6.241  16.735  0.00  0.00    +0.000 A 
ATOM     26  C   UNL     1      49.484   5.205  17.487  0.00  0.00    +0.000 A 
ATOM     27  C   UNL     1      48.352   4.566  17.001  0.00  0.00    +0.000 A 
ATOM     28  N   UNL     1      47.747   4.895  15.828  0.00  0.00    +0.000 NA
ATOM     29  C   UNL     1      48.316   5.913  15.133  0.00  0.00    +0.000 A 
BRANCH  27  30
ATOM     30  C   UNL     1      47.736   3.468  17.806  0.00  0.00    +0.000 C 
ATOM     31  N   UNL     1      48.391   3.147  18.962  0.00  0.00    +0.000 N 
ATOM     32  O   UNL     1      46.716   2.884  17.460  0.00  0.00    +0.000 OA
ATOM     33  H   UNL     1      49.247   3.635  19.202  0.00  0.00    +0.000 HD
ATOM     34  H   UNL     1      48.052   2.387  19.531  0.00  0.00    +0.000 HD
ENDBRANCH  27  30
ENDBRANCH  22  24
ENDBRANCH  21  22
ENDBRANCH  19  21
ENDBRANCH   3  19
TORSDOF 7
ENDMDL
MODEL 9
REMARK VINA RESULT:    -7.067      2.929      7.932
REMARK INTER + INTRA:         -11.210
REMARK INTER:                 -10.019
REMARK INTRA:                  -1.190
REMARK UNBOUND:                -1.251
REMARK  Name = 
REMARK  10 active torsions:
REMARK  status: ('A' for Active; 'I' for Inactive)
REMARK    1  A    between atoms: C_1  and  C_2
REMARK    2  A    between atoms: N_4  and  C_5
REMARK    3  A    between atoms: C_7  and  C_8
REMARK    4  A    between atoms: C_8  and  C_9
REMARK    5  A    between atoms: C_8  and  C_10
REMARK    6  A    between atoms: C_10  and  N_11
REMARK    7  A    between atoms: N_11  and  C_12
REMARK    8  A    between atoms: C_15  and  C_16
REMARK    9  A    between atoms: C_22  and  C_23
REMARK   10  A    between atoms: C_29  and  C_30
REMARK                            x       y       z     vdW  Elec       q    Type
REMARK                         _______ _______ _______ _____ _____    ______ ____
ROOT
ATOM      1  C   UNL     1      46.061   5.089  13.330  0.00  0.00    +0.000 A 
ATOM      2  C   UNL     1      46.751   4.850  14.530  0.00  0.00    +0.000 A 
ATOM      3  C   UNL     1      47.822   5.650  14.973  0.00  0.00    +0.000 A 
ATOM      4  C   UNL     1      48.209   6.736  14.183  0.00  0.00    +0.000 A 
ATOM      5  C   UNL     1      47.534   7.023  12.988  0.00  0.00    +0.000 A 
ATOM      6  C   UNL     1      46.455   6.209  12.593  0.00  0.00    +0.000 A 
ENDROOT
BRANCH   1  10
ATOM      7  C   UNL     1      43.069   6.150  11.308  0.00  0.00    +0.000 C 
ATOM      8  C   UNL     1      42.836   4.756  11.884  0.00  0.00    +0.000 C 
ATOM      9  C   UNL     1      43.620   4.494  13.188  0.00  0.00    +0.000 C 
ATOM     10  N   UNL     1      45.044   4.245  12.926  0.00  0.00    +0.000 N 
ATOM     11  C   UNL     1      45.289   3.230  11.884  0.00  0.00    +0.000 C 
ATOM     12  C   UNL     1      44.479   3.558  10.611  0.00  0.00    +0.000 C 
ATOM     13  C   UNL     1      44.602   2.427   9.597  0.00  0.00    +0.000 C 
ATOM     14  O   UNL     1      43.080   3.733  10.898  0.00  0.00    +0.000 OA
ENDBRANCH   1  10
BRANCH   5  15
ATOM     15  C   UNL     1      47.964   8.165  12.101  0.00  0.00    +0.000 C 
ATOM     16  F   UNL     1      46.925   8.917  11.638  0.00  0.00    +0.000 F 
ATOM     17  F   UNL     1      48.792   9.036  12.744  0.00  0.00    +0.000 F 
ATOM     18  F   UNL     1      48.644   7.747  10.999  0.00  0.00    +0.000 F 
ENDBRANCH   5  15
BRANCH   3  19
ATOM     19  C   UNL     1      48.580   5.318  16.257  0.00  0.00    +0.000 C 
ATOM     20  C   UNL     1      48.660   6.537  17.183  0.00  0.00    +0.000 C 
BRANCH  19  21
ATOM     21  C   UNL     1      47.936   4.084  16.928  0.00  0.00    +0.000 C 
BRANCH  21  22
ATOM     22  N   UNL     1      48.670   3.630  18.119  0.00  0.00    +0.000 N 
ATOM     23  H   UNL     1      48.110   3.020  18.712  0.00  0.00    +0.000 HD
BRANCH  22  24
ATOM     24  C   UNL     1      49.944   3.076  17.904  0.00  0.00    +0.000 A 
ATOM     25  C   UNL     1      51.125   3.703  18.311  0.00  0.00    +0.000 A 
ATOM     26  C   UNL     1      52.358   3.079  18.142  0.00  0.00    +0.000 A 
ATOM     27  C   UNL     1      52.383   1.806  17.589  0.00  0.00    +0.000 A 
ATOM     28  N   UNL     1      51.267   1.132  17.203  0.00  0.00    +0.000 NA
ATOM     29  C   UNL     1      50.088   1.780  17.392  0.00  0.00    +0.000 A 
BRANCH  27  30
ATOM     30  C   UNL     1      53.696   1.112  17.423  0.00  0.00    +0.000 C 
ATOM     31  N   UNL     1      53.658  -0.059  16.720  0.00  0.00    +0.000 N 
ATOM     32  O   UNL     1      54.741   1.549  17.889  0.00  0.00    +0.000 OA
ATOM     33  H   UNL     1      52.769  -0.403  16.372  0.00  0.00    +0.000 HD
ATOM     34  H   UNL     1      54.501  -0.600  16.608  0.00  0.00    +0.000 HD
ENDBRANCH  27  30
ENDBRANCH  22  24
ENDBRANCH  21  22
ENDBRANCH  19  21
ENDBRANCH   3  19
TORSDOF 7
ENDMDL
