MODEL 1
REMARK VINA RESULT:    -5.168      0.000      0.000
REMARK INTER + INTRA:          -7.450
REMARK INTER:                  -6.527
REMARK INTRA:                  -0.922
REMARK UNBOUND:                -0.922
REMARK  Name = 
REMARK  9 active torsions:
REMARK  status: ('A' for Active; 'I' for Inactive)
REMARK    1  A    between atoms: C_1  and  C_2
REMARK    2  A    between atoms: C_3  and  C_4
REMARK    3  A    between atoms: C_7  and  C_8
REMARK    4  A    between atoms: C_14  and  C_15
REMARK    5  A    between atoms: C_14  and  C_16
REMARK    6  A    between atoms: C_19  and  C_20
REMARK    7  A    between atoms: C_20  and  C_21
REMARK    8  A    between atoms: C_20  and  C_22
REMARK    9  A    between atoms: C_20  and  O_23
REMARK                            x       y       z     vdW  Elec       q    Type
REMARK                         _______ _______ _______ _____ _____    ______ ____
ROOT
ATOM      1  C   UNL     1      49.615   7.766  11.400  0.00  0.00    +0.000 C 
ATOM      2  C   UNL     1      49.676   7.596  12.916  0.00  0.00    +0.000 C 
ATOM      3  C   UNL     1      49.845   8.962  13.669  0.00  0.00    +0.000 C 
ATOM      4  C   UNL     1      48.333   8.873  14.014  0.00  0.00    +0.000 C 
ATOM      5  C   UNL     1      48.365   7.336  13.751  0.00  0.00    +0.000 C 
ATOM      6  C   UNL     1      48.619   6.521  15.034  0.00  0.00    +0.000 C 
ENDROOT
BRANCH   3   7
ATOM      7  C   UNL     1      50.901   9.070  14.858  0.00  0.00    +0.000 A 
ATOM      8  C   UNL     1      52.008   8.210  14.967  0.00  0.00    +0.000 A 
ATOM      9  C   UNL     1      52.926   8.333  16.011  0.00  0.00    +0.000 A 
ATOM     10  C   UNL     1      52.709   9.328  16.949  0.00  0.00    +0.000 A 
ATOM     11  N   UNL     1      51.651  10.180  16.916  0.00  0.00    +0.000 NA
ATOM     12  C   UNL     1      50.788  10.016  15.886  0.00  0.00    +0.000 A 
BRANCH  10  13
ATOM     13  C   UNL     1      53.668   9.511  18.083  0.00  0.00    +0.000 C 
ATOM     14  N   UNL     1      54.832   8.794  17.975  0.00  0.00    +0.000 N 
ATOM     15  O   UNL     1      53.442  10.240  19.037  0.00  0.00    +0.000 OA
ATOM     16  H   UNL     1      54.973   8.200  17.166  0.00  0.00    +0.000 HD
ATOM     17  H   UNL     1      55.533   8.860  18.697  0.00  0.00    +0.000 HD
ENDBRANCH  10  13
ENDBRANCH   3   7
BRANCH   5  18
ATOM     18  C   UNL     1      47.104   6.674  13.012  0.00  0.00    +0.000 A 
ATOM     19  C   UNL     1      46.794   5.309  13.159  0.00  0.00    +0.000 A 
ATOM     20  C   UNL     1      45.663   4.732  12.574  0.00  0.00    +0.000 A 
ATOM     21  C   UNL     1      44.760   5.504  11.830  0.00  0.00    +0.000 A 
ATOM     22  C   UNL     1      45.068   6.859  11.649  0.00  0.00    +0.000 A 
ATOM     23  C   UNL     1      46.207   7.426  12.234  0.00  0.00    +0.000 A 
BRANCH  21  24
ATOM     24  C   UNL     1      43.521   4.863  11.214  0.00  0.00    +0.000 C 
ATOM     25  C   UNL     1      43.448   3.343  11.416  0.00  0.00    +0.000 C 
ATOM     26  C   UNL     1      42.260   5.534  11.762  0.00  0.00    +0.000 C 
BRANCH  24  27
ATOM     27  O   UNL     1      43.530   5.066   9.794  0.00  0.00    +0.000 OA
ATOM     28  H   UNL     1      44.350   4.661   9.460  0.00  0.00    +0.000 HD
ENDBRANCH  24  27
ENDBRANCH  21  24
ENDBRANCH   5  18
TORSDOF 5
ENDMDL
MODEL 2
REMARK VINA RESULT:    -4.754      3.333      9.206
REMARK INTER + INTRA:          -6.926
REMARK INTER:                  -6.122
REMARK INTRA:                  -0.805
REMARK UNBOUND:                -0.922
REMARK  Name = 
REMARK  9 active torsions:
REMARK  status: ('A' for Active; 'I' for Inactive)
REMARK    1  A    between atoms: C_1  and  C_2
REMARK    2  A    between atoms: C_3  and  C_4
REMARK    3  A    between atoms: C_7  and  C_8
REMARK    4  A    between atoms: C_14  and  C_15
REMARK    5  A    between atoms: C_14  and  C_16
REMARK    6  A    between atoms: C_19  and  C_20
REMARK    7  A    between atoms: C_20  and  C_21
REMARK    8  A    between atoms: C_20  and  C_22
REMARK    9  A    between atoms: C_20  and  O_23
REMARK                            x       y       z     vdW  Elec       q    Type
REMARK                         _______ _______ _______ _____ _____    ______ ____
ROOT
ATOM      1  C   UNL     1      48.634  10.029  13.491  0.00  0.00    +0.000 C 
ATOM      2  C   UNL     1      48.123   8.597  13.630  0.00  0.00    +0.000 C 
ATOM      3  C   UNL     1      47.930   7.889  12.244  0.00  0.00    +0.000 C 
ATOM      4  C   UNL     1      49.257   7.132  12.531  0.00  0.00    +0.000 C 
ATOM      5  C   UNL     1      49.097   7.432  14.053  0.00  0.00    +0.000 C 
ATOM      6  C   UNL     1      48.384   6.294  14.809  0.00  0.00    +0.000 C 
ENDROOT
BRANCH   3   7
ATOM      7  C   UNL     1      46.604   7.044  11.979  0.00  0.00    +0.000 A 
ATOM      8  C   UNL     1      46.430   6.251  10.830  0.00  0.00    +0.000 A 
ATOM      9  C   UNL     1      45.265   5.510  10.627  0.00  0.00    +0.000 A 
ATOM     10  C   UNL     1      44.274   5.585  11.591  0.00  0.00    +0.000 A 
ATOM     11  N   UNL     1      44.368   6.345  12.713  0.00  0.00    +0.000 NA
ATOM     12  C   UNL     1      45.515   7.047  12.862  0.00  0.00    +0.000 A 
BRANCH  10  13
ATOM     13  C   UNL     1      43.010   4.802  11.428  0.00  0.00    +0.000 C 
ATOM     14  N   UNL     1      41.860   5.505  11.677  0.00  0.00    +0.000 N 
ATOM     15  O   UNL     1      42.992   3.626  11.098  0.00  0.00    +0.000 OA
ATOM     16  H   UNL     1      41.926   6.480  11.950  0.00  0.00    +0.000 HD
ATOM     17  H   UNL     1      40.963   5.052  11.589  0.00  0.00    +0.000 HD
ENDBRANCH  10  13
ENDBRANCH   3   7
BRANCH   5  18
ATOM     18  C   UNL     1      50.416   7.800  14.889  0.00  0.00    +0.000 A 
ATOM     19  C   UNL     1      50.450   7.711  16.293  0.00  0.00    +0.000 A 
ATOM     20  C   UNL     1      51.611   7.967  17.030  0.00  0.00    +0.000 A 
ATOM     21  C   UNL     1      52.814   8.298  16.392  0.00  0.00    +0.000 A 
ATOM     22  C   UNL     1      52.791   8.419  14.996  0.00  0.00    +0.000 A 
ATOM     23  C   UNL     1      51.622   8.167  14.268  0.00  0.00    +0.000 A 
BRANCH  21  24
ATOM     24  C   UNL     1      54.076   8.554  17.210  0.00  0.00    +0.000 C 
ATOM     25  C   UNL     1      54.082   9.913  17.924  0.00  0.00    +0.000 C 
ATOM     26  C   UNL     1      54.284   7.422  18.217  0.00  0.00    +0.000 C 
BRANCH  24  27
ATOM     27  O   UNL     1      55.216   8.568  16.340  0.00  0.00    +0.000 OA
ATOM     28  H   UNL     1      55.897   9.106  16.781  0.00  0.00    +0.000 HD
ENDBRANCH  24  27
ENDBRANCH  21  24
ENDBRANCH   5  18
TORSDOF 5
ENDMDL
MODEL 3
REMARK VINA RESULT:    -4.634     13.563     15.798
REMARK INTER + INTRA:          -6.775
REMARK INTER:                  -6.041
REMARK INTRA:                  -0.734
REMARK UNBOUND:                -0.922
REMARK  Name = 
REMARK  9 active torsions:
REMARK  status: ('A' for Active; 'I' for Inactive)
REMARK    1  A    between atoms: C_1  and  C_2
REMARK    2  A    between atoms: C_3  and  C_4
REMARK    3  A    between atoms: C_7  and  C_8
REMARK    4  A    between atoms: C_14  and  C_15
REMARK    5  A    between atoms: C_14  and  C_16
REMARK    6  A    between atoms: C_19  and  C_20
REMARK    7  A    between atoms: C_20  and  C_21
REMARK    8  A    between atoms: C_20  and  C_22
REMARK    9  A    between atoms: C_20  and  O_23
REMARK                            x       y       z     vdW  Elec       q    Type
REMARK                         _______ _______ _______ _____ _____    ______ ____
ROOT
ATOM      1  C   UNL     1      38.140  -4.852  14.790  0.00  0.00    +0.000 C 
ATOM      2  C   UNL     1      38.813  -3.785  13.930  0.00  0.00    +0.000 C 
ATOM      3  C   UNL     1      38.157  -2.371  14.103  0.00  0.00    +0.000 C 
ATOM      4  C   UNL     1      39.373  -1.999  14.997  0.00  0.00    +0.000 C 
ATOM      5  C   UNL     1      40.195  -3.161  14.358  0.00  0.00    +0.000 C 
ATOM      6  C   UNL     1      41.043  -2.695  13.158  0.00  0.00    +0.000 C 
ENDROOT
BRANCH   3   7
ATOM      7  C   UNL     1      37.856  -1.489  12.809  0.00  0.00    +0.000 A 
ATOM      8  C   UNL     1      38.037  -1.977  11.503  0.00  0.00    +0.000 A 
ATOM      9  C   UNL     1      37.753  -1.190  10.386  0.00  0.00    +0.000 A 
ATOM     10  C   UNL     1      37.293   0.098  10.602  0.00  0.00    +0.000 A 
ATOM     11  N   UNL     1      37.115   0.639  11.835  0.00  0.00    +0.000 NA
ATOM     12  C   UNL     1      37.408  -0.163  12.885  0.00  0.00    +0.000 A 
BRANCH  10  13
ATOM     13  C   UNL     1      36.964   0.981   9.440  0.00  0.00    +0.000 C 
ATOM     14  N   UNL     1      36.037   0.469   8.570  0.00  0.00    +0.000 N 
ATOM     15  O   UNL     1      37.477   2.077   9.269  0.00  0.00    +0.000 OA
ATOM     16  H   UNL     1      35.641  -0.447   8.753  0.00  0.00    +0.000 HD
ATOM     17  H   UNL     1      35.758   1.000   7.760  0.00  0.00    +0.000 HD
ENDBRANCH  10  13
ENDBRANCH   3   7
BRANCH   5  18
ATOM     18  C   UNL     1      41.159  -4.014  15.315  0.00  0.00    +0.000 A 
ATOM     19  C   UNL     1      41.691  -5.254  14.915  0.00  0.00    +0.000 A 
ATOM     20  C   UNL     1      42.582  -5.978  15.712  0.00  0.00    +0.000 A 
ATOM     21  C   UNL     1      43.015  -5.480  16.948  0.00  0.00    +0.000 A 
ATOM     22  C   UNL     1      42.475  -4.259  17.376  0.00  0.00    +0.000 A 
ATOM     23  C   UNL     1      41.577  -3.545  16.573  0.00  0.00    +0.000 A 
BRANCH  21  24
ATOM     24  C   UNL     1      44.004  -6.272  17.797  0.00  0.00    +0.000 C 
ATOM     25  C   UNL     1      44.789  -5.411  18.796  0.00  0.00    +0.000 C 
ATOM     26  C   UNL     1      43.276  -7.403  18.525  0.00  0.00    +0.000 C 
BRANCH  24  27
ATOM     27  O   UNL     1      44.989  -6.876  16.947  0.00  0.00    +0.000 OA
ATOM     28  H   UNL     1      45.467  -7.526  17.492  0.00  0.00    +0.000 HD
ENDBRANCH  24  27
ENDBRANCH  21  24
ENDBRANCH   5  18
TORSDOF 5
ENDMDL
MODEL 4
REMARK VINA RESULT:    -4.580      3.944      9.358
REMARK INTER + INTRA:          -6.707
REMARK INTER:                  -5.980
REMARK INTRA:                  -0.727
REMARK UNBOUND:                -0.922
REMARK  Name = 
REMARK  9 active torsions:
REMARK  status: ('A' for Active; 'I' for Inactive)
REMARK    1  A    between atoms: C_1  and  C_2
REMARK    2  A    between atoms: C_3  and  C_4
REMARK    3  A    between atoms: C_7  and  C_8
REMARK    4  A    between atoms: C_14  and  C_15
REMARK    5  A    between atoms: C_14  and  C_16
REMARK    6  A    between atoms: C_19  and  C_20
REMARK    7  A    between atoms: C_20  and  C_21
REMARK    8  A    between atoms: C_20  and  C_22
REMARK    9  A    between atoms: C_20  and  O_23
REMARK                            x       y       z     vdW  Elec       q    Type
REMARK                         _______ _______ _______ _____ _____    ______ ____
ROOT
ATOM      1  C   UNL     1      47.529   5.334  15.663  0.00  0.00    +0.000 C 
ATOM      2  C   UNL     1      47.543   5.529  14.149  0.00  0.00    +0.000 C 
ATOM      3  C   UNL     1      46.106   5.727  13.553  0.00  0.00    +0.000 C 
ATOM      4  C   UNL     1      46.436   7.243  13.457  0.00  0.00    +0.000 C 
ATOM      5  C   UNL     1      47.959   6.913  13.519  0.00  0.00    +0.000 C 
ATOM      6  C   UNL     1      48.592   6.773  12.120  0.00  0.00    +0.000 C 
ENDROOT
BRANCH   3   7
ATOM      7  C   UNL     1      45.698   4.943  12.226  0.00  0.00    +0.000 A 
ATOM      8  C   UNL     1      45.658   5.563  10.964  0.00  0.00    +0.000 A 
ATOM      9  C   UNL     1      45.310   4.851   9.815  0.00  0.00    +0.000 A 
ATOM     10  C   UNL     1      44.994   3.510   9.955  0.00  0.00    +0.000 A 
ATOM     11  N   UNL     1      44.993   2.855  11.145  0.00  0.00    +0.000 NA
ATOM     12  C   UNL     1      45.334   3.590  12.229  0.00  0.00    +0.000 A 
BRANCH  10  13
ATOM     13  C   UNL     1      44.624   2.699   8.754  0.00  0.00    +0.000 C 
ATOM     14  N   UNL     1      44.295   3.430   7.642  0.00  0.00    +0.000 N 
ATOM     15  O   UNL     1      44.613   1.477   8.752  0.00  0.00    +0.000 OA
ATOM     16  H   UNL     1      44.316   4.443   7.693  0.00  0.00    +0.000 HD
ATOM     17  H   UNL     1      44.034   2.960   6.789  0.00  0.00    +0.000 HD
ENDBRANCH  10  13
ENDBRANCH   3   7
BRANCH   5  18
ATOM     18  C   UNL     1      48.906   7.890  14.370  0.00  0.00    +0.000 A 
ATOM     19  C   UNL     1      48.376   8.900  15.194  0.00  0.00    +0.000 A 
ATOM     20  C   UNL     1      49.185   9.717  15.990  0.00  0.00    +0.000 A 
ATOM     21  C   UNL     1      50.576   9.543  16.025  0.00  0.00    +0.000 A 
ATOM     22  C   UNL     1      51.123   8.560  15.189  0.00  0.00    +0.000 A 
ATOM     23  C   UNL     1      50.305   7.752  14.391  0.00  0.00    +0.000 A 
BRANCH  21  24
ATOM     24  C   UNL     1      51.442  10.429  16.913  0.00  0.00    +0.000 C 
ATOM     25  C   UNL     1      52.264   9.649  17.949  0.00  0.00    +0.000 C 
ATOM     26  C   UNL     1      52.359  11.297  16.050  0.00  0.00    +0.000 C 
BRANCH  24  27
ATOM     27  O   UNL     1      50.604  11.314  17.670  0.00  0.00    +0.000 OA
ATOM     28  H   UNL     1      50.288  10.809  18.440  0.00  0.00    +0.000 HD
ENDBRANCH  24  27
ENDBRANCH  21  24
ENDBRANCH   5  18
TORSDOF 5
ENDMDL
MODEL 5
REMARK VINA RESULT:    -4.571      3.563      9.364
REMARK INTER + INTRA:          -6.696
REMARK INTER:                  -5.918
REMARK INTRA:                  -0.779
REMARK UNBOUND:                -0.922
REMARK  Name = 
REMARK  9 active torsions:
REMARK  status: ('A' for Active; 'I' for Inactive)
REMARK    1  A    between atoms: C_1  and  C_2
REMARK    2  A    between atoms: C_3  and  C_4
REMARK    3  A    between atoms: C_7  and  C_8
REMARK    4  A    between atoms: C_14  and  C_15
REMARK    5  A    between atoms: C_14  and  C_16
REMARK    6  A    between atoms: C_19  and  C_20
REMARK    7  A    between atoms: C_20  and  C_21
REMARK    8  A    between atoms: C_20  and  C_22
REMARK    9  A    between atoms: C_20  and  O_23
REMARK                            x       y       z     vdW  Elec       q    Type
REMARK                         _______ _______ _______ _____ _____    ______ ____
ROOT
ATOM      1  C   UNL     1      48.720   6.360  15.923  0.00  0.00    +0.000 C 
ATOM      2  C   UNL     1      48.526   6.414  14.410  0.00  0.00    +0.000 C 
ATOM      3  C   UNL     1      47.071   6.833  14.004  0.00  0.00    +0.000 C 
ATOM      4  C   UNL     1      47.646   8.241  13.684  0.00  0.00    +0.000 C 
ATOM      5  C   UNL     1      49.077   7.628  13.570  0.00  0.00    +0.000 C 
ATOM      6  C   UNL     1      49.441   7.245  12.123  0.00  0.00    +0.000 C 
ENDROOT
BRANCH   3   7
ATOM      7  C   UNL     1      46.322   6.028  12.849  0.00  0.00    +0.000 A 
ATOM      8  C   UNL     1      46.060   6.588  11.585  0.00  0.00    +0.000 A 
ATOM      9  C   UNL     1      45.415   5.858  10.586  0.00  0.00    +0.000 A 
ATOM     10  C   UNL     1      45.028   4.561  10.879  0.00  0.00    +0.000 A 
ATOM     11  N   UNL     1      45.232   3.966  12.083  0.00  0.00    +0.000 NA
ATOM     12  C   UNL     1      45.858   4.717  13.019  0.00  0.00    +0.000 A 
BRANCH  10  13
ATOM     13  C   UNL     1      44.342   3.731   9.840  0.00  0.00    +0.000 C 
ATOM     14  N   UNL     1      44.237   4.321   8.608  0.00  0.00    +0.000 N 
ATOM     15  O   UNL     1      43.905   2.612  10.063  0.00  0.00    +0.000 OA
ATOM     16  H   UNL     1      44.614   5.253   8.472  0.00  0.00    +0.000 HD
ATOM     17  H   UNL     1      43.788   3.829   7.850  0.00  0.00    +0.000 HD
ENDBRANCH  10  13
ENDBRANCH   3   7
BRANCH   5  18
ATOM     18  C   UNL     1      50.306   8.475  14.159  0.00  0.00    +0.000 A 
ATOM     19  C   UNL     1      50.113   9.505  15.098  0.00  0.00    +0.000 A 
ATOM     20  C   UNL     1      51.179  10.207  15.667  0.00  0.00    +0.000 A 
ATOM     21  C   UNL     1      52.506   9.893  15.345  0.00  0.00    +0.000 A 
ATOM     22  C   UNL     1      52.717   8.889  14.390  0.00  0.00    +0.000 A 
ATOM     23  C   UNL     1      51.642   8.196  13.821  0.00  0.00    +0.000 A 
BRANCH  21  24
ATOM     24  C   UNL     1      53.659  10.655  15.990  0.00  0.00    +0.000 C 
ATOM     25  C   UNL     1      54.459  11.514  15.001  0.00  0.00    +0.000 C 
ATOM     26  C   UNL     1      53.135  11.516  17.141  0.00  0.00    +0.000 C 
BRANCH  24  27
ATOM     27  O   UNL     1      54.598   9.725  16.545  0.00  0.00    +0.000 OA
ATOM     28  H   UNL     1      54.697   9.956  17.486  0.00  0.00    +0.000 HD
ENDBRANCH  24  27
ENDBRANCH  21  24
ENDBRANCH   5  18
TORSDOF 5
ENDMDL
MODEL 6
REMARK VINA RESULT:    -4.377      2.608      3.306
REMARK INTER + INTRA:          -6.451
REMARK INTER:                  -5.656
REMARK INTRA:                  -0.794
REMARK UNBOUND:                -0.922
REMARK  Name = 
REMARK  9 active torsions:
REMARK  status: ('A' for Active; 'I' for Inactive)
REMARK    1  A    between atoms: C_1  and  C_2
REMARK    2  A    between atoms: C_3  and  C_4
REMARK    3  A    between atoms: C_7  and  C_8
REMARK    4  A    between atoms: C_14  and  C_15
REMARK    5  A    between atoms: C_14  and  C_16
REMARK    6  A    between atoms: C_19  and  C_20
REMARK    7  A    between atoms: C_20  and  C_21
REMARK    8  A    between atoms: C_20  and  C_22
REMARK    9  A    between atoms: C_20  and  O_23
REMARK                            x       y       z     vdW  Elec       q    Type
REMARK                         _______ _______ _______ _____ _____    ______ ____
ROOT
ATOM      1  C   UNL     1      47.648   9.031  15.633  0.00  0.00    +0.000 C 
ATOM      2  C   UNL     1      48.642   8.938  14.477  0.00  0.00    +0.000 C 
ATOM      3  C   UNL     1      50.064   8.468  14.942  0.00  0.00    +0.000 C 
ATOM      4  C   UNL     1      49.710   7.070  14.363  0.00  0.00    +0.000 C 
ATOM      5  C   UNL     1      48.602   7.720  13.477  0.00  0.00    +0.000 C 
ATOM      6  C   UNL     1      49.109   8.081  12.067  0.00  0.00    +0.000 C 
ENDROOT
BRANCH   3   7
ATOM      7  C   UNL     1      51.354   9.225  14.389  0.00  0.00    +0.000 A 
ATOM      8  C   UNL     1      51.310  10.550  13.921  0.00  0.00    +0.000 A 
ATOM      9  C   UNL     1      52.456  11.196  13.454  0.00  0.00    +0.000 A 
ATOM     10  C   UNL     1      53.644  10.486  13.456  0.00  0.00    +0.000 A 
ATOM     11  N   UNL     1      53.754   9.198  13.875  0.00  0.00    +0.000 NA
ATOM     12  C   UNL     1      52.614   8.616  14.314  0.00  0.00    +0.000 A 
BRANCH  10  13
ATOM     13  C   UNL     1      54.904  11.134  12.975  0.00  0.00    +0.000 C 
ATOM     14  N   UNL     1      55.774  11.510  13.966  0.00  0.00    +0.000 N 
ATOM     15  O   UNL     1      55.150  11.318  11.793  0.00  0.00    +0.000 OA
ATOM     16  H   UNL     1      55.525  11.338  14.934  0.00  0.00    +0.000 HD
ATOM     17  H   UNL     1      56.648  11.953  13.728  0.00  0.00    +0.000 HD
ENDBRANCH  10  13
ENDBRANCH   3   7
BRANCH   5  18
ATOM     18  C   UNL     1      47.223   6.923  13.293  0.00  0.00    +0.000 A 
ATOM     19  C   UNL     1      46.056   7.559  12.831  0.00  0.00    +0.000 A 
ATOM     20  C   UNL     1      44.864   6.865  12.605  0.00  0.00    +0.000 A 
ATOM     21  C   UNL     1      44.786   5.479  12.804  0.00  0.00    +0.000 A 
ATOM     22  C   UNL     1      45.930   4.833  13.291  0.00  0.00    +0.000 A 
ATOM     23  C   UNL     1      47.117   5.539  13.520  0.00  0.00    +0.000 A 
BRANCH  21  24
ATOM     24  C   UNL     1      43.484   4.733  12.533  0.00  0.00    +0.000 C 
ATOM     25  C   UNL     1      42.729   5.237  11.295  0.00  0.00    +0.000 C 
ATOM     26  C   UNL     1      43.757   3.233  12.417  0.00  0.00    +0.000 C 
BRANCH  24  27
ATOM     27  O   UNL     1      42.586   4.919  13.637  0.00  0.00    +0.000 OA
ATOM     28  H   UNL     1      42.460   4.044  14.045  0.00  0.00    +0.000 HD
ENDBRANCH  24  27
ENDBRANCH  21  24
ENDBRANCH   5  18
TORSDOF 5
ENDMDL
MODEL 7
REMARK VINA RESULT:    -4.249     13.639     15.819
REMARK INTER + INTRA:          -6.289
REMARK INTER:                  -5.824
REMARK INTRA:                  -0.465
REMARK UNBOUND:                -0.922
REMARK  Name = 
REMARK  9 active torsions:
REMARK  status: ('A' for Active; 'I' for Inactive)
REMARK    1  A    between atoms: C_1  and  C_2
REMARK    2  A    between atoms: C_3  and  C_4
REMARK    3  A    between atoms: C_7  and  C_8
REMARK    4  A    between atoms: C_14  and  C_15
REMARK    5  A    between atoms: C_14  and  C_16
REMARK    6  A    between atoms: C_19  and  C_20
REMARK    7  A    between atoms: C_20  and  C_21
REMARK    8  A    between atoms: C_20  and  C_22
REMARK    9  A    between atoms: C_20  and  O_23
REMARK                            x       y       z     vdW  Elec       q    Type
REMARK                         _______ _______ _______ _____ _____    ______ ____
ROOT
ATOM      1  C   UNL     1      41.899  -5.047  12.891  0.00  0.00    +0.000 C 
ATOM      2  C   UNL     1      41.146  -3.869  13.504  0.00  0.00    +0.000 C 
ATOM      3  C   UNL     1      39.595  -3.967  13.289  0.00  0.00    +0.000 C 
ATOM      4  C   UNL     1      39.494  -4.424  14.771  0.00  0.00    +0.000 C 
ATOM      5  C   UNL     1      40.892  -3.796  15.058  0.00  0.00    +0.000 C 
ATOM      6  C   UNL     1      40.794  -2.351  15.585  0.00  0.00    +0.000 C 
ENDROOT
BRANCH   3   7
ATOM      7  C   UNL     1      38.789  -2.672  12.826  0.00  0.00    +0.000 A 
ATOM      8  C   UNL     1      37.680  -2.178  13.536  0.00  0.00    +0.000 A 
ATOM      9  C   UNL     1      36.999  -1.034  13.118  0.00  0.00    +0.000 A 
ATOM     10  C   UNL     1      37.444  -0.399  11.971  0.00  0.00    +0.000 A 
ATOM     11  N   UNL     1      38.495  -0.832  11.227  0.00  0.00    +0.000 NA
ATOM     12  C   UNL     1      39.119  -1.947  11.673  0.00  0.00    +0.000 A 
BRANCH  10  13
ATOM     13  C   UNL     1      36.756   0.837  11.485  0.00  0.00    +0.000 C 
ATOM     14  N   UNL     1      37.447   1.548  10.538  0.00  0.00    +0.000 N 
ATOM     15  O   UNL     1      35.662   1.196  11.893  0.00  0.00    +0.000 OA
ATOM     16  H   UNL     1      38.354   1.212  10.232  0.00  0.00    +0.000 HD
ATOM     17  H   UNL     1      37.054   2.395  10.156  0.00  0.00    +0.000 HD
ENDBRANCH  10  13
ENDBRANCH   3   7
BRANCH   5  18
ATOM     18  C   UNL     1      41.886  -4.589  16.036  0.00  0.00    +0.000 A 
ATOM     19  C   UNL     1      42.250  -5.927  15.795  0.00  0.00    +0.000 A 
ATOM     20  C   UNL     1      43.164  -6.611  16.602  0.00  0.00    +0.000 A 
ATOM     21  C   UNL     1      43.789  -5.976  17.684  0.00  0.00    +0.000 A 
ATOM     22  C   UNL     1      43.418  -4.652  17.956  0.00  0.00    +0.000 A 
ATOM     23  C   UNL     1      42.497  -3.978  17.146  0.00  0.00    +0.000 A 
BRANCH  21  24
ATOM     24  C   UNL     1      44.799  -6.730  18.542  0.00  0.00    +0.000 C 
ATOM     25  C   UNL     1      46.213  -6.134  18.498  0.00  0.00    +0.000 C 
ATOM     26  C   UNL     1      44.300  -6.810  19.986  0.00  0.00    +0.000 C 
BRANCH  24  27
ATOM     27  O   UNL     1      44.929  -8.075  18.060  0.00  0.00    +0.000 OA
ATOM     28  H   UNL     1      45.765  -8.420  18.421  0.00  0.00    +0.000 HD
ENDBRANCH  24  27
ENDBRANCH  21  24
ENDBRANCH   5  18
TORSDOF 5
ENDMDL
MODEL 8
REMARK VINA RESULT:    -4.049     13.514     14.934
REMARK INTER + INTRA:          -6.036
REMARK INTER:                  -5.146
REMARK INTRA:                  -0.891
REMARK UNBOUND:                -0.922
REMARK  Name = 
REMARK  9 active torsions:
REMARK  status: ('A' for Active; 'I' for Inactive)
REMARK    1  A    between atoms: C_1  and  C_2
REMARK    2  A    between atoms: C_3  and  C_4
REMARK    3  A    between atoms: C_7  and  C_8
REMARK    4  A    between atoms: C_14  and  C_15
REMARK    5  A    between atoms: C_14  and  C_16
REMARK    6  A    between atoms: C_19  and  C_20
REMARK    7  A    between atoms: C_20  and  C_21
REMARK    8  A    between atoms: C_20  and  C_22
REMARK    9  A    between atoms: C_20  and  O_23
REMARK                            x       y       z     vdW  Elec       q    Type
REMARK                         _______ _______ _______ _____ _____    ______ ____
ROOT
ATOM      1  C   UNL     1      38.215  -5.424  13.971  0.00  0.00    +0.000 C 
ATOM      2  C   UNL     1      39.641  -4.892  14.088  0.00  0.00    +0.000 C 
ATOM      3  C   UNL     1      40.673  -6.011  14.461  0.00  0.00    +0.000 C 
ATOM      4  C   UNL     1      41.107  -6.006  12.969  0.00  0.00    +0.000 C 
ATOM      5  C   UNL     1      40.493  -4.581  12.799  0.00  0.00    +0.000 C 
ATOM      6  C   UNL     1      41.529  -3.461  13.016  0.00  0.00    +0.000 C 
ENDROOT
BRANCH   3   7
ATOM      7  C   UNL     1      41.770  -5.719  15.581  0.00  0.00    +0.000 A 
ATOM      8  C   UNL     1      41.741  -4.564  16.384  0.00  0.00    +0.000 A 
ATOM      9  C   UNL     1      42.704  -4.337  17.368  0.00  0.00    +0.000 A 
ATOM     10  C   UNL     1      43.703  -5.283  17.525  0.00  0.00    +0.000 A 
ATOM     11  N   UNL     1      43.803  -6.409  16.772  0.00  0.00    +0.000 NA
ATOM     12  C   UNL     1      42.846  -6.581  15.830  0.00  0.00    +0.000 A 
BRANCH  10  13
ATOM     13  C   UNL     1      44.756  -5.094  18.571  0.00  0.00    +0.000 C 
ATOM     14  N   UNL     1      44.290  -4.665  19.787  0.00  0.00    +0.000 N 
ATOM     15  O   UNL     1      45.943  -5.302  18.369  0.00  0.00    +0.000 OA
ATOM     16  H   UNL     1      43.296  -4.504  19.907  0.00  0.00    +0.000 HD
ATOM     17  H   UNL     1      44.934  -4.513  20.549  0.00  0.00    +0.000 HD
ENDBRANCH  10  13
ENDBRANCH   3   7
BRANCH   5  18
ATOM     18  C   UNL     1      39.723  -4.253  11.431  0.00  0.00    +0.000 A 
ATOM     19  C   UNL     1      39.299  -2.949  11.114  0.00  0.00    +0.000 A 
ATOM     20  C   UNL     1      38.684  -2.637   9.898  0.00  0.00    +0.000 A 
ATOM     21  C   UNL     1      38.486  -3.616   8.916  0.00  0.00    +0.000 A 
ATOM     22  C   UNL     1      38.875  -4.927   9.225  0.00  0.00    +0.000 A 
ATOM     23  C   UNL     1      39.484  -5.231  10.448  0.00  0.00    +0.000 A 
BRANCH  21  24
ATOM     24  C   UNL     1      37.831  -3.255   7.587  0.00  0.00    +0.000 C 
ATOM     25  C   UNL     1      37.086  -4.425   6.928  0.00  0.00    +0.000 C 
ATOM     26  C   UNL     1      36.891  -2.063   7.775  0.00  0.00    +0.000 C 
BRANCH  24  27
ATOM     27  O   UNL     1      38.840  -2.859   6.647  0.00  0.00    +0.000 OA
ATOM     28  H   UNL     1      38.471  -3.014   5.759  0.00  0.00    +0.000 HD
ENDBRANCH  24  27
ENDBRANCH  21  24
ENDBRANCH   5  18
TORSDOF 5
ENDMDL
MODEL 9
REMARK VINA RESULT:    -4.024     14.347     16.877
REMARK INTER + INTRA:          -6.005
REMARK INTER:                  -5.081
REMARK INTRA:                  -0.924
REMARK UNBOUND:                -0.922
REMARK  Name = 
REMARK  9 active torsions:
REMARK  status: ('A' for Active; 'I' for Inactive)
REMARK    1  A    between atoms: C_1  and  C_2
REMARK    2  A    between atoms: C_3  and  C_4
REMARK    3  A    between atoms: C_7  and  C_8
REMARK    4  A    between atoms: C_14  and  C_15
REMARK    5  A    between atoms: C_14  and  C_16
REMARK    6  A    between atoms: C_19  and  C_20
REMARK    7  A    between atoms: C_20  and  C_21
REMARK    8  A    between atoms: C_20  and  C_22
REMARK    9  A    between atoms: C_20  and  O_23
REMARK                            x       y       z     vdW  Elec       q    Type
REMARK                         _______ _______ _______ _____ _____    ______ ____
ROOT
ATOM      1  C   UNL     1      38.818  -5.347  15.697  0.00  0.00    +0.000 C 
ATOM      2  C   UNL     1      39.578  -5.187  14.383  0.00  0.00    +0.000 C 
ATOM      3  C   UNL     1      39.222  -3.852  13.640  0.00  0.00    +0.000 C 
ATOM      4  C   UNL     1      40.579  -3.292  14.153  0.00  0.00    +0.000 C 
ATOM      5  C   UNL     1      41.092  -4.749  14.377  0.00  0.00    +0.000 C 
ATOM      6  C   UNL     1      41.873  -5.293  13.164  0.00  0.00    +0.000 C 
ENDROOT
BRANCH   3   7
ATOM      7  C   UNL     1      38.948  -3.884  12.070  0.00  0.00    +0.000 A 
ATOM      8  C   UNL     1      39.676  -3.097  11.159  0.00  0.00    +0.000 A 
ATOM      9  C   UNL     1      39.426  -3.153   9.787  0.00  0.00    +0.000 A 
ATOM     10  C   UNL     1      38.427  -4.004   9.346  0.00  0.00    +0.000 A 
ATOM     11  N   UNL     1      37.673  -4.776  10.171  0.00  0.00    +0.000 NA
ATOM     12  C   UNL     1      37.952  -4.683  11.492  0.00  0.00    +0.000 A 
BRANCH  10  13
ATOM     13  C   UNL     1      38.125  -4.110   7.884  0.00  0.00    +0.000 C 
ATOM     14  N   UNL     1      38.352  -2.966   7.164  0.00  0.00    +0.000 N 
ATOM     15  O   UNL     1      37.708  -5.133   7.362  0.00  0.00    +0.000 OA
ATOM     16  H   UNL     1      38.697  -2.140   7.643  0.00  0.00    +0.000 HD
ATOM     17  H   UNL     1      38.175  -2.952   6.171  0.00  0.00    +0.000 HD
ENDBRANCH  10  13
ENDBRANCH   3   7
BRANCH   5  18
ATOM     18  C   UNL     1      41.981  -5.040  15.680  0.00  0.00    +0.000 A 
ATOM     19  C   UNL     1      42.678  -6.251  15.845  0.00  0.00    +0.000 A 
ATOM     20  C   UNL     1      43.507  -6.494  16.944  0.00  0.00    +0.000 A 
ATOM     21  C   UNL     1      43.706  -5.517  17.929  0.00  0.00    +0.000 A 
ATOM     22  C   UNL     1      42.997  -4.315  17.796  0.00  0.00    +0.000 A 
ATOM     23  C   UNL     1      42.164  -4.084  16.695  0.00  0.00    +0.000 A 
BRANCH  21  24
ATOM     24  C   UNL     1      44.629  -5.790  19.112  0.00  0.00    +0.000 C 
ATOM     25  C   UNL     1      44.255  -7.048  19.908  0.00  0.00    +0.000 C 
ATOM     26  C   UNL     1      46.079  -5.873  18.633  0.00  0.00    +0.000 C 
BRANCH  24  27
ATOM     27  O   UNL     1      44.549  -4.702  20.044  0.00  0.00    +0.000 OA
ATOM     28  H   UNL     1      44.560  -5.096  20.934  0.00  0.00    +0.000 HD
ENDBRANCH  24  27
ENDBRANCH  21  24
ENDBRANCH   5  18
TORSDOF 5
ENDMDL
