MODEL 1
REMARK VINA RESULT:    -8.795      0.000      0.000
REMARK INTER + INTRA:         -13.126
REMARK INTER:                 -11.879
REMARK INTRA:                  -1.247
REMARK UNBOUND:                -1.247
REMARK  Name = 
REMARK  8 active torsions:
REMARK  status: ('A' for Active; 'I' for Inactive)
REMARK    1  A    between atoms: C_1  and  C_2
REMARK    2  A    between atoms: C_2  and  C_3
REMARK    3  A    between atoms: C_3  and  N_4
REMARK    4  A    between atoms: C_3  and  C_17
REMARK    5  A    between atoms: C_5  and  C_7
REMARK    6  A    between atoms: C_20  and  C_21
REMARK    7  A    between atoms: C_21  and  C_22
REMARK    8  A    between atoms: C_21  and  C_23
REMARK                            x       y       z     vdW  Elec       q    Type
REMARK                         _______ _______ _______ _____ _____    ______ ____
ROOT
ATOM      1  C   UNL     1      46.473   7.798  12.566  0.00  0.00    +0.000 C 
ENDROOT
BRANCH   1   2
ATOM      2  C   UNL     1      45.924   6.679  11.685  0.00  0.00    +0.000 A 
ATOM      3  C   UNL     1      44.933   5.832  12.194  0.00  0.00    +0.000 A 
ATOM      4  C   UNL     1      44.457   4.754  11.443  0.00  0.00    +0.000 A 
ATOM      5  C   UNL     1      44.948   4.496  10.153  0.00  0.00    +0.000 A 
ATOM      6  C   UNL     1      45.909   5.369   9.623  0.00  0.00    +0.000 A 
ATOM      7  C   UNL     1      46.391   6.447  10.379  0.00  0.00    +0.000 A 
BRANCH   5   8
ATOM      8  C   UNL     1      44.455   3.272   9.391  0.00  0.00    +0.000 C 
ATOM      9  C   UNL     1      43.950   2.179  10.345  0.00  0.00    +0.000 C 
BRANCH   8  10
ATOM     10  C   UNL     1      45.457   2.731   8.378  0.00  0.00    +0.000 A 
ATOM     11  C   UNL     1      45.798   3.500   7.265  0.00  0.00    +0.000 A 
ATOM     12  C   UNL     1      46.681   2.977   6.324  0.00  0.00    +0.000 A 
ATOM     13  C   UNL     1      47.207   1.707   6.517  0.00  0.00    +0.000 A 
ATOM     14  C   UNL     1      46.832   1.011   7.652  0.00  0.00    +0.000 A 
ATOM     15  N   UNL     1      45.980   1.493   8.583  0.00  0.00    +0.000 NA
ENDBRANCH   8  10
ENDBRANCH   5   8
ENDBRANCH   1   2
BRANCH   1  16
ATOM     16  N   UNL     1      46.998   7.216  13.789  0.00  0.00    +0.000 N 
ATOM     17  C   UNL     1      48.270   6.721  13.927  0.00  0.00    +0.000 C 
ATOM     18  O   UNL     1      49.028   6.538  12.987  0.00  0.00    +0.000 OA
ATOM     19  H   UNL     1      46.487   7.465  14.622  0.00  0.00    +0.000 HD
BRANCH  17  20
ATOM     20  C   UNL     1      48.626   6.359  15.306  0.00  0.00    +0.000 A 
ATOM     21  C   UNL     1      49.521   7.121  16.043  0.00  0.00    +0.000 A 
ATOM     22  S   UNL     1      49.870   6.459  17.580  0.00  0.00    +0.000 S 
ATOM     23  C   UNL     1      48.803   5.155  17.328  0.00  0.00    +0.000 A 
ATOM     24  N   UNL     1      48.645   4.174  18.258  0.00  0.00    +0.000 NA
ATOM     25  C   UNL     1      47.794   3.260  17.932  0.00  0.00    +0.000 A 
ATOM     26  N   UNL     1      47.067   3.247  16.769  0.00  0.00    +0.000 N 
ATOM     27  C   UNL     1      47.186   4.218  15.808  0.00  0.00    +0.000 A 
ATOM     28  O   UNL     1      46.522   4.172  14.778  0.00  0.00    +0.000 OA
ATOM     29  C   UNL     1      48.169   5.243  16.103  0.00  0.00    +0.000 A 
ATOM     30  H   UNL     1      46.410   2.508  16.572  0.00  0.00    +0.000 HD
ENDBRANCH  17  20
ENDBRANCH   1  16
BRANCH   1  32
ATOM     31  C   UNL     1      45.178   9.854  11.751  0.00  0.00    +0.000 C 
ATOM     32  C   UNL     1      45.410   8.870  12.891  0.00  0.00    +0.000 C 
ENDBRANCH   1  32
TORSDOF 6
ENDMDL
MODEL 2
REMARK VINA RESULT:    -7.980      2.259      2.847
REMARK INTER + INTRA:         -12.026
REMARK INTER:                 -10.750
REMARK INTRA:                  -1.276
REMARK UNBOUND:                -1.247
REMARK  Name = 
REMARK  8 active torsions:
REMARK  status: ('A' for Active; 'I' for Inactive)
REMARK    1  A    between atoms: C_1  and  C_2
REMARK    2  A    between atoms: C_2  and  C_3
REMARK    3  A    between atoms: C_3  and  N_4
REMARK    4  A    between atoms: C_3  and  C_17
REMARK    5  A    between atoms: C_5  and  C_7
REMARK    6  A    between atoms: C_20  and  C_21
REMARK    7  A    between atoms: C_21  and  C_22
REMARK    8  A    between atoms: C_21  and  C_23
REMARK                            x       y       z     vdW  Elec       q    Type
REMARK                         _______ _______ _______ _____ _____    ______ ____
ROOT
ATOM      1  C   UNL     1      47.939   7.203  13.852  0.00  0.00    +0.000 C 
ENDROOT
BRANCH   1   2
ATOM      2  C   UNL     1      46.979   6.474  12.915  0.00  0.00    +0.000 A 
ATOM      3  C   UNL     1      46.512   5.203  13.270  0.00  0.00    +0.000 A 
ATOM      4  C   UNL     1      45.689   4.475  12.406  0.00  0.00    +0.000 A 
ATOM      5  C   UNL     1      45.296   5.001  11.165  0.00  0.00    +0.000 A 
ATOM      6  C   UNL     1      45.727   6.292  10.826  0.00  0.00    +0.000 A 
ATOM      7  C   UNL     1      46.557   7.019  11.690  0.00  0.00    +0.000 A 
BRANCH   5   8
ATOM      8  C   UNL     1      44.455   4.152  10.220  0.00  0.00    +0.000 C 
ATOM      9  C   UNL     1      43.603   3.129  10.987  0.00  0.00    +0.000 C 
BRANCH   8  10
ATOM     10  C   UNL     1      45.254   3.503   9.096  0.00  0.00    +0.000 A 
ATOM     11  C   UNL     1      45.442   2.121   9.091  0.00  0.00    +0.000 A 
ATOM     12  C   UNL     1      46.210   1.543   8.083  0.00  0.00    +0.000 A 
ATOM     13  C   UNL     1      46.766   2.354   7.103  0.00  0.00    +0.000 A 
ATOM     14  C   UNL     1      46.523   3.714   7.167  0.00  0.00    +0.000 A 
ATOM     15  N   UNL     1      45.780   4.302   8.131  0.00  0.00    +0.000 NA
ENDBRANCH   8  10
ENDBRANCH   5   8
ENDBRANCH   1   2
BRANCH   1  16
ATOM     16  N   UNL     1      47.993   6.489  15.115  0.00  0.00    +0.000 N 
ATOM     17  C   UNL     1      49.120   6.360  15.885  0.00  0.00    +0.000 C 
ATOM     18  O   UNL     1      50.239   6.662  15.498  0.00  0.00    +0.000 OA
ATOM     19  H   UNL     1      47.094   6.346  15.552  0.00  0.00    +0.000 HD
BRANCH  17  20
ATOM     20  C   UNL     1      48.880   5.757  17.203  0.00  0.00    +0.000 A 
ATOM     21  C   UNL     1      49.082   4.402  17.424  0.00  0.00    +0.000 A 
ATOM     22  S   UNL     1      48.640   3.898  18.997  0.00  0.00    +0.000 S 
ATOM     23  C   UNL     1      48.207   5.483  19.448  0.00  0.00    +0.000 A 
ATOM     24  N   UNL     1      47.705   5.759  20.683  0.00  0.00    +0.000 NA
ATOM     25  C   UNL     1      47.435   7.005  20.883  0.00  0.00    +0.000 A 
ATOM     26  N   UNL     1      47.641   8.007  19.970  0.00  0.00    +0.000 N 
ATOM     27  C   UNL     1      48.153   7.777  18.719  0.00  0.00    +0.000 A 
ATOM     28  O   UNL     1      48.320   8.698  17.927  0.00  0.00    +0.000 OA
ATOM     29  C   UNL     1      48.425   6.384  18.424  0.00  0.00    +0.000 A 
ATOM     30  H   UNL     1      47.417   8.966  20.187  0.00  0.00    +0.000 HD
ENDBRANCH  17  20
ENDBRANCH   1  16
BRANCH   1  32
ATOM     31  C   UNL     1      48.540   9.670  13.508  0.00  0.00    +0.000 C 
ATOM     32  C   UNL     1      47.537   8.676  14.080  0.00  0.00    +0.000 C 
ENDBRANCH   1  32
TORSDOF 6
ENDMDL
MODEL 3
REMARK VINA RESULT:    -7.809      1.442      1.689
REMARK INTER + INTRA:         -11.796
REMARK INTER:                 -10.273
REMARK INTRA:                  -1.523
REMARK UNBOUND:                -1.247
REMARK  Name = 
REMARK  8 active torsions:
REMARK  status: ('A' for Active; 'I' for Inactive)
REMARK    1  A    between atoms: C_1  and  C_2
REMARK    2  A    between atoms: C_2  and  C_3
REMARK    3  A    between atoms: C_3  and  N_4
REMARK    4  A    between atoms: C_3  and  C_17
REMARK    5  A    between atoms: C_5  and  C_7
REMARK    6  A    between atoms: C_20  and  C_21
REMARK    7  A    between atoms: C_21  and  C_22
REMARK    8  A    between atoms: C_21  and  C_23
REMARK                            x       y       z     vdW  Elec       q    Type
REMARK                         _______ _______ _______ _____ _____    ______ ____
ROOT
ATOM      1  C   UNL     1      47.780   7.750  13.516  0.00  0.00    +0.000 C 
ENDROOT
BRANCH   1   2
ATOM      2  C   UNL     1      46.802   6.865  12.748  0.00  0.00    +0.000 A 
ATOM      3  C   UNL     1      46.772   5.491  13.012  0.00  0.00    +0.000 A 
ATOM      4  C   UNL     1      45.940   4.639  12.280  0.00  0.00    +0.000 A 
ATOM      5  C   UNL     1      45.101   5.137  11.269  0.00  0.00    +0.000 A 
ATOM      6  C   UNL     1      45.097   6.519  11.033  0.00  0.00    +0.000 A 
ATOM      7  C   UNL     1      45.936   7.372  11.763  0.00  0.00    +0.000 A 
BRANCH   5   8
ATOM      8  C   UNL     1      44.259   4.170  10.447  0.00  0.00    +0.000 C 
ATOM      9  C   UNL     1      43.502   3.177  11.342  0.00  0.00    +0.000 C 
BRANCH   8  10
ATOM     10  C   UNL     1      45.034   3.466   9.339  0.00  0.00    +0.000 A 
ATOM     11  C   UNL     1      45.589   4.215   8.301  0.00  0.00    +0.000 A 
ATOM     12  C   UNL     1      46.257   3.558   7.271  0.00  0.00    +0.000 A 
ATOM     13  C   UNL     1      46.361   2.173   7.303  0.00  0.00    +0.000 A 
ATOM     14  C   UNL     1      45.797   1.501   8.372  0.00  0.00    +0.000 A 
ATOM     15  N   UNL     1      45.146   2.112   9.386  0.00  0.00    +0.000 NA
ENDBRANCH   8  10
ENDBRANCH   5   8
ENDBRANCH   1   2
BRANCH   1  16
ATOM     16  N   UNL     1      47.976   7.190  14.841  0.00  0.00    +0.000 N 
ATOM     17  C   UNL     1      49.201   6.979  15.420  0.00  0.00    +0.000 C 
ATOM     18  O   UNL     1      50.258   7.057  14.811  0.00  0.00    +0.000 OA
ATOM     19  H   UNL     1      47.165   7.241  15.439  0.00  0.00    +0.000 HD
BRANCH  17  20
ATOM     20  C   UNL     1      49.136   6.581  16.833  0.00  0.00    +0.000 A 
ATOM     21  C   UNL     1      49.493   7.458  17.847  0.00  0.00    +0.000 A 
ATOM     22  S   UNL     1      49.444   6.751  19.403  0.00  0.00    +0.000 S 
ATOM     23  C   UNL     1      48.902   5.263  18.776  0.00  0.00    +0.000 A 
ATOM     24  N   UNL     1      48.687   4.187  19.583  0.00  0.00    +0.000 NA
ATOM     25  C   UNL     1      48.266   3.134  18.967  0.00  0.00    +0.000 A 
ATOM     26  N   UNL     1      48.017   3.062  17.621  0.00  0.00    +0.000 N 
ATOM     27  C   UNL     1      48.210   4.121  16.772  0.00  0.00    +0.000 A 
ATOM     28  O   UNL     1      47.980   4.019  15.572  0.00  0.00    +0.000 OA
ATOM     29  C   UNL     1      48.733   5.316  17.406  0.00  0.00    +0.000 A 
ATOM     30  H   UNL     1      47.681   2.211  17.196  0.00  0.00    +0.000 HD
ENDBRANCH  17  20
ENDBRANCH   1  16
BRANCH   1  32
ATOM     31  C   UNL     1      48.430  10.228  13.461  0.00  0.00    +0.000 C 
ATOM     32  C   UNL     1      47.303   9.215  13.613  0.00  0.00    +0.000 C 
ENDBRANCH   1  32
TORSDOF 6
ENDMDL
MODEL 4
REMARK VINA RESULT:    -7.568      3.121      7.952
REMARK INTER + INTRA:         -11.469
REMARK INTER:                  -9.944
REMARK INTRA:                  -1.525
REMARK UNBOUND:                -1.247
REMARK  Name = 
REMARK  8 active torsions:
REMARK  status: ('A' for Active; 'I' for Inactive)
REMARK    1  A    between atoms: C_1  and  C_2
REMARK    2  A    between atoms: C_2  and  C_3
REMARK    3  A    between atoms: C_3  and  N_4
REMARK    4  A    between atoms: C_3  and  C_17
REMARK    5  A    between atoms: C_5  and  C_7
REMARK    6  A    between atoms: C_20  and  C_21
REMARK    7  A    between atoms: C_21  and  C_22
REMARK    8  A    between atoms: C_21  and  C_23
REMARK                            x       y       z     vdW  Elec       q    Type
REMARK                         _______ _______ _______ _____ _____    ______ ____
ROOT
ATOM      1  C   UNL     1      48.276   7.243  13.086  0.00  0.00    +0.000 C 
ENDROOT
BRANCH   1   2
ATOM      2  C   UNL     1      48.616   6.663  14.457  0.00  0.00    +0.000 A 
ATOM      3  C   UNL     1      49.772   7.098  15.115  0.00  0.00    +0.000 A 
ATOM      4  C   UNL     1      50.153   6.540  16.338  0.00  0.00    +0.000 A 
ATOM      5  C   UNL     1      49.382   5.539  16.949  0.00  0.00    +0.000 A 
ATOM      6  C   UNL     1      48.200   5.132  16.314  0.00  0.00    +0.000 A 
ATOM      7  C   UNL     1      47.821   5.688  15.084  0.00  0.00    +0.000 A 
BRANCH   5   8
ATOM      8  C   UNL     1      49.865   4.906  18.248  0.00  0.00    +0.000 C 
ATOM      9  C   UNL     1      50.435   5.958  19.212  0.00  0.00    +0.000 C 
BRANCH   8  10
ATOM     10  C   UNL     1      50.821   3.736  18.047  0.00  0.00    +0.000 A 
ATOM     11  C   UNL     1      50.370   2.576  17.416  0.00  0.00    +0.000 A 
ATOM     12  C   UNL     1      51.240   1.497  17.276  0.00  0.00    +0.000 A 
ATOM     13  C   UNL     1      52.536   1.602  17.762  0.00  0.00    +0.000 A 
ATOM     14  C   UNL     1      52.914   2.789  18.362  0.00  0.00    +0.000 A 
ATOM     15  N   UNL     1      52.094   3.852  18.509  0.00  0.00    +0.000 NA
ENDBRANCH   8  10
ENDBRANCH   5   8
ENDBRANCH   1   2
BRANCH   1  16
ATOM     16  N   UNL     1      47.417   6.307  12.383  0.00  0.00    +0.000 N 
ATOM     17  C   UNL     1      46.308   6.665  11.660  0.00  0.00    +0.000 C 
ATOM     18  O   UNL     1      45.814   7.782  11.692  0.00  0.00    +0.000 OA
ATOM     19  H   UNL     1      47.841   5.410  12.198  0.00  0.00    +0.000 HD
BRANCH  17  20
ATOM     20  C   UNL     1      45.714   5.565  10.888  0.00  0.00    +0.000 A 
ATOM     21  C   UNL     1      45.818   5.516   9.505  0.00  0.00    +0.000 A 
ATOM     22  S   UNL     1      44.964   4.210   8.807  0.00  0.00    +0.000 S 
ATOM     23  C   UNL     1      44.464   3.642  10.333  0.00  0.00    +0.000 A 
ATOM     24  N   UNL     1      43.660   2.551  10.457  0.00  0.00    +0.000 NA
ATOM     25  C   UNL     1      43.376   2.233  11.676  0.00  0.00    +0.000 A 
ATOM     26  N   UNL     1      43.840   2.892  12.785  0.00  0.00    +0.000 N 
ATOM     27  C   UNL     1      44.659   3.989  12.708  0.00  0.00    +0.000 A 
ATOM     28  O   UNL     1      45.052   4.556  13.722  0.00  0.00    +0.000 OA
ATOM     29  C   UNL     1      44.967   4.419  11.358  0.00  0.00    +0.000 A 
ATOM     30  H   UNL     1      43.589   2.592  13.714  0.00  0.00    +0.000 HD
ENDBRANCH  17  20
ENDBRANCH   1  16
BRANCH   1  32
ATOM     31  C   UNL     1      49.567   8.989  11.727  0.00  0.00    +0.000 C 
ATOM     32  C   UNL     1      49.533   7.558  12.248  0.00  0.00    +0.000 C 
ENDBRANCH   1  32
TORSDOF 6
ENDMDL
MODEL 5
REMARK VINA RESULT:    -7.249      1.584      2.514
REMARK INTER + INTRA:         -11.039
REMARK INTER:                 -10.043
REMARK INTRA:                  -0.996
REMARK UNBOUND:                -1.247
REMARK  Name = 
REMARK  8 active torsions:
REMARK  status: ('A' for Active; 'I' for Inactive)
REMARK    1  A    between atoms: C_1  and  C_2
REMARK    2  A    between atoms: C_2  and  C_3
REMARK    3  A    between atoms: C_3  and  N_4
REMARK    4  A    between atoms: C_3  and  C_17
REMARK    5  A    between atoms: C_5  and  C_7
REMARK    6  A    between atoms: C_20  and  C_21
REMARK    7  A    between atoms: C_21  and  C_22
REMARK    8  A    between atoms: C_21  and  C_23
REMARK                            x       y       z     vdW  Elec       q    Type
REMARK                         _______ _______ _______ _____ _____    ______ ____
ROOT
ATOM      1  C   UNL     1      46.291   7.184  12.504  0.00  0.00    +0.000 C 
ENDROOT
BRANCH   1   2
ATOM      2  C   UNL     1      45.937   6.065  11.527  0.00  0.00    +0.000 A 
ATOM      3  C   UNL     1      46.273   6.206  10.176  0.00  0.00    +0.000 A 
ATOM      4  C   UNL     1      45.904   5.235   9.241  0.00  0.00    +0.000 A 
ATOM      5  C   UNL     1      45.199   4.085   9.630  0.00  0.00    +0.000 A 
ATOM      6  C   UNL     1      44.900   3.920  10.990  0.00  0.00    +0.000 A 
ATOM      7  C   UNL     1      45.265   4.897  11.927  0.00  0.00    +0.000 A 
BRANCH   5   8
ATOM      8  C   UNL     1      44.754   3.082   8.573  0.00  0.00    +0.000 C 
ATOM      9  C   UNL     1      44.129   1.830   9.209  0.00  0.00    +0.000 C 
BRANCH   8  10
ATOM     10  C   UNL     1      45.838   2.730   7.561  0.00  0.00    +0.000 A 
ATOM     11  C   UNL     1      46.701   1.664   7.817  0.00  0.00    +0.000 A 
ATOM     12  C   UNL     1      47.716   1.378   6.906  0.00  0.00    +0.000 A 
ATOM     13  C   UNL     1      47.841   2.155   5.762  0.00  0.00    +0.000 A 
ATOM     14  C   UNL     1      46.939   3.186   5.572  0.00  0.00    +0.000 A 
ATOM     15  N   UNL     1      45.944   3.484   6.436  0.00  0.00    +0.000 NA
ENDBRANCH   8  10
ENDBRANCH   5   8
ENDBRANCH   1   2
BRANCH   1  16
ATOM     16  N   UNL     1      46.647   6.594  13.782  0.00  0.00    +0.000 N 
ATOM     17  C   UNL     1      47.899   6.136  14.103  0.00  0.00    +0.000 C 
ATOM     18  O   UNL     1      48.796   5.996  13.285  0.00  0.00    +0.000 OA
ATOM     19  H   UNL     1      46.008   6.810  14.533  0.00  0.00    +0.000 HD
BRANCH  17  20
ATOM     20  C   UNL     1      48.056   5.758  15.514  0.00  0.00    +0.000 A 
ATOM     21  C   UNL     1      47.478   4.603  16.020  0.00  0.00    +0.000 A 
ATOM     22  S   UNL     1      47.699   4.416  17.705  0.00  0.00    +0.000 S 
ATOM     23  C   UNL     1      48.612   5.850  17.805  0.00  0.00    +0.000 A 
ATOM     24  N   UNL     1      49.094   6.305  18.995  0.00  0.00    +0.000 NA
ATOM     25  C   UNL     1      49.777   7.397  18.912  0.00  0.00    +0.000 A 
ATOM     26  N   UNL     1      50.045   8.066  17.745  0.00  0.00    +0.000 N 
ATOM     27  C   UNL     1      49.589   7.640  16.524  0.00  0.00    +0.000 A 
ATOM     28  O   UNL     1      49.845   8.266  15.501  0.00  0.00    +0.000 OA
ATOM     29  C   UNL     1      48.771   6.444  16.568  0.00  0.00    +0.000 A 
ATOM     30  H   UNL     1      50.593   8.912  17.742  0.00  0.00    +0.000 HD
ENDBRANCH  17  20
ENDBRANCH   1  16
BRANCH   1  32
ATOM     31  C   UNL     1      44.502   8.619  11.361  0.00  0.00    +0.000 C 
ATOM     32  C   UNL     1      45.143   8.202  12.678  0.00  0.00    +0.000 C 
ENDBRANCH   1  32
TORSDOF 6
ENDMDL
MODEL 6
REMARK VINA RESULT:    -7.069      3.064      8.397
REMARK INTER + INTRA:         -10.795
REMARK INTER:                  -9.415
REMARK INTRA:                  -1.379
REMARK UNBOUND:                -1.247
REMARK  Name = 
REMARK  8 active torsions:
REMARK  status: ('A' for Active; 'I' for Inactive)
REMARK    1  A    between atoms: C_1  and  C_2
REMARK    2  A    between atoms: C_2  and  C_3
REMARK    3  A    between atoms: C_3  and  N_4
REMARK    4  A    between atoms: C_3  and  C_17
REMARK    5  A    between atoms: C_5  and  C_7
REMARK    6  A    between atoms: C_20  and  C_21
REMARK    7  A    between atoms: C_21  and  C_22
REMARK    8  A    between atoms: C_21  and  C_23
REMARK                            x       y       z     vdW  Elec       q    Type
REMARK                         _______ _______ _______ _____ _____    ______ ____
ROOT
ATOM      1  C   UNL     1      47.711   6.700  13.534  0.00  0.00    +0.000 C 
ENDROOT
BRANCH   1   2
ATOM      2  C   UNL     1      48.284   6.208  14.860  0.00  0.00    +0.000 A 
ATOM      3  C   UNL     1      49.472   6.770  15.341  0.00  0.00    +0.000 A 
ATOM      4  C   UNL     1      50.064   6.296  16.515  0.00  0.00    +0.000 A 
ATOM      5  C   UNL     1      49.479   5.254  17.253  0.00  0.00    +0.000 A 
ATOM      6  C   UNL     1      48.266   4.720  16.797  0.00  0.00    +0.000 A 
ATOM      7  C   UNL     1      47.675   5.191  15.616  0.00  0.00    +0.000 A 
BRANCH   5   8
ATOM      8  C   UNL     1      50.189   4.719  18.490  0.00  0.00    +0.000 C 
ATOM      9  C   UNL     1      50.781   5.854  19.338  0.00  0.00    +0.000 C 
BRANCH   8  10
ATOM     10  C   UNL     1      51.215   3.632  18.191  0.00  0.00    +0.000 A 
ATOM     11  C   UNL     1      50.804   2.438  17.598  0.00  0.00    +0.000 A 
ATOM     12  C   UNL     1      51.742   1.435  17.369  0.00  0.00    +0.000 A 
ATOM     13  C   UNL     1      53.067   1.648  17.730  0.00  0.00    +0.000 A 
ATOM     14  C   UNL     1      53.400   2.863  18.299  0.00  0.00    +0.000 A 
ATOM     15  N   UNL     1      52.512   3.855  18.531  0.00  0.00    +0.000 NA
ENDBRANCH   8  10
ENDBRANCH   5   8
ENDBRANCH   1   2
BRANCH   1  16
ATOM     16  N   UNL     1      46.765   5.715  13.038  0.00  0.00    +0.000 N 
ATOM     17  C   UNL     1      45.567   6.021  12.446  0.00  0.00    +0.000 C 
ATOM     18  O   UNL     1      45.080   7.142  12.448  0.00  0.00    +0.000 OA
ATOM     19  H   UNL     1      47.162   4.802  12.876  0.00  0.00    +0.000 HD
BRANCH  17  20
ATOM     20  C   UNL     1      44.874   4.865  11.861  0.00  0.00    +0.000 A 
ATOM     21  C   UNL     1      44.028   4.070  12.621  0.00  0.00    +0.000 A 
ATOM     22  S   UNL     1      43.416   2.721  11.767  0.00  0.00    +0.000 S 
ATOM     23  C   UNL     1      44.227   3.180  10.341  0.00  0.00    +0.000 A 
ATOM     24  N   UNL     1      44.157   2.426   9.210  0.00  0.00    +0.000 NA
ATOM     25  C   UNL     1      44.812   2.906   8.207  0.00  0.00    +0.000 A 
ATOM     26  N   UNL     1      45.513   4.084   8.223  0.00  0.00    +0.000 N 
ATOM     27  C   UNL     1      45.604   4.880   9.336  0.00  0.00    +0.000 A 
ATOM     28  O   UNL     1      46.244   5.926   9.314  0.00  0.00    +0.000 OA
ATOM     29  C   UNL     1      44.927   4.359  10.507  0.00  0.00    +0.000 A 
ATOM     30  H   UNL     1      46.001   4.413   7.403  0.00  0.00    +0.000 HD
ENDBRANCH  17  20
ENDBRANCH   1  16
BRANCH   1  32
ATOM     31  C   UNL     1      48.585   8.268  11.705  0.00  0.00    +0.000 C 
ATOM     32  C   UNL     1      48.806   6.976  12.481  0.00  0.00    +0.000 C 
ENDBRANCH   1  32
TORSDOF 6
ENDMDL
MODEL 7
REMARK VINA RESULT:    -7.047      3.358      5.076
REMARK INTER + INTRA:         -10.766
REMARK INTER:                  -9.164
REMARK INTRA:                  -1.602
REMARK UNBOUND:                -1.247
REMARK  Name = 
REMARK  8 active torsions:
REMARK  status: ('A' for Active; 'I' for Inactive)
REMARK    1  A    between atoms: C_1  and  C_2
REMARK    2  A    between atoms: C_2  and  C_3
REMARK    3  A    between atoms: C_3  and  N_4
REMARK    4  A    between atoms: C_3  and  C_17
REMARK    5  A    between atoms: C_5  and  C_7
REMARK    6  A    between atoms: C_20  and  C_21
REMARK    7  A    between atoms: C_21  and  C_22
REMARK    8  A    between atoms: C_21  and  C_23
REMARK                            x       y       z     vdW  Elec       q    Type
REMARK                         _______ _______ _______ _____ _____    ______ ____
ROOT
ATOM      1  C   UNL     1      48.275   6.789  14.686  0.00  0.00    +0.000 C 
ENDROOT
BRANCH   1   2
ATOM      2  C   UNL     1      47.368   6.212  13.603  0.00  0.00    +0.000 A 
ATOM      3  C   UNL     1      47.157   6.943  12.428  0.00  0.00    +0.000 A 
ATOM      4  C   UNL     1      46.278   6.480  11.444  0.00  0.00    +0.000 A 
ATOM      5  C   UNL     1      45.593   5.264  11.599  0.00  0.00    +0.000 A 
ATOM      6  C   UNL     1      45.837   4.508  12.755  0.00  0.00    +0.000 A 
ATOM      7  C   UNL     1      46.714   4.976  13.744  0.00  0.00    +0.000 A 
BRANCH   5   8
ATOM      8  C   UNL     1      44.592   4.825  10.538  0.00  0.00    +0.000 C 
ATOM      9  C   UNL     1      43.361   4.153  11.165  0.00  0.00    +0.000 C 
BRANCH   8  10
ATOM     10  C   UNL     1      45.202   3.978   9.427  0.00  0.00    +0.000 A 
ATOM     11  C   UNL     1      45.146   2.586   9.509  0.00  0.00    +0.000 A 
ATOM     12  C   UNL     1      45.744   1.823   8.510  0.00  0.00    +0.000 A 
ATOM     13  C   UNL     1      46.377   2.462   7.452  0.00  0.00    +0.000 A 
ATOM     14  C   UNL     1      46.378   3.845   7.433  0.00  0.00    +0.000 A 
ATOM     15  N   UNL     1      45.803   4.612   8.386  0.00  0.00    +0.000 NA
ENDBRANCH   8  10
ENDBRANCH   5   8
ENDBRANCH   1   2
BRANCH   1  16
ATOM     16  N   UNL     1      49.558   7.123  14.093  0.00  0.00    +0.000 N 
ATOM     17  C   UNL     1      50.122   8.373  14.118  0.00  0.00    +0.000 C 
ATOM     18  O   UNL     1      49.521   9.377  14.469  0.00  0.00    +0.000 OA
ATOM     19  H   UNL     1      50.157   6.329  13.922  0.00  0.00    +0.000 HD
BRANCH  17  20
ATOM     20  C   UNL     1      51.503   8.418  13.619  0.00  0.00    +0.000 A 
ATOM     21  C   UNL     1      52.571   8.663  14.471  0.00  0.00    +0.000 A 
ATOM     22  S   UNL     1      54.072   8.777  13.660  0.00  0.00    +0.000 S 
ATOM     23  C   UNL     1      53.350   8.460  12.151  0.00  0.00    +0.000 A 
ATOM     24  N   UNL     1      54.081   8.445  11.002  0.00  0.00    +0.000 NA
ATOM     25  C   UNL     1      53.399   8.178   9.939  0.00  0.00    +0.000 A 
ATOM     26  N   UNL     1      52.056   7.900   9.920  0.00  0.00    +0.000 N 
ATOM     27  C   UNL     1      51.283   7.894  11.052  0.00  0.00    +0.000 A 
ATOM     28  O   UNL     1      50.084   7.645  10.997  0.00  0.00    +0.000 OA
ATOM     29  C   UNL     1      51.992   8.240  12.269  0.00  0.00    +0.000 A 
ATOM     30  H   UNL     1      51.578   7.690   9.057  0.00  0.00    +0.000 HD
ENDBRANCH  17  20
ENDBRANCH   1  16
BRANCH   1  32
ATOM     31  C   UNL     1      48.660   6.539  17.207  0.00  0.00    +0.000 C 
ATOM     32  C   UNL     1      48.464   5.824  15.876  0.00  0.00    +0.000 C 
ENDBRANCH   1  32
TORSDOF 6
ENDMDL
MODEL 8
REMARK VINA RESULT:    -6.868      3.410      5.745
REMARK INTER + INTRA:         -10.523
REMARK INTER:                  -9.006
REMARK INTRA:                  -1.517
REMARK UNBOUND:                -1.247
REMARK  Name = 
REMARK  8 active torsions:
REMARK  status: ('A' for Active; 'I' for Inactive)
REMARK    1  A    between atoms: C_1  and  C_2
REMARK    2  A    between atoms: C_2  and  C_3
REMARK    3  A    between atoms: C_3  and  N_4
REMARK    4  A    between atoms: C_3  and  C_17
REMARK    5  A    between atoms: C_5  and  C_7
REMARK    6  A    between atoms: C_20  and  C_21
REMARK    7  A    between atoms: C_21  and  C_22
REMARK    8  A    between atoms: C_21  and  C_23
REMARK                            x       y       z     vdW  Elec       q    Type
REMARK                         _______ _______ _______ _____ _____    ______ ____
ROOT
ATOM      1  C   UNL     1      49.190   6.267  17.860  0.00  0.00    +0.000 C 
ENDROOT
BRANCH   1   2
ATOM      2  C   UNL     1      48.634   6.056  16.454  0.00  0.00    +0.000 A 
ATOM      3  C   UNL     1      48.887   7.017  15.468  0.00  0.00    +0.000 A 
ATOM      4  C   UNL     1      48.336   6.893  14.190  0.00  0.00    +0.000 A 
ATOM      5  C   UNL     1      47.526   5.797  13.853  0.00  0.00    +0.000 A 
ATOM      6  C   UNL     1      47.308   4.810  14.825  0.00  0.00    +0.000 A 
ATOM      7  C   UNL     1      47.855   4.938  16.109  0.00  0.00    +0.000 A 
BRANCH   5   8
ATOM      8  C   UNL     1      46.888   5.730  12.471  0.00  0.00    +0.000 C 
ATOM      9  C   UNL     1      46.876   7.106  11.787  0.00  0.00    +0.000 C 
BRANCH   8  10
ATOM     10  C   UNL     1      45.513   5.072  12.457  0.00  0.00    +0.000 A 
ATOM     11  C   UNL     1      44.395   5.800  12.867  0.00  0.00    +0.000 A 
ATOM     12  C   UNL     1      43.150   5.175  12.891  0.00  0.00    +0.000 A 
ATOM     13  C   UNL     1      43.049   3.846  12.502  0.00  0.00    +0.000 A 
ATOM     14  C   UNL     1      44.199   3.196  12.095  0.00  0.00    +0.000 A 
ATOM     15  N   UNL     1      45.419   3.777  12.058  0.00  0.00    +0.000 NA
ENDBRANCH   8  10
ENDBRANCH   5   8
ENDBRANCH   1   2
BRANCH   1  16
ATOM     16  N   UNL     1      50.220   5.274  18.110  0.00  0.00    +0.000 N 
ATOM     17  C   UNL     1      51.499   5.343  17.620  0.00  0.00    +0.000 C 
ATOM     18  O   UNL     1      51.851   6.141  16.765  0.00  0.00    +0.000 OA
ATOM     19  H   UNL     1      50.042   4.682  18.908  0.00  0.00    +0.000 HD
BRANCH  17  20
ATOM     20  C   UNL     1      52.405   4.321  18.163  0.00  0.00    +0.000 A 
ATOM     21  C   UNL     1      53.502   4.669  18.939  0.00  0.00    +0.000 A 
ATOM     22  S   UNL     1      54.476   3.333  19.373  0.00  0.00    +0.000 S 
ATOM     23  C   UNL     1      53.439   2.241  18.576  0.00  0.00    +0.000 A 
ATOM     24  N   UNL     1      53.711   0.908  18.529  0.00  0.00    +0.000 NA
ATOM     25  C   UNL     1      52.829   0.205  17.902  0.00  0.00    +0.000 A 
ATOM     26  N   UNL     1      51.686   0.708  17.335  0.00  0.00    +0.000 N 
ATOM     27  C   UNL     1      51.367   2.042  17.366  0.00  0.00    +0.000 A 
ATOM     28  O   UNL     1      50.338   2.457  16.844  0.00  0.00    +0.000 OA
ATOM     29  C   UNL     1      52.353   2.883  18.015  0.00  0.00    +0.000 A 
ATOM     30  H   UNL     1      51.028   0.107  16.863  0.00  0.00    +0.000 HD
ENDBRANCH  17  20
ENDBRANCH   1  16
BRANCH   1  32
ATOM     31  C   UNL     1      47.475   7.551  19.265  0.00  0.00    +0.000 C 
ATOM     32  C   UNL     1      48.096   6.197  18.946  0.00  0.00    +0.000 C 
ENDBRANCH   1  32
TORSDOF 6
ENDMDL
MODEL 9
REMARK VINA RESULT:    -6.627      2.927      8.564
REMARK INTER + INTRA:         -10.198
REMARK INTER:                  -8.852
REMARK INTRA:                  -1.346
REMARK UNBOUND:                -1.247
REMARK  Name = 
REMARK  8 active torsions:
REMARK  status: ('A' for Active; 'I' for Inactive)
REMARK    1  A    between atoms: C_1  and  C_2
REMARK    2  A    between atoms: C_2  and  C_3
REMARK    3  A    between atoms: C_3  and  N_4
REMARK    4  A    between atoms: C_3  and  C_17
REMARK    5  A    between atoms: C_5  and  C_7
REMARK    6  A    between atoms: C_20  and  C_21
REMARK    7  A    between atoms: C_21  and  C_22
REMARK    8  A    between atoms: C_21  and  C_23
REMARK                            x       y       z     vdW  Elec       q    Type
REMARK                         _______ _______ _______ _____ _____    ______ ____
ROOT
ATOM      1  C   UNL     1      47.777   7.785  12.350  0.00  0.00    +0.000 C 
ENDROOT
BRANCH   1   2
ATOM      2  C   UNL     1      48.220   7.996  13.796  0.00  0.00    +0.000 A 
ATOM      3  C   UNL     1      48.799   6.931  14.495  0.00  0.00    +0.000 A 
ATOM      4  C   UNL     1      49.153   7.065  15.840  0.00  0.00    +0.000 A 
ATOM      5  C   UNL     1      48.951   8.274  16.525  0.00  0.00    +0.000 A 
ATOM      6  C   UNL     1      48.412   9.356  15.815  0.00  0.00    +0.000 A 
ATOM      7  C   UNL     1      48.052   9.219  14.467  0.00  0.00    +0.000 A 
BRANCH   5   8
ATOM      8  C   UNL     1      49.286   8.362  18.009  0.00  0.00    +0.000 C 
ATOM      9  C   UNL     1      50.709   8.893  18.237  0.00  0.00    +0.000 C 
BRANCH   8  10
ATOM     10  C   UNL     1      49.027   7.071  18.778  0.00  0.00    +0.000 A 
ATOM     11  C   UNL     1      47.725   6.745  19.160  0.00  0.00    +0.000 A 
ATOM     12  C   UNL     1      47.506   5.585  19.900  0.00  0.00    +0.000 A 
ATOM     13  C   UNL     1      48.584   4.778  20.235  0.00  0.00    +0.000 A 
ATOM     14  C   UNL     1      49.843   5.160  19.807  0.00  0.00    +0.000 A 
ATOM     15  N   UNL     1      50.086   6.277  19.086  0.00  0.00    +0.000 NA
ENDBRANCH   8  10
ENDBRANCH   5   8
ENDBRANCH   1   2
BRANCH   1  16
ATOM     16  N   UNL     1      46.827   6.687  12.307  0.00  0.00    +0.000 N 
ATOM     17  C   UNL     1      45.585   6.759  11.732  0.00  0.00    +0.000 C 
ATOM     18  O   UNL     1      45.069   7.805  11.369  0.00  0.00    +0.000 OA
ATOM     19  H   UNL     1      47.237   5.776  12.454  0.00  0.00    +0.000 HD
BRANCH  17  20
ATOM     20  C   UNL     1      44.887   5.469  11.649  0.00  0.00    +0.000 A 
ATOM     21  C   UNL     1      44.115   4.997  12.701  0.00  0.00    +0.000 A 
ATOM     22  S   UNL     1      43.484   3.431  12.431  0.00  0.00    +0.000 S 
ATOM     23  C   UNL     1      44.185   3.351  10.881  0.00  0.00    +0.000 A 
ATOM     24  N   UNL     1      44.060   2.242  10.100  0.00  0.00    +0.000 NA
ATOM     25  C   UNL     1      44.634   2.333   8.948  0.00  0.00    +0.000 A 
ATOM     26  N   UNL     1      45.303   3.440   8.492  0.00  0.00    +0.000 N 
ATOM     27  C   UNL     1      45.445   4.581   9.238  0.00  0.00    +0.000 A 
ATOM     28  O   UNL     1      46.054   5.551   8.800  0.00  0.00    +0.000 OA
ATOM     29  C   UNL     1      44.863   4.512  10.564  0.00  0.00    +0.000 A 
ATOM     30  H   UNL     1      45.725   3.455   7.576  0.00  0.00    +0.000 HD
ENDBRANCH  17  20
ENDBRANCH   1  16
BRANCH   1  32
ATOM     31  C   UNL     1      50.033   8.595  11.446  0.00  0.00    +0.000 C 
ATOM     32  C   UNL     1      48.963   7.512  11.401  0.00  0.00    +0.000 C 
ENDBRANCH   1  32
TORSDOF 6
ENDMDL
