MODEL 1
REMARK VINA RESULT:    -8.110      0.000      0.000
REMARK INTER + INTRA:         -13.361
REMARK INTER:                 -11.902
REMARK INTRA:                  -1.459
REMARK UNBOUND:                -1.459
REMARK  Name = 
REMARK  9 active torsions:
REMARK  status: ('A' for Active; 'I' for Inactive)
REMARK    1  A    between atoms: C_1  and  O_2
REMARK    2  A    between atoms: O_2  and  C_3
REMARK    3  A    between atoms: C_10  and  C_11
REMARK    4  A    between atoms: N_13  and  C_14
REMARK    5  A    between atoms: C_14  and  C_15
REMARK    6  A    between atoms: C_18  and  C_19
REMARK    7  A    between atoms: C_19  and  O_20
REMARK    8  A    between atoms: O_20  and  C_21
REMARK    9  A    between atoms: C_21  and  C_22
REMARK                            x       y       z     vdW  Elec       q    Type
REMARK                         _______ _______ _______ _____ _____    ______ ____
ROOT
ATOM      1  C   UNL     1      46.929   8.072  13.282  0.00  0.00    +0.000 C 
ENDROOT
BRANCH   1   2
ATOM      2  C   UNL     1      46.141   7.112  12.426  0.00  0.00    +0.000 A 
ATOM      3  C   UNL     1      44.895   6.633  12.851  0.00  0.00    +0.000 A 
ATOM      4  C   UNL     1      44.179   5.720  12.068  0.00  0.00    +0.000 A 
ATOM      5  C   UNL     1      44.695   5.259  10.849  0.00  0.00    +0.000 A 
ATOM      6  C   UNL     1      45.947   5.726  10.433  0.00  0.00    +0.000 A 
ATOM      7  C   UNL     1      46.664   6.641  11.214  0.00  0.00    +0.000 A 
BRANCH   5   8
ATOM      8  C   UNL     1      43.920   4.270  10.014  0.00  0.00    +0.000 C 
BRANCH   8   9
ATOM      9  O   UNL     1      44.474   2.974  10.216  0.00  0.00    +0.000 OA
BRANCH   9  10
ATOM     10  C   UNL     1      44.316   2.140   9.065  0.00  0.00    +0.000 C 
BRANCH  10  11
ATOM     11  C   UNL     1      45.565   2.167   8.208  0.00  0.00    +0.000 A 
ATOM     12  C   UNL     1      45.965   3.339   7.566  0.00  0.00    +0.000 A 
ATOM     13  C   UNL     1      47.125   3.330   6.798  0.00  0.00    +0.000 A 
ATOM     14  C   UNL     1      47.865   2.160   6.701  0.00  0.00    +0.000 A 
ATOM     15  C   UNL     1      47.415   1.044   7.385  0.00  0.00    +0.000 A 
ATOM     16  N   UNL     1      46.291   1.022   8.137  0.00  0.00    +0.000 NA
ENDBRANCH  10  11
ENDBRANCH   9  10
ENDBRANCH   8   9
ENDBRANCH   5   8
ENDBRANCH   1   2
BRANCH   1  19
ATOM     17  C   UNL     1      48.734   7.006  14.582  0.00  0.00    +0.000 C 
ATOM     18  O   UNL     1      49.546   7.194  13.679  0.00  0.00    +0.000 OA
ATOM     19  N   UNL     1      47.433   7.410  14.461  0.00  0.00    +0.000 N 
ATOM     20  H   UNL     1      46.774   7.224  15.202  0.00  0.00    +0.000 HD
BRANCH  17  28
ATOM     21  C   UNL     1      47.465   4.305  16.303  0.00  0.00    +0.000 A 
ATOM     22  N   UNL     1      47.204   3.282  17.139  0.00  0.00    +0.000 NA
ATOM     23  C   UNL     1      47.996   3.123  18.201  0.00  0.00    +0.000 A 
ATOM     24  N   UNL     1      49.037   3.877  18.545  0.00  0.00    +0.000 NA
ATOM     25  C   UNL     1      49.269   4.879  17.680  0.00  0.00    +0.000 A 
ATOM     26  S   UNL     1      50.557   5.948  17.962  0.00  0.00    +0.000 S 
ATOM     27  C   UNL     1      50.205   6.823  16.548  0.00  0.00    +0.000 A 
ATOM     28  C   UNL     1      49.120   6.328  15.833  0.00  0.00    +0.000 A 
ATOM     29  C   UNL     1      48.552   5.171  16.524  0.00  0.00    +0.000 A 
BRANCH  21  31
ATOM     30  C   UNL     1      47.072   3.649  14.092  0.00  0.00    +0.000 C 
ATOM     31  O   UNL     1      46.662   4.456  15.192  0.00  0.00    +0.000 OA
ENDBRANCH  21  31
ENDBRANCH  17  28
ENDBRANCH   1  19
TORSDOF 8
ENDMDL
MODEL 2
REMARK VINA RESULT:    -7.680      2.113      2.698
REMARK INTER + INTRA:         -12.730
REMARK INTER:                 -11.650
REMARK INTRA:                  -1.080
REMARK UNBOUND:                -1.459
REMARK  Name = 
REMARK  9 active torsions:
REMARK  status: ('A' for Active; 'I' for Inactive)
REMARK    1  A    between atoms: C_1  and  O_2
REMARK    2  A    between atoms: O_2  and  C_3
REMARK    3  A    between atoms: C_10  and  C_11
REMARK    4  A    between atoms: N_13  and  C_14
REMARK    5  A    between atoms: C_14  and  C_15
REMARK    6  A    between atoms: C_18  and  C_19
REMARK    7  A    between atoms: C_19  and  O_20
REMARK    8  A    between atoms: O_20  and  C_21
REMARK    9  A    between atoms: C_21  and  C_22
REMARK                            x       y       z     vdW  Elec       q    Type
REMARK                         _______ _______ _______ _____ _____    ______ ____
ROOT
ATOM      1  C   UNL     1      47.942   6.658  13.700  0.00  0.00    +0.000 C 
ENDROOT
BRANCH   1   2
ATOM      2  C   UNL     1      46.779   6.110  12.910  0.00  0.00    +0.000 A 
ATOM      3  C   UNL     1      45.845   5.257  13.513  0.00  0.00    +0.000 A 
ATOM      4  C   UNL     1      44.783   4.727  12.771  0.00  0.00    +0.000 A 
ATOM      5  C   UNL     1      44.636   5.030  11.410  0.00  0.00    +0.000 A 
ATOM      6  C   UNL     1      45.578   5.871  10.806  0.00  0.00    +0.000 A 
ATOM      7  C   UNL     1      46.640   6.403  11.547  0.00  0.00    +0.000 A 
BRANCH   5   8
ATOM      8  C   UNL     1      43.491   4.451  10.616  0.00  0.00    +0.000 C 
BRANCH   8   9
ATOM      9  O   UNL     1      43.995   3.987   9.368  0.00  0.00    +0.000 OA
BRANCH   9  10
ATOM     10  C   UNL     1      44.457   2.636   9.446  0.00  0.00    +0.000 C 
BRANCH  10  11
ATOM     11  C   UNL     1      45.527   2.374   8.408  0.00  0.00    +0.000 A 
ATOM     12  C   UNL     1      45.964   3.391   7.559  0.00  0.00    +0.000 A 
ATOM     13  C   UNL     1      46.960   3.118   6.627  0.00  0.00    +0.000 A 
ATOM     14  C   UNL     1      47.506   1.842   6.573  0.00  0.00    +0.000 A 
ATOM     15  C   UNL     1      47.036   0.892   7.463  0.00  0.00    +0.000 A 
ATOM     16  N   UNL     1      46.069   1.128   8.378  0.00  0.00    +0.000 NA
ENDBRANCH  10  11
ENDBRANCH   9  10
ENDBRANCH   8   9
ENDBRANCH   5   8
ENDBRANCH   1   2
BRANCH   1  19
ATOM     17  C   UNL     1      48.955   6.257  15.913  0.00  0.00    +0.000 C 
ATOM     18  O   UNL     1      50.049   6.663  15.527  0.00  0.00    +0.000 OA
ATOM     19  N   UNL     1      47.874   6.227  15.075  0.00  0.00    +0.000 N 
ATOM     20  H   UNL     1      46.990   5.866  15.403  0.00  0.00    +0.000 HD
BRANCH  17  28
ATOM     21  C   UNL     1      47.943   7.780  18.832  0.00  0.00    +0.000 A 
ATOM     22  N   UNL     1      47.547   8.108  20.077  0.00  0.00    +0.000 NA
ATOM     23  C   UNL     1      47.537   7.147  21.005  0.00  0.00    +0.000 A 
ATOM     24  N   UNL     1      47.886   5.873  20.842  0.00  0.00    +0.000 NA
ATOM     25  C   UNL     1      48.264   5.587  19.585  0.00  0.00    +0.000 A 
ATOM     26  S   UNL     1      48.748   4.008  19.194  0.00  0.00    +0.000 S 
ATOM     27  C   UNL     1      49.027   4.442  17.574  0.00  0.00    +0.000 A 
ATOM     28  C   UNL     1      48.757   5.776  17.293  0.00  0.00    +0.000 A 
ATOM     29  C   UNL     1      48.314   6.464  18.505  0.00  0.00    +0.000 A 
BRANCH  21  31
ATOM     30  C   UNL     1      49.139   9.518  17.821  0.00  0.00    +0.000 C 
ATOM     31  O   UNL     1      47.930   8.766  17.868  0.00  0.00    +0.000 OA
ENDBRANCH  21  31
ENDBRANCH  17  28
ENDBRANCH   1  19
TORSDOF 8
ENDMDL
MODEL 3
REMARK VINA RESULT:    -7.020      2.003      3.533
REMARK INTER + INTRA:         -11.762
REMARK INTER:                 -10.548
REMARK INTRA:                  -1.215
REMARK UNBOUND:                -1.459
REMARK  Name = 
REMARK  9 active torsions:
REMARK  status: ('A' for Active; 'I' for Inactive)
REMARK    1  A    between atoms: C_1  and  O_2
REMARK    2  A    between atoms: O_2  and  C_3
REMARK    3  A    between atoms: C_10  and  C_11
REMARK    4  A    between atoms: N_13  and  C_14
REMARK    5  A    between atoms: C_14  and  C_15
REMARK    6  A    between atoms: C_18  and  C_19
REMARK    7  A    between atoms: C_19  and  O_20
REMARK    8  A    between atoms: O_20  and  C_21
REMARK    9  A    between atoms: C_21  and  C_22
REMARK                            x       y       z     vdW  Elec       q    Type
REMARK                         _______ _______ _______ _____ _____    ______ ____
ROOT
ATOM      1  C   UNL     1      47.239   4.110  14.875  0.00  0.00    +0.000 C 
ENDROOT
BRANCH   1   2
ATOM      2  C   UNL     1      46.342   4.313  13.679  0.00  0.00    +0.000 A 
ATOM      3  C   UNL     1      45.955   5.601  13.286  0.00  0.00    +0.000 A 
ATOM      4  C   UNL     1      45.100   5.785  12.194  0.00  0.00    +0.000 A 
ATOM      5  C   UNL     1      44.605   4.687  11.476  0.00  0.00    +0.000 A 
ATOM      6  C   UNL     1      44.981   3.400  11.878  0.00  0.00    +0.000 A 
ATOM      7  C   UNL     1      45.837   3.214  12.971  0.00  0.00    +0.000 A 
BRANCH   5   8
ATOM      8  C   UNL     1      43.679   4.893  10.303  0.00  0.00    +0.000 C 
BRANCH   8   9
ATOM      9  O   UNL     1      44.069   4.010   9.256  0.00  0.00    +0.000 OA
BRANCH   9  10
ATOM     10  C   UNL     1      45.266   4.447   8.607  0.00  0.00    +0.000 C 
BRANCH  10  11
ATOM     11  C   UNL     1      45.958   3.289   7.921  0.00  0.00    +0.000 A 
ATOM     12  C   UNL     1      46.703   3.489   6.758  0.00  0.00    +0.000 A 
ATOM     13  C   UNL     1      47.337   2.403   6.162  0.00  0.00    +0.000 A 
ATOM     14  C   UNL     1      47.226   1.149   6.747  0.00  0.00    +0.000 A 
ATOM     15  C   UNL     1      46.489   1.034   7.912  0.00  0.00    +0.000 A 
ATOM     16  N   UNL     1      45.860   2.071   8.513  0.00  0.00    +0.000 NA
ENDBRANCH  10  11
ENDBRANCH   9  10
ENDBRANCH   8   9
ENDBRANCH   5   8
ENDBRANCH   1   2
BRANCH   1  19
ATOM     17  C   UNL     1      48.546   5.534  16.408  0.00  0.00    +0.000 C 
ATOM     18  O   UNL     1      49.304   4.607  16.681  0.00  0.00    +0.000 OA
ATOM     19  N   UNL     1      47.511   5.367  15.529  0.00  0.00    +0.000 N 
ATOM     20  H   UNL     1      46.882   6.133  15.336  0.00  0.00    +0.000 HD
BRANCH  17  28
ATOM     21  C   UNL     1      48.786   8.720  15.120  0.00  0.00    +0.000 A 
ATOM     22  N   UNL     1      48.866  10.045  14.893  0.00  0.00    +0.000 NA
ATOM     23  C   UNL     1      48.977  10.856  15.947  0.00  0.00    +0.000 A 
ATOM     24  N   UNL     1      49.025  10.502  17.229  0.00  0.00    +0.000 NA
ATOM     25  C   UNL     1      48.932   9.174  17.412  0.00  0.00    +0.000 A 
ATOM     26  S   UNL     1      48.981   8.539  18.985  0.00  0.00    +0.000 S 
ATOM     27  C   UNL     1      48.811   6.952  18.403  0.00  0.00    +0.000 A 
ATOM     28  C   UNL     1      48.708   6.866  17.019  0.00  0.00    +0.000 A 
ATOM     29  C   UNL     1      48.797   8.200  16.427  0.00  0.00    +0.000 A 
BRANCH  21  31
ATOM     30  C   UNL     1      49.853   7.726  13.290  0.00  0.00    +0.000 C 
ATOM     31  O   UNL     1      48.648   7.883  14.033  0.00  0.00    +0.000 OA
ENDBRANCH  21  31
ENDBRANCH  17  28
ENDBRANCH   1  19
TORSDOF 8
ENDMDL
MODEL 4
REMARK VINA RESULT:    -6.969      2.543      3.201
REMARK INTER + INTRA:         -11.687
REMARK INTER:                 -10.523
REMARK INTRA:                  -1.163
REMARK UNBOUND:                -1.459
REMARK  Name = 
REMARK  9 active torsions:
REMARK  status: ('A' for Active; 'I' for Inactive)
REMARK    1  A    between atoms: C_1  and  O_2
REMARK    2  A    between atoms: O_2  and  C_3
REMARK    3  A    between atoms: C_10  and  C_11
REMARK    4  A    between atoms: N_13  and  C_14
REMARK    5  A    between atoms: C_14  and  C_15
REMARK    6  A    between atoms: C_18  and  C_19
REMARK    7  A    between atoms: C_19  and  O_20
REMARK    8  A    between atoms: O_20  and  C_21
REMARK    9  A    between atoms: C_21  and  C_22
REMARK                            x       y       z     vdW  Elec       q    Type
REMARK                         _______ _______ _______ _____ _____    ______ ____
ROOT
ATOM      1  C   UNL     1      47.576   4.277  15.093  0.00  0.00    +0.000 C 
ENDROOT
BRANCH   1   2
ATOM      2  C   UNL     1      46.628   4.404  13.925  0.00  0.00    +0.000 A 
ATOM      3  C   UNL     1      46.110   5.652  13.558  0.00  0.00    +0.000 A 
ATOM      4  C   UNL     1      45.209   5.763  12.493  0.00  0.00    +0.000 A 
ATOM      5  C   UNL     1      44.799   4.629  11.777  0.00  0.00    +0.000 A 
ATOM      6  C   UNL     1      45.307   3.380  12.155  0.00  0.00    +0.000 A 
ATOM      7  C   UNL     1      46.209   3.268  13.220  0.00  0.00    +0.000 A 
BRANCH   5   8
ATOM      8  C   UNL     1      43.823   4.756  10.634  0.00  0.00    +0.000 C 
BRANCH   8   9
ATOM      9  O   UNL     1      44.140   3.770   9.656  0.00  0.00    +0.000 OA
BRANCH   9  10
ATOM     10  C   UNL     1      44.958   4.300   8.610  0.00  0.00    +0.000 C 
BRANCH  10  11
ATOM     11  C   UNL     1      45.764   3.200   7.951  0.00  0.00    +0.000 A 
ATOM     12  C   UNL     1      46.528   3.459   6.813  0.00  0.00    +0.000 A 
ATOM     13  C   UNL     1      47.267   2.428   6.242  0.00  0.00    +0.000 A 
ATOM     14  C   UNL     1      47.239   1.169   6.827  0.00  0.00    +0.000 A 
ATOM     15  C   UNL     1      46.475   0.996   7.968  0.00  0.00    +0.000 A 
ATOM     16  N   UNL     1      45.745   1.979   8.544  0.00  0.00    +0.000 NA
ENDBRANCH  10  11
ENDBRANCH   9  10
ENDBRANCH   8   9
ENDBRANCH   5   8
ENDBRANCH   1   2
BRANCH   1  19
ATOM     17  C   UNL     1      48.592   6.291  16.092  0.00  0.00    +0.000 C 
ATOM     18  O   UNL     1      49.663   6.074  15.530  0.00  0.00    +0.000 OA
ATOM     19  N   UNL     1      47.522   5.455  15.924  0.00  0.00    +0.000 N 
ATOM     20  H   UNL     1      46.658   5.634  16.415  0.00  0.00    +0.000 HD
BRANCH  17  28
ATOM     21  C   UNL     1      47.756   6.628  19.416  0.00  0.00    +0.000 A 
ATOM     22  N   UNL     1      47.489   7.038  20.671  0.00  0.00    +0.000 NA
ATOM     23  C   UNL     1      47.503   8.350  20.919  0.00  0.00    +0.000 A 
ATOM     24  N   UNL     1      47.750   9.326  20.050  0.00  0.00    +0.000 NA
ATOM     25  C   UNL     1      48.021   8.874  18.813  0.00  0.00    +0.000 A 
ATOM     26  S   UNL     1      48.356   9.981  17.571  0.00  0.00    +0.000 S 
ATOM     27  C   UNL     1      48.578   8.727  16.446  0.00  0.00    +0.000 A 
ATOM     28  C   UNL     1      48.412   7.454  16.980  0.00  0.00    +0.000 A 
ATOM     29  C   UNL     1      48.062   7.547  18.397  0.00  0.00    +0.000 A 
BRANCH  21  31
ATOM     30  C   UNL     1      48.949   4.627  19.623  0.00  0.00    +0.000 C 
ATOM     31  O   UNL     1      47.765   5.272  19.165  0.00  0.00    +0.000 OA
ENDBRANCH  21  31
ENDBRANCH  17  28
ENDBRANCH   1  19
TORSDOF 8
ENDMDL
MODEL 5
REMARK VINA RESULT:    -6.324      2.254      3.290
REMARK INTER + INTRA:         -10.740
REMARK INTER:                  -9.943
REMARK INTRA:                  -0.797
REMARK UNBOUND:                -1.459
REMARK  Name = 
REMARK  9 active torsions:
REMARK  status: ('A' for Active; 'I' for Inactive)
REMARK    1  A    between atoms: C_1  and  O_2
REMARK    2  A    between atoms: O_2  and  C_3
REMARK    3  A    between atoms: C_10  and  C_11
REMARK    4  A    between atoms: N_13  and  C_14
REMARK    5  A    between atoms: C_14  and  C_15
REMARK    6  A    between atoms: C_18  and  C_19
REMARK    7  A    between atoms: C_19  and  O_20
REMARK    8  A    between atoms: O_20  and  C_21
REMARK    9  A    between atoms: C_21  and  C_22
REMARK                            x       y       z     vdW  Elec       q    Type
REMARK                         _______ _______ _______ _____ _____    ______ ____
ROOT
ATOM      1  C   UNL     1      46.807   8.373  13.367  0.00  0.00    +0.000 C 
ENDROOT
BRANCH   1   2
ATOM      2  C   UNL     1      45.945   7.329  12.700  0.00  0.00    +0.000 A 
ATOM      3  C   UNL     1      46.331   5.982  12.692  0.00  0.00    +0.000 A 
ATOM      4  C   UNL     1      45.544   5.020  12.049  0.00  0.00    +0.000 A 
ATOM      5  C   UNL     1      44.359   5.384  11.392  0.00  0.00    +0.000 A 
ATOM      6  C   UNL     1      43.983   6.732  11.389  0.00  0.00    +0.000 A 
ATOM      7  C   UNL     1      44.769   7.695  12.033  0.00  0.00    +0.000 A 
BRANCH   5   8
ATOM      8  C   UNL     1      43.519   4.342  10.696  0.00  0.00    +0.000 C 
BRANCH   8   9
ATOM      9  O   UNL     1      44.145   4.006   9.462  0.00  0.00    +0.000 OA
BRANCH   9  10
ATOM     10  C   UNL     1      44.547   2.634   9.422  0.00  0.00    +0.000 C 
BRANCH  10  11
ATOM     11  C   UNL     1      45.598   2.414   8.355  0.00  0.00    +0.000 A 
ATOM     12  C   UNL     1      45.985   3.453   7.508  0.00  0.00    +0.000 A 
ATOM     13  C   UNL     1      46.964   3.218   6.548  0.00  0.00    +0.000 A 
ATOM     14  C   UNL     1      47.544   1.960   6.464  0.00  0.00    +0.000 A 
ATOM     15  C   UNL     1      47.123   0.986   7.354  0.00  0.00    +0.000 A 
ATOM     16  N   UNL     1      46.173   1.185   8.296  0.00  0.00    +0.000 NA
ENDBRANCH  10  11
ENDBRANCH   9  10
ENDBRANCH   8   9
ENDBRANCH   5   8
ENDBRANCH   1   2
BRANCH   1  19
ATOM     17  C   UNL     1      48.822   8.396  14.790  0.00  0.00    +0.000 C 
ATOM     18  O   UNL     1      49.113   9.532  14.424  0.00  0.00    +0.000 OA
ATOM     19  N   UNL     1      47.705   7.763  14.317  0.00  0.00    +0.000 N 
ATOM     20  H   UNL     1      47.496   6.819  14.609  0.00  0.00    +0.000 HD
BRANCH  17  28
ATOM     21  C   UNL     1      52.180   7.640  14.898  0.00  0.00    +0.000 A 
ATOM     22  N   UNL     1      53.432   7.245  15.203  0.00  0.00    +0.000 NA
ATOM     23  C   UNL     1      53.616   6.567  16.338  0.00  0.00    +0.000 A 
ATOM     24  N   UNL     1      52.686   6.221  17.224  0.00  0.00    +0.000 NA
ATOM     25  C   UNL     1      51.455   6.642  16.887  0.00  0.00    +0.000 A 
ATOM     26  S   UNL     1      50.140   6.286  17.900  0.00  0.00    +0.000 S 
ATOM     27  C   UNL     1      49.062   7.098  16.868  0.00  0.00    +0.000 A 
ATOM     28  C   UNL     1      49.665   7.658  15.747  0.00  0.00    +0.000 A 
ATOM     29  C   UNL     1      51.099   7.369  15.755  0.00  0.00    +0.000 A 
BRANCH  21  31
ATOM     30  C   UNL     1      53.213   8.809  13.155  0.00  0.00    +0.000 C 
ATOM     31  O   UNL     1      51.993   8.361  13.738  0.00  0.00    +0.000 OA
ENDBRANCH  21  31
ENDBRANCH  17  28
ENDBRANCH   1  19
TORSDOF 8
ENDMDL
MODEL 6
REMARK VINA RESULT:    -6.248      1.743      2.465
REMARK INTER + INTRA:         -10.629
REMARK INTER:                  -9.312
REMARK INTRA:                  -1.318
REMARK UNBOUND:                -1.459
REMARK  Name = 
REMARK  9 active torsions:
REMARK  status: ('A' for Active; 'I' for Inactive)
REMARK    1  A    between atoms: C_1  and  O_2
REMARK    2  A    between atoms: O_2  and  C_3
REMARK    3  A    between atoms: C_10  and  C_11
REMARK    4  A    between atoms: N_13  and  C_14
REMARK    5  A    between atoms: C_14  and  C_15
REMARK    6  A    between atoms: C_18  and  C_19
REMARK    7  A    between atoms: C_19  and  O_20
REMARK    8  A    between atoms: O_20  and  C_21
REMARK    9  A    between atoms: C_21  and  C_22
REMARK                            x       y       z     vdW  Elec       q    Type
REMARK                         _______ _______ _______ _____ _____    ______ ____
ROOT
ATOM      1  C   UNL     1      49.628   7.786  13.956  0.00  0.00    +0.000 C 
ENDROOT
BRANCH   1   2
ATOM      2  C   UNL     1      48.284   7.410  13.381  0.00  0.00    +0.000 A 
ATOM      3  C   UNL     1      47.245   8.348  13.321  0.00  0.00    +0.000 A 
ATOM      4  C   UNL     1      45.991   7.988  12.813  0.00  0.00    +0.000 A 
ATOM      5  C   UNL     1      45.745   6.683  12.365  0.00  0.00    +0.000 A 
ATOM      6  C   UNL     1      46.780   5.743  12.440  0.00  0.00    +0.000 A 
ATOM      7  C   UNL     1      48.035   6.102  12.946  0.00  0.00    +0.000 A 
BRANCH   5   8
ATOM      8  C   UNL     1      44.388   6.301  11.825  0.00  0.00    +0.000 C 
BRANCH   8   9
ATOM      9  O   UNL     1      44.549   5.818  10.496  0.00  0.00    +0.000 OA
BRANCH   9  10
ATOM     10  C   UNL     1      44.116   4.462  10.364  0.00  0.00    +0.000 C 
BRANCH  10  11
ATOM     11  C   UNL     1      44.974   3.719   9.362  0.00  0.00    +0.000 A 
ATOM     12  C   UNL     1      45.062   2.327   9.390  0.00  0.00    +0.000 A 
ATOM     13  C   UNL     1      45.850   1.677   8.444  0.00  0.00    +0.000 A 
ATOM     14  C   UNL     1      46.518   2.428   7.486  0.00  0.00    +0.000 A 
ATOM     15  C   UNL     1      46.362   3.803   7.509  0.00  0.00    +0.000 A 
ATOM     16  N   UNL     1      45.606   4.462   8.417  0.00  0.00    +0.000 NA
ENDBRANCH  10  11
ENDBRANCH   9  10
ENDBRANCH   8   9
ENDBRANCH   5   8
ENDBRANCH   1   2
BRANCH   1  19
ATOM     17  C   UNL     1      49.602   8.045  16.409  0.00  0.00    +0.000 C 
ATOM     18  O   UNL     1      49.308   9.234  16.318  0.00  0.00    +0.000 OA
ATOM     19  N   UNL     1      49.774   7.270  15.295  0.00  0.00    +0.000 N 
ATOM     20  H   UNL     1      50.041   6.300  15.389  0.00  0.00    +0.000 HD
BRANCH  17  28
ATOM     21  C   UNL     1      48.444   5.115  17.800  0.00  0.00    +0.000 A 
ATOM     22  N   UNL     1      48.171   4.035  18.558  0.00  0.00    +0.000 NA
ATOM     23  C   UNL     1      48.708   3.974  19.779  0.00  0.00    +0.000 A 
ATOM     24  N   UNL     1      49.496   4.880  20.353  0.00  0.00    +0.000 NA
ATOM     25  C   UNL     1      49.750   5.935  19.561  0.00  0.00    +0.000 A 
ATOM     26  S   UNL     1      50.735   7.194  20.131  0.00  0.00    +0.000 S 
ATOM     27  C   UNL     1      50.581   8.044  18.668  0.00  0.00    +0.000 A 
ATOM     28  C   UNL     1      49.794   7.399  17.720  0.00  0.00    +0.000 A 
ATOM     29  C   UNL     1      49.285   6.141  18.265  0.00  0.00    +0.000 A 
BRANCH  21  31
ATOM     30  C   UNL     1      47.524   3.888  16.033  0.00  0.00    +0.000 C 
ATOM     31  O   UNL     1      47.909   5.167  16.530  0.00  0.00    +0.000 OA
ENDBRANCH  21  31
ENDBRANCH  17  28
ENDBRANCH   1  19
TORSDOF 8
ENDMDL
MODEL 7
REMARK VINA RESULT:    -6.216      2.552      3.714
REMARK INTER + INTRA:         -10.581
REMARK INTER:                  -9.641
REMARK INTRA:                  -0.940
REMARK UNBOUND:                -1.459
REMARK  Name = 
REMARK  9 active torsions:
REMARK  status: ('A' for Active; 'I' for Inactive)
REMARK    1  A    between atoms: C_1  and  O_2
REMARK    2  A    between atoms: O_2  and  C_3
REMARK    3  A    between atoms: C_10  and  C_11
REMARK    4  A    between atoms: N_13  and  C_14
REMARK    5  A    between atoms: C_14  and  C_15
REMARK    6  A    between atoms: C_18  and  C_19
REMARK    7  A    between atoms: C_19  and  O_20
REMARK    8  A    between atoms: O_20  and  C_21
REMARK    9  A    between atoms: C_21  and  C_22
REMARK                            x       y       z     vdW  Elec       q    Type
REMARK                         _______ _______ _______ _____ _____    ______ ____
ROOT
ATOM      1  C   UNL     1      49.016   7.677  13.414  0.00  0.00    +0.000 C 
ENDROOT
BRANCH   1   2
ATOM      2  C   UNL     1      47.821   6.859  12.987  0.00  0.00    +0.000 A 
ATOM      3  C   UNL     1      47.365   5.796  13.776  0.00  0.00    +0.000 A 
ATOM      4  C   UNL     1      46.274   5.021  13.364  0.00  0.00    +0.000 A 
ATOM      5  C   UNL     1      45.623   5.285  12.151  0.00  0.00    +0.000 A 
ATOM      6  C   UNL     1      46.090   6.339  11.357  0.00  0.00    +0.000 A 
ATOM      7  C   UNL     1      47.180   7.116  11.768  0.00  0.00    +0.000 A 
BRANCH   5   8
ATOM      8  C   UNL     1      44.452   4.441  11.711  0.00  0.00    +0.000 C 
BRANCH   8   9
ATOM      9  O   UNL     1      44.947   3.336  10.961  0.00  0.00    +0.000 OA
BRANCH   9  10
ATOM     10  C   UNL     1      44.324   3.239   9.678  0.00  0.00    +0.000 C 
BRANCH  10  11
ATOM     11  C   UNL     1      45.339   2.873   8.615  0.00  0.00    +0.000 A 
ATOM     12  C   UNL     1      45.883   1.590   8.560  0.00  0.00    +0.000 A 
ATOM     13  C   UNL     1      46.802   1.284   7.561  0.00  0.00    +0.000 A 
ATOM     14  C   UNL     1      47.146   2.260   6.634  0.00  0.00    +0.000 A 
ATOM     15  C   UNL     1      46.546   3.503   6.742  0.00  0.00    +0.000 A 
ATOM     16  N   UNL     1      45.651   3.828   7.702  0.00  0.00    +0.000 NA
ENDBRANCH  10  11
ENDBRANCH   9  10
ENDBRANCH   8   9
ENDBRANCH   5   8
ENDBRANCH   1   2
BRANCH   1  19
ATOM     17  C   UNL     1      49.827   7.149  15.683  0.00  0.00    +0.000 C 
ATOM     18  O   UNL     1      49.093   7.999  16.183  0.00  0.00    +0.000 OA
ATOM     19  N   UNL     1      49.842   6.933  14.333  0.00  0.00    +0.000 N 
ATOM     20  H   UNL     1      50.471   6.248  13.937  0.00  0.00    +0.000 HD
BRANCH  17  28
ATOM     21  C   UNL     1      53.246   6.745  15.773  0.00  0.00    +0.000 A 
ATOM     22  N   UNL     1      54.528   6.433  16.044  0.00  0.00    +0.000 NA
ATOM     23  C   UNL     1      54.767   5.568  17.033  0.00  0.00    +0.000 A 
ATOM     24  N   UNL     1      53.865   4.959  17.799  0.00  0.00    +0.000 NA
ATOM     25  C   UNL     1      52.601   5.306  17.502  0.00  0.00    +0.000 A 
ATOM     26  S   UNL     1      51.317   4.621  18.376  0.00  0.00    +0.000 S 
ATOM     27  C   UNL     1      50.173   5.502  17.479  0.00  0.00    +0.000 A 
ATOM     28  C   UNL     1      50.730   6.331  16.512  0.00  0.00    +0.000 A 
ATOM     29  C   UNL     1      52.187   6.199  16.519  0.00  0.00    +0.000 A 
BRANCH  21  31
ATOM     30  C   UNL     1      53.868   8.785  14.811  0.00  0.00    +0.000 C 
ATOM     31  O   UNL     1      53.000   7.657  14.767  0.00  0.00    +0.000 OA
ENDBRANCH  21  31
ENDBRANCH  17  28
ENDBRANCH   1  19
TORSDOF 8
ENDMDL
MODEL 8
REMARK VINA RESULT:    -6.074      2.675      3.830
REMARK INTER + INTRA:         -10.374
REMARK INTER:                  -9.337
REMARK INTRA:                  -1.037
REMARK UNBOUND:                -1.459
REMARK  Name = 
REMARK  9 active torsions:
REMARK  status: ('A' for Active; 'I' for Inactive)
REMARK    1  A    between atoms: C_1  and  O_2
REMARK    2  A    between atoms: O_2  and  C_3
REMARK    3  A    between atoms: C_10  and  C_11
REMARK    4  A    between atoms: N_13  and  C_14
REMARK    5  A    between atoms: C_14  and  C_15
REMARK    6  A    between atoms: C_18  and  C_19
REMARK    7  A    between atoms: C_19  and  O_20
REMARK    8  A    between atoms: O_20  and  C_21
REMARK    9  A    between atoms: C_21  and  C_22
REMARK                            x       y       z     vdW  Elec       q    Type
REMARK                         _______ _______ _______ _____ _____    ______ ____
ROOT
ATOM      1  C   UNL     1      47.441   4.463  15.839  0.00  0.00    +0.000 C 
ENDROOT
BRANCH   1   2
ATOM      2  C   UNL     1      46.945   4.713  14.436  0.00  0.00    +0.000 A 
ATOM      3  C   UNL     1      47.034   5.988  13.863  0.00  0.00    +0.000 A 
ATOM      4  C   UNL     1      46.548   6.224  12.572  0.00  0.00    +0.000 A 
ATOM      5  C   UNL     1      45.954   5.194  11.828  0.00  0.00    +0.000 A 
ATOM      6  C   UNL     1      45.853   3.924  12.408  0.00  0.00    +0.000 A 
ATOM      7  C   UNL     1      46.340   3.686  13.699  0.00  0.00    +0.000 A 
BRANCH   5   8
ATOM      8  C   UNL     1      45.427   5.458  10.439  0.00  0.00    +0.000 C 
BRANCH   8   9
ATOM      9  O   UNL     1      44.450   4.469  10.131  0.00  0.00    +0.000 OA
BRANCH   9  10
ATOM     10  C   UNL     1      44.303   4.284   8.720  0.00  0.00    +0.000 C 
BRANCH  10  11
ATOM     11  C   UNL     1      45.409   3.405   8.176  0.00  0.00    +0.000 A 
ATOM     12  C   UNL     1      45.503   2.064   8.550  0.00  0.00    +0.000 A 
ATOM     13  C   UNL     1      46.524   1.282   8.019  0.00  0.00    +0.000 A 
ATOM     14  C   UNL     1      47.416   1.850   7.119  0.00  0.00    +0.000 A 
ATOM     15  C   UNL     1      47.243   3.181   6.780  0.00  0.00    +0.000 A 
ATOM     16  N   UNL     1      46.262   3.966   7.281  0.00  0.00    +0.000 NA
ENDBRANCH  10  11
ENDBRANCH   9  10
ENDBRANCH   8   9
ENDBRANCH   5   8
ENDBRANCH   1   2
BRANCH   1  19
ATOM     17  C   UNL     1      48.245   5.899  17.676  0.00  0.00    +0.000 C 
ATOM     18  O   UNL     1      47.722   5.175  18.520  0.00  0.00    +0.000 OA
ATOM     19  N   UNL     1      48.152   5.613  16.342  0.00  0.00    +0.000 N 
ATOM     20  H   UNL     1      48.567   6.233  15.661  0.00  0.00    +0.000 HD
BRANCH  17  28
ATOM     21  C   UNL     1      51.405   6.443  18.934  0.00  0.00    +0.000 A 
ATOM     22  N   UNL     1      52.576   6.933  19.384  0.00  0.00    +0.000 NA
ATOM     23  C   UNL     1      52.695   8.257  19.509  0.00  0.00    +0.000 A 
ATOM     24  N   UNL     1      51.768   9.173  19.241  0.00  0.00    +0.000 NA
ATOM     25  C   UNL     1      50.620   8.643  18.786  0.00  0.00    +0.000 A 
ATOM     26  S   UNL     1      49.322   9.665  18.396  0.00  0.00    +0.000 S 
ATOM     27  C   UNL     1      48.357   8.344  17.936  0.00  0.00    +0.000 A 
ATOM     28  C   UNL     1      48.989   7.112  18.059  0.00  0.00    +0.000 A 
ATOM     29  C   UNL     1      50.342   7.295  18.584  0.00  0.00    +0.000 A 
BRANCH  21  31
ATOM     30  C   UNL     1      51.766   4.613  17.521  0.00  0.00    +0.000 C 
ATOM     31  O   UNL     1      51.290   5.077  18.781  0.00  0.00    +0.000 OA
ENDBRANCH  21  31
ENDBRANCH  17  28
ENDBRANCH   1  19
TORSDOF 8
ENDMDL
MODEL 9
REMARK VINA RESULT:    -5.953      2.052      3.526
REMARK INTER + INTRA:         -10.197
REMARK INTER:                  -8.884
REMARK INTRA:                  -1.313
REMARK UNBOUND:                -1.459
REMARK  Name = 
REMARK  9 active torsions:
REMARK  status: ('A' for Active; 'I' for Inactive)
REMARK    1  A    between atoms: C_1  and  O_2
REMARK    2  A    between atoms: O_2  and  C_3
REMARK    3  A    between atoms: C_10  and  C_11
REMARK    4  A    between atoms: N_13  and  C_14
REMARK    5  A    between atoms: C_14  and  C_15
REMARK    6  A    between atoms: C_18  and  C_19
REMARK    7  A    between atoms: C_19  and  O_20
REMARK    8  A    between atoms: O_20  and  C_21
REMARK    9  A    between atoms: C_21  and  C_22
REMARK                            x       y       z     vdW  Elec       q    Type
REMARK                         _______ _______ _______ _____ _____    ______ ____
ROOT
ATOM      1  C   UNL     1      46.865   4.325  15.562  0.00  0.00    +0.000 C 
ENDROOT
BRANCH   1   2
ATOM      2  C   UNL     1      46.501   4.559  14.117  0.00  0.00    +0.000 A 
ATOM      3  C   UNL     1      46.560   5.846  13.565  0.00  0.00    +0.000 A 
ATOM      4  C   UNL     1      46.194   6.065  12.232  0.00  0.00    +0.000 A 
ATOM      5  C   UNL     1      45.753   5.008  11.424  0.00  0.00    +0.000 A 
ATOM      6  C   UNL     1      45.681   3.726  11.981  0.00  0.00    +0.000 A 
ATOM      7  C   UNL     1      46.047   3.504  13.314  0.00  0.00    +0.000 A 
BRANCH   5   8
ATOM      8  C   UNL     1      45.355   5.254   9.990  0.00  0.00    +0.000 C 
BRANCH   8   9
ATOM      9  O   UNL     1      44.328   4.331   9.640  0.00  0.00    +0.000 OA
BRANCH   9  10
ATOM     10  C   UNL     1      44.308   4.060   8.236  0.00  0.00    +0.000 C 
BRANCH  10  11
ATOM     11  C   UNL     1      45.493   3.207   7.837  0.00  0.00    +0.000 A 
ATOM     12  C   UNL     1      45.645   1.915   8.341  0.00  0.00    +0.000 A 
ATOM     13  C   UNL     1      46.740   1.155   7.940  0.00  0.00    +0.000 A 
ATOM     14  C   UNL     1      47.647   1.694   7.038  0.00  0.00    +0.000 A 
ATOM     15  C   UNL     1      47.415   2.974   6.565  0.00  0.00    +0.000 A 
ATOM     16  N   UNL     1      46.362   3.737   6.938  0.00  0.00    +0.000 NA
ENDBRANCH  10  11
ENDBRANCH   9  10
ENDBRANCH   8   9
ENDBRANCH   5   8
ENDBRANCH   1   2
BRANCH   1  19
ATOM     17  C   UNL     1      48.686   5.047  17.061  0.00  0.00    +0.000 C 
ATOM     18  O   UNL     1      47.941   5.025  18.037  0.00  0.00    +0.000 OA
ATOM     19  N   UNL     1      48.231   4.714  15.814  0.00  0.00    +0.000 N 
ATOM     20  H   UNL     1      48.851   4.763  15.019  0.00  0.00    +0.000 HD
BRANCH  17  28
ATOM     21  C   UNL     1      50.687   7.260  15.340  0.00  0.00    +0.000 A 
ATOM     22  N   UNL     1      51.662   8.064  14.872  0.00  0.00    +0.000 NA
ATOM     23  C   UNL     1      52.859   8.006  15.461  0.00  0.00    +0.000 A 
ATOM     24  N   UNL     1      53.214   7.225  16.477  0.00  0.00    +0.000 NA
ATOM     25  C   UNL     1      52.211   6.447  16.919  0.00  0.00    +0.000 A 
ATOM     26  S   UNL     1      52.485   5.380  18.210  0.00  0.00    +0.000 S 
ATOM     27  C   UNL     1      50.877   4.831  18.162  0.00  0.00    +0.000 A 
ATOM     28  C   UNL     1      50.102   5.441  17.183  0.00  0.00    +0.000 A 
ATOM     29  C   UNL     1      50.910   6.399  16.429  0.00  0.00    +0.000 A 
BRANCH  21  31
ATOM     30  C   UNL     1      48.871   8.639  14.816  0.00  0.00    +0.000 C 
ATOM     31  O   UNL     1      49.444   7.337  14.748  0.00  0.00    +0.000 OA
ENDBRANCH  21  31
ENDBRANCH  17  28
ENDBRANCH   1  19
TORSDOF 8
ENDMDL
