MODEL 1
REMARK VINA RESULT:    -7.473      0.000      0.000
REMARK INTER + INTRA:         -10.663
REMARK INTER:                 -10.095
REMARK INTRA:                  -0.568
REMARK UNBOUND:                -0.568
REMARK  Name = 
REMARK  7 active torsions:
REMARK  status: ('A' for Active; 'I' for Inactive)
REMARK    1  A    between atoms: C_1  and  N_2
REMARK    2  A    between atoms: N_2  and  C_3
REMARK    3  A    between atoms: C_3  and  C_4
REMARK    4  A    between atoms: C_7  and  C_8
REMARK    5  A    between atoms: C_8  and  O_9
REMARK    6  A    between atoms: O_9  and  C_10
REMARK    7  A    between atoms: C_13  and  C_14
REMARK                            x       y       z     vdW  Elec       q    Type
REMARK                         _______ _______ _______ _____ _____    ______ ____
ROOT
ATOM      1  O   UNL     1      43.652   4.594   9.835  0.00  0.00    +0.000 OA
ENDROOT
BRANCH   1   2
ATOM      2  C   UNL     1      44.609   3.897   9.126  0.00  0.00    +0.000 A 
ATOM      3  C   UNL     1      44.682   2.514   9.278  0.00  0.00    +0.000 A 
ATOM      4  N   UNL     1      45.581   1.737   8.608  0.00  0.00    +0.000 NA
ATOM      5  C   UNL     1      46.406   2.427   7.768  0.00  0.00    +0.000 A 
ATOM      6  C   UNL     1      46.331   3.801   7.618  0.00  0.00    +0.000 A 
ATOM      7  N   UNL     1      45.437   4.564   8.291  0.00  0.00    +0.000 NA
BRANCH   5   8
ATOM      8  C   UNL     1      47.421   1.669   6.982  0.00  0.00    +0.000 C 
ATOM      9  N   UNL     1      48.502   2.378   6.540  0.00  0.00    +0.000 N 
ATOM     10  O   UNL     1      47.296   0.474   6.745  0.00  0.00    +0.000 OA
ATOM     11  H   UNL     1      48.591   3.366   6.745  0.00  0.00    +0.000 HD
ATOM     12  H   UNL     1      49.214   1.900   6.007  0.00  0.00    +0.000 HD
ENDBRANCH   5   8
ENDBRANCH   1   2
BRANCH   1  13
ATOM     13  C   UNL     1      43.660   4.238  11.222  0.00  0.00    +0.000 C 
BRANCH  13  17
ATOM     14  C   UNL     1      46.970   6.231  13.192  0.00  0.00    +0.000 A 
ATOM     15  C   UNL     1      46.753   4.857  13.366  0.00  0.00    +0.000 A 
ATOM     16  C   UNL     1      45.680   4.215  12.741  0.00  0.00    +0.000 A 
ATOM     17  C   UNL     1      44.796   4.937  11.931  0.00  0.00    +0.000 A 
ATOM     18  C   UNL     1      44.998   6.314  11.768  0.00  0.00    +0.000 A 
ATOM     19  C   UNL     1      46.078   6.952  12.386  0.00  0.00    +0.000 A 
BRANCH  14  20
ATOM     20  C   UNL     1      48.116   6.931  13.889  0.00  0.00    +0.000 C 
BRANCH  20  22
ATOM     21  C   UNL     1      49.671   7.675  12.206  0.00  0.00    +0.000 C 
ATOM     22  N   UNL     1      49.396   6.674  13.227  0.00  0.00    +0.000 NA
ATOM     23  H   UNL     1      50.139   6.693  13.921  0.00  0.00    +0.000 HD
ENDBRANCH  20  22
ENDBRANCH  14  20
ENDBRANCH  13  17
ENDBRANCH   1  13
TORSDOF 6
ENDMDL
MODEL 2
REMARK VINA RESULT:    -7.340      2.461      6.388
REMARK INTER + INTRA:         -10.482
REMARK INTER:                 -10.292
REMARK INTRA:                  -0.191
REMARK UNBOUND:                -0.568
REMARK  Name = 
REMARK  7 active torsions:
REMARK  status: ('A' for Active; 'I' for Inactive)
REMARK    1  A    between atoms: C_1  and  N_2
REMARK    2  A    between atoms: N_2  and  C_3
REMARK    3  A    between atoms: C_3  and  C_4
REMARK    4  A    between atoms: C_7  and  C_8
REMARK    5  A    between atoms: C_8  and  O_9
REMARK    6  A    between atoms: O_9  and  C_10
REMARK    7  A    between atoms: C_13  and  C_14
REMARK                            x       y       z     vdW  Elec       q    Type
REMARK                         _______ _______ _______ _____ _____    ______ ____
ROOT
ATOM      1  O   UNL     1      44.554   5.849  10.720  0.00  0.00    +0.000 OA
ENDROOT
BRANCH   1   2
ATOM      2  C   UNL     1      45.259   5.447  11.836  0.00  0.00    +0.000 A 
ATOM      3  C   UNL     1      44.643   4.592  12.747  0.00  0.00    +0.000 A 
ATOM      4  N   UNL     1      45.263   4.128  13.870  0.00  0.00    +0.000 NA
ATOM      5  C   UNL     1      46.545   4.568  14.029  0.00  0.00    +0.000 A 
ATOM      6  C   UNL     1      47.155   5.417  13.122  0.00  0.00    +0.000 A 
ATOM      7  N   UNL     1      46.530   5.876  12.012  0.00  0.00    +0.000 NA
BRANCH   5   8
ATOM      8  C   UNL     1      47.314   4.111  15.221  0.00  0.00    +0.000 C 
ATOM      9  N   UNL     1      47.253   4.911  16.327  0.00  0.00    +0.000 N 
ATOM     10  O   UNL     1      47.964   3.073  15.215  0.00  0.00    +0.000 OA
ATOM     11  H   UNL     1      46.711   5.766  16.318  0.00  0.00    +0.000 HD
ATOM     12  H   UNL     1      47.758   4.635  17.158  0.00  0.00    +0.000 HD
ENDBRANCH   5   8
ENDBRANCH   1   2
BRANCH   1  13
ATOM     13  C   UNL     1      43.766   4.782  10.181  0.00  0.00    +0.000 C 
BRANCH  13  17
ATOM     14  C   UNL     1      46.312   2.145   7.863  0.00  0.00    +0.000 A 
ATOM     15  C   UNL     1      46.351   3.534   7.670  0.00  0.00    +0.000 A 
ATOM     16  C   UNL     1      45.522   4.384   8.408  0.00  0.00    +0.000 A 
ATOM     17  C   UNL     1      44.632   3.863   9.354  0.00  0.00    +0.000 A 
ATOM     18  C   UNL     1      44.578   2.475   9.538  0.00  0.00    +0.000 A 
ATOM     19  C   UNL     1      45.414   1.626   8.806  0.00  0.00    +0.000 A 
BRANCH  14  20
ATOM     20  C   UNL     1      47.190   1.223   7.047  0.00  0.00    +0.000 C 
BRANCH  20  22
ATOM     21  C   UNL     1      47.894   2.384   5.056  0.00  0.00    +0.000 C 
ATOM     22  N   UNL     1      48.280   1.947   6.390  0.00  0.00    +0.000 NA
ATOM     23  H   UNL     1      48.523   2.761   6.951  0.00  0.00    +0.000 HD
ENDBRANCH  20  22
ENDBRANCH  14  20
ENDBRANCH  13  17
ENDBRANCH   1  13
TORSDOF 6
ENDMDL
MODEL 3
REMARK VINA RESULT:    -7.293      0.619      1.535
REMARK INTER + INTRA:         -10.419
REMARK INTER:                  -9.858
REMARK INTRA:                  -0.561
REMARK UNBOUND:                -0.568
REMARK  Name = 
REMARK  7 active torsions:
REMARK  status: ('A' for Active; 'I' for Inactive)
REMARK    1  A    between atoms: C_1  and  N_2
REMARK    2  A    between atoms: N_2  and  C_3
REMARK    3  A    between atoms: C_3  and  C_4
REMARK    4  A    between atoms: C_7  and  C_8
REMARK    5  A    between atoms: C_8  and  O_9
REMARK    6  A    between atoms: O_9  and  C_10
REMARK    7  A    between atoms: C_13  and  C_14
REMARK                            x       y       z     vdW  Elec       q    Type
REMARK                         _______ _______ _______ _____ _____    ______ ____
ROOT
ATOM      1  O   UNL     1      43.678   4.454   9.993  0.00  0.00    +0.000 OA
ENDROOT
BRANCH   1   2
ATOM      2  C   UNL     1      44.593   3.763   9.226  0.00  0.00    +0.000 A 
ATOM      3  C   UNL     1      45.400   4.474   8.341  0.00  0.00    +0.000 A 
ATOM      4  N   UNL     1      46.344   3.883   7.553  0.00  0.00    +0.000 NA
ATOM      5  C   UNL     1      46.438   2.530   7.705  0.00  0.00    +0.000 A 
ATOM      6  C   UNL     1      45.636   1.825   8.586  0.00  0.00    +0.000 A 
ATOM      7  N   UNL     1      44.699   2.421   9.361  0.00  0.00    +0.000 NA
BRANCH   5   8
ATOM      8  C   UNL     1      47.446   1.789   6.895  0.00  0.00    +0.000 C 
ATOM      9  N   UNL     1      48.535   2.502   6.478  0.00  0.00    +0.000 N 
ATOM     10  O   UNL     1      47.311   0.603   6.617  0.00  0.00    +0.000 OA
ATOM     11  H   UNL     1      48.633   3.482   6.717  0.00  0.00    +0.000 HD
ATOM     12  H   UNL     1      49.243   2.035   5.930  0.00  0.00    +0.000 HD
ENDBRANCH   5   8
ENDBRANCH   1   2
BRANCH   1  13
ATOM     13  C   UNL     1      43.753   4.078  11.372  0.00  0.00    +0.000 C 
BRANCH  13  17
ATOM     14  C   UNL     1      47.042   6.100  13.348  0.00  0.00    +0.000 A 
ATOM     15  C   UNL     1      46.211   6.788  12.451  0.00  0.00    +0.000 A 
ATOM     16  C   UNL     1      45.158   6.134  11.804  0.00  0.00    +0.000 A 
ATOM     17  C   UNL     1      44.915   4.776  12.038  0.00  0.00    +0.000 A 
ATOM     18  C   UNL     1      45.753   4.081  12.920  0.00  0.00    +0.000 A 
ATOM     19  C   UNL     1      46.800   4.738  13.574  0.00  0.00    +0.000 A 
BRANCH  14  20
ATOM     20  C   UNL     1      48.198   6.800  14.028  0.00  0.00    +0.000 C 
BRANCH  20  22
ATOM     21  C   UNL     1      49.803   7.884  12.595  0.00  0.00    +0.000 C 
ATOM     22  N   UNL     1      49.445   6.649  13.278  0.00  0.00    +0.000 NA
ATOM     23  H   UNL     1      50.191   6.395  13.921  0.00  0.00    +0.000 HD
ENDBRANCH  20  22
ENDBRANCH  14  20
ENDBRANCH  13  17
ENDBRANCH   1  13
TORSDOF 6
ENDMDL
MODEL 4
REMARK VINA RESULT:    -7.053      2.363      6.481
REMARK INTER + INTRA:         -10.095
REMARK INTER:                  -9.851
REMARK INTRA:                  -0.244
REMARK UNBOUND:                -0.568
REMARK  Name = 
REMARK  7 active torsions:
REMARK  status: ('A' for Active; 'I' for Inactive)
REMARK    1  A    between atoms: C_1  and  N_2
REMARK    2  A    between atoms: N_2  and  C_3
REMARK    3  A    between atoms: C_3  and  C_4
REMARK    4  A    between atoms: C_7  and  C_8
REMARK    5  A    between atoms: C_8  and  O_9
REMARK    6  A    between atoms: O_9  and  C_10
REMARK    7  A    between atoms: C_13  and  C_14
REMARK                            x       y       z     vdW  Elec       q    Type
REMARK                         _______ _______ _______ _____ _____    ______ ____
ROOT
ATOM      1  O   UNL     1      43.609   4.151  11.548  0.00  0.00    +0.000 OA
ENDROOT
BRANCH   1   2
ATOM      2  C   UNL     1      44.716   4.588  12.247  0.00  0.00    +0.000 A 
ATOM      3  C   UNL     1      44.976   5.955  12.303  0.00  0.00    +0.000 A 
ATOM      4  N   UNL     1      46.034   6.486  12.980  0.00  0.00    +0.000 NA
ATOM      5  C   UNL     1      46.821   5.563  13.608  0.00  0.00    +0.000 A 
ATOM      6  C   UNL     1      46.560   4.205  13.551  0.00  0.00    +0.000 A 
ATOM      7  N   UNL     1      45.508   3.688  12.871  0.00  0.00    +0.000 NA
BRANCH   5   8
ATOM      8  C   UNL     1      48.000   6.040  14.384  0.00  0.00    +0.000 C 
ATOM      9  N   UNL     1      47.923   5.920  15.743  0.00  0.00    +0.000 N 
ATOM     10  O   UNL     1      48.989   6.515  13.837  0.00  0.00    +0.000 OA
ATOM     11  H   UNL     1      47.100   5.525  16.181  0.00  0.00    +0.000 HD
ATOM     12  H   UNL     1      48.704   6.228  16.305  0.00  0.00    +0.000 HD
ENDBRANCH   5   8
ENDBRANCH   1   2
BRANCH   1  13
ATOM     13  C   UNL     1      43.633   4.595  10.187  0.00  0.00    +0.000 C 
BRANCH  13  17
ATOM     14  C   UNL     1      46.362   2.105   7.915  0.00  0.00    +0.000 A 
ATOM     15  C   UNL     1      46.425   3.504   7.829  0.00  0.00    +0.000 A 
ATOM     16  C   UNL     1      45.539   4.308   8.552  0.00  0.00    +0.000 A 
ATOM     17  C   UNL     1      44.565   3.729   9.374  0.00  0.00    +0.000 A 
ATOM     18  C   UNL     1      44.487   2.332   9.450  0.00  0.00    +0.000 A 
ATOM     19  C   UNL     1      45.381   1.529   8.734  0.00  0.00    +0.000 A 
BRANCH  14  20
ATOM     20  C   UNL     1      47.305   1.235   7.113  0.00  0.00    +0.000 C 
BRANCH  20  22
ATOM     21  C   UNL     1      47.695   2.437   5.062  0.00  0.00    +0.000 C 
ATOM     22  N   UNL     1      48.259   2.032   6.341  0.00  0.00    +0.000 NA
ATOM     23  H   UNL     1      48.507   2.862   6.875  0.00  0.00    +0.000 HD
ENDBRANCH  20  22
ENDBRANCH  14  20
ENDBRANCH  13  17
ENDBRANCH   1  13
TORSDOF 6
ENDMDL
MODEL 5
REMARK VINA RESULT:    -6.246      3.270      7.237
REMARK INTER + INTRA:          -9.005
REMARK INTER:                  -8.598
REMARK INTRA:                  -0.407
REMARK UNBOUND:                -0.568
REMARK  Name = 
REMARK  7 active torsions:
REMARK  status: ('A' for Active; 'I' for Inactive)
REMARK    1  A    between atoms: C_1  and  N_2
REMARK    2  A    between atoms: N_2  and  C_3
REMARK    3  A    between atoms: C_3  and  C_4
REMARK    4  A    between atoms: C_7  and  C_8
REMARK    5  A    between atoms: C_8  and  O_9
REMARK    6  A    between atoms: O_9  and  C_10
REMARK    7  A    between atoms: C_13  and  C_14
REMARK                            x       y       z     vdW  Elec       q    Type
REMARK                         _______ _______ _______ _____ _____    ______ ____
ROOT
ATOM      1  O   UNL     1      45.581   3.999  13.760  0.00  0.00    +0.000 OA
ENDROOT
BRANCH   1   2
ATOM      2  C   UNL     1      46.594   4.514  14.543  0.00  0.00    +0.000 A 
ATOM      3  C   UNL     1      47.359   5.564  14.043  0.00  0.00    +0.000 A 
ATOM      4  N   UNL     1      48.370   6.150  14.747  0.00  0.00    +0.000 NA
ATOM      5  C   UNL     1      48.570   5.625  15.991  0.00  0.00    +0.000 A 
ATOM      6  C   UNL     1      47.807   4.581  16.486  0.00  0.00    +0.000 A 
ATOM      7  N   UNL     1      46.807   4.003  15.777  0.00  0.00    +0.000 NA
BRANCH   5   8
ATOM      8  C   UNL     1      49.646   6.201  16.845  0.00  0.00    +0.000 C 
ATOM      9  N   UNL     1      49.327   6.428  18.155  0.00  0.00    +0.000 N 
ATOM     10  O   UNL     1      50.759   6.457  16.402  0.00  0.00    +0.000 OA
ATOM     11  H   UNL     1      48.403   6.210  18.507  0.00  0.00    +0.000 HD
ATOM     12  H   UNL     1      50.031   6.814  18.768  0.00  0.00    +0.000 HD
ENDBRANCH   5   8
ENDBRANCH   1   2
BRANCH   1  13
ATOM     13  C   UNL     1      45.010   4.999  12.909  0.00  0.00    +0.000 C 
BRANCH  13  17
ATOM     14  C   UNL     1      45.364   3.867   8.737  0.00  0.00    +0.000 A 
ATOM     15  C   UNL     1      44.936   2.940   9.699  0.00  0.00    +0.000 A 
ATOM     16  C   UNL     1      44.833   3.300  11.046  0.00  0.00    +0.000 A 
ATOM     17  C   UNL     1      45.160   4.596  11.461  0.00  0.00    +0.000 A 
ATOM     18  C   UNL     1      45.604   5.521  10.507  0.00  0.00    +0.000 A 
ATOM     19  C   UNL     1      45.698   5.162   9.158  0.00  0.00    +0.000 A 
BRANCH  14  20
ATOM     20  C   UNL     1      45.501   3.471   7.283  0.00  0.00    +0.000 C 
BRANCH  20  22
ATOM     21  C   UNL     1      47.727   2.700   6.782  0.00  0.00    +0.000 C 
ATOM     22  N   UNL     1      46.812   3.831   6.741  0.00  0.00    +0.000 NA
ATOM     23  H   UNL     1      46.700   4.134   5.776  0.00  0.00    +0.000 HD
ENDBRANCH  20  22
ENDBRANCH  14  20
ENDBRANCH  13  17
ENDBRANCH   1  13
TORSDOF 6
ENDMDL
MODEL 6
REMARK VINA RESULT:    -6.034      4.935      6.577
REMARK INTER + INTRA:          -8.719
REMARK INTER:                  -8.302
REMARK INTRA:                  -0.417
REMARK UNBOUND:                -0.568
REMARK  Name = 
REMARK  7 active torsions:
REMARK  status: ('A' for Active; 'I' for Inactive)
REMARK    1  A    between atoms: C_1  and  N_2
REMARK    2  A    between atoms: N_2  and  C_3
REMARK    3  A    between atoms: C_3  and  C_4
REMARK    4  A    between atoms: C_7  and  C_8
REMARK    5  A    between atoms: C_8  and  O_9
REMARK    6  A    between atoms: O_9  and  C_10
REMARK    7  A    between atoms: C_13  and  C_14
REMARK                            x       y       z     vdW  Elec       q    Type
REMARK                         _______ _______ _______ _____ _____    ______ ____
ROOT
ATOM      1  O   UNL     1      47.614   5.057  14.972  0.00  0.00    +0.000 OA
ENDROOT
BRANCH   1   2
ATOM      2  C   UNL     1      46.700   4.744  13.986  0.00  0.00    +0.000 A 
ATOM      3  C   UNL     1      46.011   5.778  13.357  0.00  0.00    +0.000 A 
ATOM      4  N   UNL     1      45.102   5.571  12.362  0.00  0.00    +0.000 NA
ATOM      5  C   UNL     1      44.923   4.260  12.025  0.00  0.00    +0.000 A 
ATOM      6  C   UNL     1      45.610   3.234  12.651  0.00  0.00    +0.000 A 
ATOM      7  N   UNL     1      46.508   3.450  13.642  0.00  0.00    +0.000 NA
BRANCH   5   8
ATOM      8  C   UNL     1      43.956   3.927  10.942  0.00  0.00    +0.000 C 
ATOM      9  N   UNL     1      43.732   4.898  10.007  0.00  0.00    +0.000 N 
ATOM     10  O   UNL     1      43.391   2.841  10.887  0.00  0.00    +0.000 OA
ATOM     11  H   UNL     1      44.207   5.791  10.065  0.00  0.00    +0.000 HD
ATOM     12  H   UNL     1      43.086   4.710   9.254  0.00  0.00    +0.000 HD
ENDBRANCH   5   8
ENDBRANCH   1   2
BRANCH   1  13
ATOM     13  C   UNL     1      47.383   4.301  16.166  0.00  0.00    +0.000 C 
BRANCH  13  17
ATOM     14  C   UNL     1      51.127   2.554  17.484  0.00  0.00    +0.000 A 
ATOM     15  C   UNL     1      50.114   1.753  16.938  0.00  0.00    +0.000 A 
ATOM     16  C   UNL     1      48.902   2.313  16.524  0.00  0.00    +0.000 A 
ATOM     17  C   UNL     1      48.675   3.688  16.650  0.00  0.00    +0.000 A 
ATOM     18  C   UNL     1      49.678   4.490  17.212  0.00  0.00    +0.000 A 
ATOM     19  C   UNL     1      50.894   3.930  17.617  0.00  0.00    +0.000 A 
BRANCH  14  20
ATOM     20  C   UNL     1      52.428   1.944  17.957  0.00  0.00    +0.000 C 
BRANCH  20  22
ATOM     21  C   UNL     1      53.734  -0.076  18.081  0.00  0.00    +0.000 C 
ATOM     22  N   UNL     1      52.405   0.483  17.882  0.00  0.00    +0.000 NA
ATOM     23  H   UNL     1      51.781   0.123  18.601  0.00  0.00    +0.000 HD
ENDBRANCH  20  22
ENDBRANCH  14  20
ENDBRANCH  13  17
ENDBRANCH   1  13
TORSDOF 6
ENDMDL
MODEL 7
REMARK VINA RESULT:    -5.930      4.160      7.914
REMARK INTER + INTRA:          -8.578
REMARK INTER:                  -8.195
REMARK INTRA:                  -0.383
REMARK UNBOUND:                -0.568
REMARK  Name = 
REMARK  7 active torsions:
REMARK  status: ('A' for Active; 'I' for Inactive)
REMARK    1  A    between atoms: C_1  and  N_2
REMARK    2  A    between atoms: N_2  and  C_3
REMARK    3  A    between atoms: C_3  and  C_4
REMARK    4  A    between atoms: C_7  and  C_8
REMARK    5  A    between atoms: C_8  and  O_9
REMARK    6  A    between atoms: O_9  and  C_10
REMARK    7  A    between atoms: C_13  and  C_14
REMARK                            x       y       z     vdW  Elec       q    Type
REMARK                         _______ _______ _______ _____ _____    ______ ____
ROOT
ATOM      1  O   UNL     1      47.336   5.276  13.832  0.00  0.00    +0.000 OA
ENDROOT
BRANCH   1   2
ATOM      2  C   UNL     1      47.718   5.055  15.139  0.00  0.00    +0.000 A 
ATOM      3  C   UNL     1      47.124   4.011  15.844  0.00  0.00    +0.000 A 
ATOM      4  N   UNL     1      47.446   3.704  17.133  0.00  0.00    +0.000 NA
ATOM      5  C   UNL     1      48.407   4.505  17.680  0.00  0.00    +0.000 A 
ATOM      6  C   UNL     1      48.996   5.542  16.978  0.00  0.00    +0.000 A 
ATOM      7  N   UNL     1      48.666   5.841  15.698  0.00  0.00    +0.000 NA
BRANCH   5   8
ATOM      8  C   UNL     1      48.837   4.247  19.083  0.00  0.00    +0.000 C 
ATOM      9  N   UNL     1      48.297   3.150  19.693  0.00  0.00    +0.000 N 
ATOM     10  O   UNL     1      49.634   4.976  19.662  0.00  0.00    +0.000 OA
ATOM     11  H   UNL     1      47.641   2.556  19.202  0.00  0.00    +0.000 HD
ATOM     12  H   UNL     1      48.566   2.938  20.644  0.00  0.00    +0.000 HD
ENDBRANCH   5   8
ENDBRANCH   1   2
BRANCH   1  13
ATOM     13  C   UNL     1      45.927   5.092  13.654  0.00  0.00    +0.000 C 
BRANCH  13  17
ATOM     14  C   UNL     1      45.138   4.055   9.518  0.00  0.00    +0.000 A 
ATOM     15  C   UNL     1      45.605   5.332   9.862  0.00  0.00    +0.000 A 
ATOM     16  C   UNL     1      45.848   5.672  11.196  0.00  0.00    +0.000 A 
ATOM     17  C   UNL     1      45.626   4.741  12.217  0.00  0.00    +0.000 A 
ATOM     18  C   UNL     1      45.142   3.470  11.880  0.00  0.00    +0.000 A 
ATOM     19  C   UNL     1      44.909   3.128  10.544  0.00  0.00    +0.000 A 
BRANCH  14  20
ATOM     20  C   UNL     1      44.849   3.696   8.077  0.00  0.00    +0.000 C 
BRANCH  20  22
ATOM     21  C   UNL     1      46.717   2.737   6.897  0.00  0.00    +0.000 C 
ATOM     22  N   UNL     1      45.997   3.962   7.208  0.00  0.00    +0.000 NA
ATOM     23  H   UNL     1      45.667   4.385   6.343  0.00  0.00    +0.000 HD
ENDBRANCH  20  22
ENDBRANCH  14  20
ENDBRANCH  13  17
ENDBRANCH   1  13
TORSDOF 6
ENDMDL
MODEL 8
REMARK VINA RESULT:    -5.562      5.092      7.649
REMARK INTER + INTRA:          -8.081
REMARK INTER:                  -7.714
REMARK INTRA:                  -0.367
REMARK UNBOUND:                -0.568
REMARK  Name = 
REMARK  7 active torsions:
REMARK  status: ('A' for Active; 'I' for Inactive)
REMARK    1  A    between atoms: C_1  and  N_2
REMARK    2  A    between atoms: N_2  and  C_3
REMARK    3  A    between atoms: C_3  and  C_4
REMARK    4  A    between atoms: C_7  and  C_8
REMARK    5  A    between atoms: C_8  and  O_9
REMARK    6  A    between atoms: O_9  and  C_10
REMARK    7  A    between atoms: C_13  and  C_14
REMARK                            x       y       z     vdW  Elec       q    Type
REMARK                         _______ _______ _______ _____ _____    ______ ____
ROOT
ATOM      1  O   UNL     1      47.181   4.473  15.887  0.00  0.00    +0.000 OA
ENDROOT
BRANCH   1   2
ATOM      2  C   UNL     1      48.312   3.849  16.374  0.00  0.00    +0.000 A 
ATOM      3  C   UNL     1      48.461   2.479  16.173  0.00  0.00    +0.000 A 
ATOM      4  N   UNL     1      49.549   1.777  16.602  0.00  0.00    +0.000 NA
ATOM      5  C   UNL     1      50.489   2.531  17.244  0.00  0.00    +0.000 A 
ATOM      6  C   UNL     1      50.339   3.893  17.441  0.00  0.00    +0.000 A 
ATOM      7  N   UNL     1      49.252   4.580  17.015  0.00  0.00    +0.000 NA
BRANCH   5   8
ATOM      8  C   UNL     1      51.722   1.860  17.744  0.00  0.00    +0.000 C 
ATOM      9  N   UNL     1      51.646   0.508  17.931  0.00  0.00    +0.000 N 
ATOM     10  O   UNL     1      52.752   2.482  17.976  0.00  0.00    +0.000 OA
ATOM     11  H   UNL     1      50.788   0.007  17.735  0.00  0.00    +0.000 HD
ATOM     12  H   UNL     1      52.461   0.015  18.266  0.00  0.00    +0.000 HD
ENDBRANCH   5   8
ENDBRANCH   1   2
BRANCH   1  13
ATOM     13  C   UNL     1      46.855   4.021  14.568  0.00  0.00    +0.000 C 
BRANCH  13  17
ATOM     14  C   UNL     1      45.312   7.354  12.262  0.00  0.00    +0.000 A 
ATOM     15  C   UNL     1      44.531   6.210  12.482  0.00  0.00    +0.000 A 
ATOM     16  C   UNL     1      45.031   5.130  13.215  0.00  0.00    +0.000 A 
ATOM     17  C   UNL     1      46.327   5.169  13.741  0.00  0.00    +0.000 A 
ATOM     18  C   UNL     1      47.118   6.303  13.509  0.00  0.00    +0.000 A 
ATOM     19  C   UNL     1      46.612   7.387  12.784  0.00  0.00    +0.000 A 
BRANCH  14  20
ATOM     20  C   UNL     1      44.780   8.512  11.447  0.00  0.00    +0.000 C 
BRANCH  20  22
ATOM     21  C   UNL     1      42.750   9.543  10.659  0.00  0.00    +0.000 C 
ATOM     22  N   UNL     1      43.397   8.291  11.022  0.00  0.00    +0.000 NA
ATOM     23  H   UNL     1      43.392   7.667  10.218  0.00  0.00    +0.000 HD
ENDBRANCH  20  22
ENDBRANCH  14  20
ENDBRANCH  13  17
ENDBRANCH   1  13
TORSDOF 6
ENDMDL
MODEL 9
REMARK VINA RESULT:    -5.417      4.308      8.358
REMARK INTER + INTRA:          -7.886
REMARK INTER:                  -7.518
REMARK INTRA:                  -0.368
REMARK UNBOUND:                -0.568
REMARK  Name = 
REMARK  7 active torsions:
REMARK  status: ('A' for Active; 'I' for Inactive)
REMARK    1  A    between atoms: C_1  and  N_2
REMARK    2  A    between atoms: N_2  and  C_3
REMARK    3  A    between atoms: C_3  and  C_4
REMARK    4  A    between atoms: C_7  and  C_8
REMARK    5  A    between atoms: C_8  and  O_9
REMARK    6  A    between atoms: O_9  and  C_10
REMARK    7  A    between atoms: C_13  and  C_14
REMARK                            x       y       z     vdW  Elec       q    Type
REMARK                         _______ _______ _______ _____ _____    ______ ____
ROOT
ATOM      1  O   UNL     1      48.637   5.927  14.295  0.00  0.00    +0.000 OA
ENDROOT
BRANCH   1   2
ATOM      2  C   UNL     1      48.528   5.714  15.654  0.00  0.00    +0.000 A 
ATOM      3  C   UNL     1      48.854   6.752  16.523  0.00  0.00    +0.000 A 
ATOM      4  N   UNL     1      48.764   6.644  17.880  0.00  0.00    +0.000 NA
ATOM      5  C   UNL     1      48.321   5.430  18.321  0.00  0.00    +0.000 A 
ATOM      6  C   UNL     1      47.997   4.400  17.455  0.00  0.00    +0.000 A 
ATOM      7  N   UNL     1      48.094   4.517  16.108  0.00  0.00    +0.000 NA
BRANCH   5   8
ATOM      8  C   UNL     1      48.179   5.212  19.788  0.00  0.00    +0.000 C 
ATOM      9  N   UNL     1      48.540   3.981  20.258  0.00  0.00    +0.000 N 
ATOM     10  O   UNL     1      47.763   6.088  20.537  0.00  0.00    +0.000 OA
ATOM     11  H   UNL     1      48.884   3.267  19.627  0.00  0.00    +0.000 HD
ATOM     12  H   UNL     1      48.462   3.794  21.247  0.00  0.00    +0.000 HD
ENDBRANCH   5   8
ENDBRANCH   1   2
BRANCH   1  13
ATOM     13  C   UNL     1      47.683   6.890  13.833  0.00  0.00    +0.000 C 
BRANCH  13  17
ATOM     14  C   UNL     1      44.795   5.042  11.177  0.00  0.00    +0.000 A 
ATOM     15  C   UNL     1      45.297   4.347  12.287  0.00  0.00    +0.000 A 
ATOM     16  C   UNL     1      46.237   4.937  13.137  0.00  0.00    +0.000 A 
ATOM     17  C   UNL     1      46.699   6.235  12.893  0.00  0.00    +0.000 A 
ATOM     18  C   UNL     1      46.212   6.927  11.776  0.00  0.00    +0.000 A 
ATOM     19  C   UNL     1      45.265   6.340  10.931  0.00  0.00    +0.000 A 
BRANCH  14  20
ATOM     20  C   UNL     1      43.798   4.394  10.242  0.00  0.00    +0.000 C 
BRANCH  20  22
ATOM     21  C   UNL     1      45.051   3.291   8.506  0.00  0.00    +0.000 C 
ATOM     22  N   UNL     1      44.240   4.450   8.848  0.00  0.00    +0.000 NA
ATOM     23  H   UNL     1      43.424   4.478   8.241  0.00  0.00    +0.000 HD
ENDBRANCH  20  22
ENDBRANCH  14  20
ENDBRANCH  13  17
ENDBRANCH   1  13
TORSDOF 6
ENDMDL
