MODEL 1
REMARK VINA RESULT:    -8.384      0.000      0.000
REMARK INTER + INTRA:         -12.778
REMARK INTER:                 -11.815
REMARK INTRA:                  -0.963
REMARK UNBOUND:                -0.963
REMARK  Name = 
REMARK  10 active torsions:
REMARK  status: ('A' for Active; 'I' for Inactive)
REMARK    1  A    between atoms: C_1  and  C_2
REMARK    2  A    between atoms: C_4  and  O_5
REMARK    3  A    between atoms: O_5  and  C_6
REMARK    4  A    between atoms: C_6  and  C_7
REMARK    5  A    between atoms: C_7  and  C_8
REMARK    6  A    between atoms: C_7  and  C_9
REMARK    7  A    between atoms: C_7  and  C_10
REMARK    8  A    between atoms: C_10  and  N_11
REMARK    9  A    between atoms: C_15  and  C_16
REMARK   10  A    between atoms: C_23  and  C_24
REMARK                            x       y       z     vdW  Elec       q    Type
REMARK                         _______ _______ _______ _____ _____    ______ ____
ROOT
ATOM      1  C   UNL     1      43.984   5.082  12.174  0.00  0.00    +0.000 C 
ATOM      2  C   UNL     1      43.025   5.169  13.379  0.00  0.00    +0.000 C 
ATOM      3  C   UNL     1      44.397   6.499  11.737  0.00  0.00    +0.000 C 
ENDROOT
BRANCH   1   4
ATOM      4  C   UNL     1      45.254   4.294  12.605  0.00  0.00    +0.000 C 
BRANCH   4   5
ATOM      5  O   UNL     1      46.399   5.153  12.551  0.00  0.00    +0.000 OA
BRANCH   5   9
ATOM      6  C   UNL     1      47.258   3.490  17.028  0.00  0.00    +0.000 C 
ATOM      7  C   UNL     1      47.515   4.527  15.968  0.00  0.00    +0.000 A 
ATOM      8  C   UNL     1      46.878   4.425  14.717  0.00  0.00    +0.000 A 
ATOM      9  C   UNL     1      47.086   5.378  13.711  0.00  0.00    +0.000 A 
ATOM     10  C   UNL     1      47.944   6.449  13.954  0.00  0.00    +0.000 A 
ATOM     11  C   UNL     1      48.588   6.565  15.191  0.00  0.00    +0.000 A 
ATOM     12  C   UNL     1      48.381   5.613  16.197  0.00  0.00    +0.000 A 
BRANCH  12  13
ATOM     13  C   UNL     1      49.065   5.769  17.451  0.00  0.00    +0.000 C 
ATOM     14  N   UNL     1      49.618   5.895  18.468  0.00  0.00    +0.000 NA
ENDBRANCH  12  13
ENDBRANCH   5   9
ENDBRANCH   4   5
ENDBRANCH   1   4
BRANCH   1  15
ATOM     15  C   UNL     1      43.311   4.328  11.002  0.00  0.00    +0.000 C 
BRANCH  15  16
ATOM     16  N   UNL     1      43.808   4.765   9.705  0.00  0.00    +0.000 N 
ATOM     17  C   UNL     1      44.750   3.991   9.046  0.00  0.00    +0.000 A 
ATOM     18  C   UNL     1      44.830   2.613   9.187  0.00  0.00    +0.000 A 
ATOM     19  C   UNL     1      45.787   1.902   8.468  0.00  0.00    +0.000 A 
ATOM     20  C   UNL     1      46.631   2.573   7.587  0.00  0.00    +0.000 A 
ATOM     21  C   UNL     1      46.472   3.946   7.491  0.00  0.00    +0.000 A 
ATOM     22  N   UNL     1      45.562   4.662   8.205  0.00  0.00    +0.000 NA
ATOM     23  H   UNL     1      44.150   5.722   9.649  0.00  0.00    +0.000 HD
BRANCH  20  24
ATOM     24  C   UNL     1      47.622   1.787   6.815  0.00  0.00    +0.000 C 
ATOM     25  N   UNL     1      48.731   2.410   6.317  0.00  0.00    +0.000 N 
ATOM     26  O   UNL     1      47.459   0.588   6.618  0.00  0.00    +0.000 OA
ATOM     27  H   UNL     1      48.963   3.386   6.419  0.00  0.00    +0.000 HD
ATOM     28  H   UNL     1      49.368   1.830   5.789  0.00  0.00    +0.000 HD
ENDBRANCH  20  24
ENDBRANCH  15  16
ENDBRANCH   1  15
TORSDOF 7
ENDMDL
MODEL 2
REMARK VINA RESULT:    -8.097      2.883      3.709
REMARK INTER + INTRA:         -12.373
REMARK INTER:                 -11.473
REMARK INTRA:                  -0.901
REMARK UNBOUND:                -0.963
REMARK  Name = 
REMARK  10 active torsions:
REMARK  status: ('A' for Active; 'I' for Inactive)
REMARK    1  A    between atoms: C_1  and  C_2
REMARK    2  A    between atoms: C_4  and  O_5
REMARK    3  A    between atoms: O_5  and  C_6
REMARK    4  A    between atoms: C_6  and  C_7
REMARK    5  A    between atoms: C_7  and  C_8
REMARK    6  A    between atoms: C_7  and  C_9
REMARK    7  A    between atoms: C_7  and  C_10
REMARK    8  A    between atoms: C_10  and  N_11
REMARK    9  A    between atoms: C_15  and  C_16
REMARK   10  A    between atoms: C_23  and  C_24
REMARK                            x       y       z     vdW  Elec       q    Type
REMARK                         _______ _______ _______ _____ _____    ______ ____
ROOT
ATOM      1  C   UNL     1      43.953   4.743  12.282  0.00  0.00    +0.000 C 
ATOM      2  C   UNL     1      45.193   3.859  12.533  0.00  0.00    +0.000 C 
ATOM      3  C   UNL     1      43.020   4.685  13.504  0.00  0.00    +0.000 C 
ENDROOT
BRANCH   1   4
ATOM      4  C   UNL     1      44.422   6.210  12.071  0.00  0.00    +0.000 C 
BRANCH   4   5
ATOM      5  O   UNL     1      45.562   6.479  12.898  0.00  0.00    +0.000 OA
BRANCH   5   9
ATOM      6  C   UNL     1      50.019   7.749  11.462  0.00  0.00    +0.000 C 
ATOM      7  C   UNL     1      48.619   8.159  11.831  0.00  0.00    +0.000 A 
ATOM      8  C   UNL     1      47.675   7.183  12.200  0.00  0.00    +0.000 A 
ATOM      9  C   UNL     1      46.366   7.531  12.559  0.00  0.00    +0.000 A 
ATOM     10  C   UNL     1      45.990   8.872  12.548  0.00  0.00    +0.000 A 
ATOM     11  C   UNL     1      46.914   9.856  12.180  0.00  0.00    +0.000 A 
ATOM     12  C   UNL     1      48.223   9.510  11.822  0.00  0.00    +0.000 A 
BRANCH  12  13
ATOM     13  C   UNL     1      49.139  10.552  11.448  0.00  0.00    +0.000 C 
ATOM     14  N   UNL     1      49.882  11.395  11.145  0.00  0.00    +0.000 NA
ENDBRANCH  12  13
ENDBRANCH   5   9
ENDBRANCH   4   5
ENDBRANCH   1   4
BRANCH   1  15
ATOM     15  C   UNL     1      43.207   4.277  11.008  0.00  0.00    +0.000 C 
BRANCH  15  16
ATOM     16  N   UNL     1      43.806   4.808   9.792  0.00  0.00    +0.000 N 
ATOM     17  C   UNL     1      44.734   4.042   9.105  0.00  0.00    +0.000 A 
ATOM     18  C   UNL     1      44.718   2.654   9.104  0.00  0.00    +0.000 A 
ATOM     19  C   UNL     1      45.668   1.955   8.365  0.00  0.00    +0.000 A 
ATOM     20  C   UNL     1      46.603   2.652   7.604  0.00  0.00    +0.000 A 
ATOM     21  C   UNL     1      46.537   4.036   7.644  0.00  0.00    +0.000 A 
ATOM     22  N   UNL     1      45.634   4.736   8.382  0.00  0.00    +0.000 NA
ATOM     23  H   UNL     1      44.210   5.739   9.854  0.00  0.00    +0.000 HD
BRANCH  20  24
ATOM     24  C   UNL     1      47.586   1.882   6.806  0.00  0.00    +0.000 C 
ATOM     25  N   UNL     1      48.662   2.525   6.265  0.00  0.00    +0.000 N 
ATOM     26  O   UNL     1      47.445   0.677   6.625  0.00  0.00    +0.000 OA
ATOM     27  H   UNL     1      48.874   3.508   6.349  0.00  0.00    +0.000 HD
ATOM     28  H   UNL     1      49.295   1.955   5.721  0.00  0.00    +0.000 HD
ENDBRANCH  20  24
ENDBRANCH  15  16
ENDBRANCH   1  15
TORSDOF 7
ENDMDL
MODEL 3
REMARK VINA RESULT:    -8.056      1.753      2.810
REMARK INTER + INTRA:         -12.316
REMARK INTER:                 -11.262
REMARK INTRA:                  -1.054
REMARK UNBOUND:                -0.963
REMARK  Name = 
REMARK  10 active torsions:
REMARK  status: ('A' for Active; 'I' for Inactive)
REMARK    1  A    between atoms: C_1  and  C_2
REMARK    2  A    between atoms: C_4  and  O_5
REMARK    3  A    between atoms: O_5  and  C_6
REMARK    4  A    between atoms: C_6  and  C_7
REMARK    5  A    between atoms: C_7  and  C_8
REMARK    6  A    between atoms: C_7  and  C_9
REMARK    7  A    between atoms: C_7  and  C_10
REMARK    8  A    between atoms: C_10  and  N_11
REMARK    9  A    between atoms: C_15  and  C_16
REMARK   10  A    between atoms: C_23  and  C_24
REMARK                            x       y       z     vdW  Elec       q    Type
REMARK                         _______ _______ _______ _____ _____    ______ ____
ROOT
ATOM      1  C   UNL     1      44.033   4.671  12.244  0.00  0.00    +0.000 C 
ATOM      2  C   UNL     1      45.052   3.548  12.530  0.00  0.00    +0.000 C 
ATOM      3  C   UNL     1      43.102   4.848  13.456  0.00  0.00    +0.000 C 
ENDROOT
BRANCH   1   4
ATOM      4  C   UNL     1      44.809   5.997  12.003  0.00  0.00    +0.000 C 
BRANCH   4   5
ATOM      5  O   UNL     1      46.179   5.708  11.698  0.00  0.00    +0.000 OA
BRANCH   5   9
ATOM      6  C   UNL     1      49.523   9.219  11.499  0.00  0.00    +0.000 C 
ATOM      7  C   UNL     1      48.828   8.145  12.292  0.00  0.00    +0.000 A 
ATOM      8  C   UNL     1      47.807   7.382  11.697  0.00  0.00    +0.000 A 
ATOM      9  C   UNL     1      47.146   6.368  12.403  0.00  0.00    +0.000 A 
ATOM     10  C   UNL     1      47.508   6.110  13.724  0.00  0.00    +0.000 A 
ATOM     11  C   UNL     1      48.520   6.861  14.333  0.00  0.00    +0.000 A 
ATOM     12  C   UNL     1      49.180   7.875  13.628  0.00  0.00    +0.000 A 
BRANCH  12  13
ATOM     13  C   UNL     1      50.211   8.624  14.293  0.00  0.00    +0.000 C 
ATOM     14  N   UNL     1      51.047   9.228  14.832  0.00  0.00    +0.000 NA
ENDBRANCH  12  13
ENDBRANCH   5   9
ENDBRANCH   4   5
ENDBRANCH   1   4
BRANCH   1  15
ATOM     15  C   UNL     1      43.212   4.343  10.973  0.00  0.00    +0.000 C 
BRANCH  15  16
ATOM     16  N   UNL     1      43.835   4.862   9.764  0.00  0.00    +0.000 N 
ATOM     17  C   UNL     1      44.750   4.074   9.083  0.00  0.00    +0.000 A 
ATOM     18  C   UNL     1      44.699   2.688   9.078  0.00  0.00    +0.000 A 
ATOM     19  C   UNL     1      45.638   1.966   8.346  0.00  0.00    +0.000 A 
ATOM     20  C   UNL     1      46.597   2.641   7.596  0.00  0.00    +0.000 A 
ATOM     21  C   UNL     1      46.566   4.026   7.639  0.00  0.00    +0.000 A 
ATOM     22  N   UNL     1      45.674   4.747   8.370  0.00  0.00    +0.000 NA
ATOM     23  H   UNL     1      44.263   5.783   9.832  0.00  0.00    +0.000 HD
BRANCH  20  24
ATOM     24  C   UNL     1      47.567   1.848   6.805  0.00  0.00    +0.000 C 
ATOM     25  N   UNL     1      48.695   2.452   6.326  0.00  0.00    +0.000 N 
ATOM     26  O   UNL     1      47.371   0.660   6.575  0.00  0.00    +0.000 OA
ATOM     27  H   UNL     1      48.954   3.418   6.454  0.00  0.00    +0.000 HD
ATOM     28  H   UNL     1      49.317   1.868   5.783  0.00  0.00    +0.000 HD
ENDBRANCH  20  24
ENDBRANCH  15  16
ENDBRANCH   1  15
TORSDOF 7
ENDMDL
MODEL 4
REMARK VINA RESULT:    -7.569      2.485      7.828
REMARK INTER + INTRA:         -11.629
REMARK INTER:                 -10.780
REMARK INTRA:                  -0.850
REMARK UNBOUND:                -0.963
REMARK  Name = 
REMARK  10 active torsions:
REMARK  status: ('A' for Active; 'I' for Inactive)
REMARK    1  A    between atoms: C_1  and  C_2
REMARK    2  A    between atoms: C_4  and  O_5
REMARK    3  A    between atoms: O_5  and  C_6
REMARK    4  A    between atoms: C_6  and  C_7
REMARK    5  A    between atoms: C_7  and  C_8
REMARK    6  A    between atoms: C_7  and  C_9
REMARK    7  A    between atoms: C_7  and  C_10
REMARK    8  A    between atoms: C_10  and  N_11
REMARK    9  A    between atoms: C_15  and  C_16
REMARK   10  A    between atoms: C_23  and  C_24
REMARK                            x       y       z     vdW  Elec       q    Type
REMARK                         _______ _______ _______ _____ _____    ______ ____
ROOT
ATOM      1  C   UNL     1      44.094   4.323  12.125  0.00  0.00    +0.000 C 
ATOM      2  C   UNL     1      43.329   5.367  12.965  0.00  0.00    +0.000 C 
ATOM      3  C   UNL     1      43.764   2.908  12.630  0.00  0.00    +0.000 C 
ENDROOT
BRANCH   1   4
ATOM      4  C   UNL     1      43.643   4.451  10.642  0.00  0.00    +0.000 C 
BRANCH   4   5
ATOM      5  O   UNL     1      43.757   3.180   9.990  0.00  0.00    +0.000 OA
BRANCH   5   9
ATOM      6  C   UNL     1      46.674   0.009   7.760  0.00  0.00    +0.000 C 
ATOM      7  C   UNL     1      46.185   1.424   7.910  0.00  0.00    +0.000 A 
ATOM      8  C   UNL     1      45.191   1.727   8.858  0.00  0.00    +0.000 A 
ATOM      9  C   UNL     1      44.720   3.035   9.031  0.00  0.00    +0.000 A 
ATOM     10  C   UNL     1      45.247   4.058   8.246  0.00  0.00    +0.000 A 
ATOM     11  C   UNL     1      46.234   3.775   7.296  0.00  0.00    +0.000 A 
ATOM     12  C   UNL     1      46.705   2.468   7.122  0.00  0.00    +0.000 A 
BRANCH  12  13
ATOM     13  C   UNL     1      47.718   2.222   6.133  0.00  0.00    +0.000 C 
ATOM     14  N   UNL     1      48.538   2.023   5.330  0.00  0.00    +0.000 NA
ENDBRANCH  12  13
ENDBRANCH   5   9
ENDBRANCH   4   5
ENDBRANCH   1   4
BRANCH   1  15
ATOM     15  C   UNL     1      45.619   4.583  12.199  0.00  0.00    +0.000 C 
BRANCH  15  16
ATOM     16  N   UNL     1      46.036   5.054  13.512  0.00  0.00    +0.000 N 
ATOM     17  C   UNL     1      47.208   5.784  13.629  0.00  0.00    +0.000 A 
ATOM     18  C   UNL     1      47.697   6.596  12.615  0.00  0.00    +0.000 A 
ATOM     19  C   UNL     1      48.868   7.321  12.818  0.00  0.00    +0.000 A 
ATOM     20  C   UNL     1      49.517   7.256  14.048  0.00  0.00    +0.000 A 
ATOM     21  C   UNL     1      48.951   6.439  15.013  0.00  0.00    +0.000 A 
ATOM     22  N   UNL     1      47.824   5.701  14.823  0.00  0.00    +0.000 NA
ATOM     23  H   UNL     1      46.071   4.358  14.254  0.00  0.00    +0.000 HD
BRANCH  20  24
ATOM     24  C   UNL     1      50.746   8.060  14.245  0.00  0.00    +0.000 C 
ATOM     25  N   UNL     1      51.441   7.948  15.416  0.00  0.00    +0.000 N 
ATOM     26  O   UNL     1      51.146   8.825  13.373  0.00  0.00    +0.000 OA
ATOM     27  H   UNL     1      51.203   7.355  16.196  0.00  0.00    +0.000 HD
ATOM     28  H   UNL     1      52.265   8.527  15.502  0.00  0.00    +0.000 HD
ENDBRANCH  20  24
ENDBRANCH  15  16
ENDBRANCH   1  15
TORSDOF 7
ENDMDL
MODEL 5
REMARK VINA RESULT:    -6.952      2.443      8.298
REMARK INTER + INTRA:         -10.759
REMARK INTER:                  -9.954
REMARK INTRA:                  -0.805
REMARK UNBOUND:                -0.963
REMARK  Name = 
REMARK  10 active torsions:
REMARK  status: ('A' for Active; 'I' for Inactive)
REMARK    1  A    between atoms: C_1  and  C_2
REMARK    2  A    between atoms: C_4  and  O_5
REMARK    3  A    between atoms: O_5  and  C_6
REMARK    4  A    between atoms: C_6  and  C_7
REMARK    5  A    between atoms: C_7  and  C_8
REMARK    6  A    between atoms: C_7  and  C_9
REMARK    7  A    between atoms: C_7  and  C_10
REMARK    8  A    between atoms: C_10  and  N_11
REMARK    9  A    between atoms: C_15  and  C_16
REMARK   10  A    between atoms: C_23  and  C_24
REMARK                            x       y       z     vdW  Elec       q    Type
REMARK                         _______ _______ _______ _____ _____    ______ ____
ROOT
ATOM      1  C   UNL     1      45.042   6.249  11.996  0.00  0.00    +0.000 C 
ATOM      2  C   UNL     1      45.304   7.673  12.527  0.00  0.00    +0.000 C 
ATOM      3  C   UNL     1      43.529   6.028  11.826  0.00  0.00    +0.000 C 
ENDROOT
BRANCH   1   4
ATOM      4  C   UNL     1      45.735   6.098  10.612  0.00  0.00    +0.000 C 
BRANCH   4   5
ATOM      5  O   UNL     1      44.853   5.436   9.697  0.00  0.00    +0.000 OA
BRANCH   5   9
ATOM      6  C   UNL     1      47.336   2.961   6.344  0.00  0.00    +0.000 C 
ATOM      7  C   UNL     1      46.460   2.948   7.567  0.00  0.00    +0.000 A 
ATOM      8  C   UNL     1      46.024   4.162   8.131  0.00  0.00    +0.000 A 
ATOM      9  C   UNL     1      45.199   4.187   9.263  0.00  0.00    +0.000 A 
ATOM     10  C   UNL     1      44.801   2.985   9.843  0.00  0.00    +0.000 A 
ATOM     11  C   UNL     1      45.227   1.769   9.298  0.00  0.00    +0.000 A 
ATOM     12  C   UNL     1      46.052   1.742   8.167  0.00  0.00    +0.000 A 
BRANCH  12  13
ATOM     13  C   UNL     1      46.468   0.471   7.641  0.00  0.00    +0.000 C 
ATOM     14  N   UNL     1      46.807  -0.558   7.216  0.00  0.00    +0.000 NA
ENDBRANCH  12  13
ENDBRANCH   5   9
ENDBRANCH   4   5
ENDBRANCH   1   4
BRANCH   1  15
ATOM     15  C   UNL     1      45.639   5.195  12.961  0.00  0.00    +0.000 C 
BRANCH  15  16
ATOM     16  N   UNL     1      46.989   5.537  13.386  0.00  0.00    +0.000 N 
ATOM     17  C   UNL     1      47.397   5.209  14.669  0.00  0.00    +0.000 A 
ATOM     18  C   UNL     1      46.903   4.114  15.364  0.00  0.00    +0.000 A 
ATOM     19  C   UNL     1      47.384   3.834  16.641  0.00  0.00    +0.000 A 
ATOM     20  C   UNL     1      48.382   4.632  17.194  0.00  0.00    +0.000 A 
ATOM     21  C   UNL     1      48.834   5.693  16.426  0.00  0.00    +0.000 A 
ATOM     22  N   UNL     1      48.357   5.998  15.189  0.00  0.00    +0.000 NA
ATOM     23  H   UNL     1      47.279   6.501  13.243  0.00  0.00    +0.000 HD
BRANCH  20  24
ATOM     24  C   UNL     1      48.895   4.294  18.543  0.00  0.00    +0.000 C 
ATOM     25  N   UNL     1      48.455   3.160  19.163  0.00  0.00    +0.000 N 
ATOM     26  O   UNL     1      49.706   5.020  19.109  0.00  0.00    +0.000 OA
ATOM     27  H   UNL     1      47.793   2.496  18.792  0.00  0.00    +0.000 HD
ATOM     28  H   UNL     1      48.828   2.983  20.085  0.00  0.00    +0.000 HD
ENDBRANCH  20  24
ENDBRANCH  15  16
ENDBRANCH   1  15
TORSDOF 7
ENDMDL
MODEL 6
REMARK VINA RESULT:    -6.871      2.209      8.094
REMARK INTER + INTRA:         -10.646
REMARK INTER:                  -9.993
REMARK INTRA:                  -0.653
REMARK UNBOUND:                -0.963
REMARK  Name = 
REMARK  10 active torsions:
REMARK  status: ('A' for Active; 'I' for Inactive)
REMARK    1  A    between atoms: C_1  and  C_2
REMARK    2  A    between atoms: C_4  and  O_5
REMARK    3  A    between atoms: O_5  and  C_6
REMARK    4  A    between atoms: C_6  and  C_7
REMARK    5  A    between atoms: C_7  and  C_8
REMARK    6  A    between atoms: C_7  and  C_9
REMARK    7  A    between atoms: C_7  and  C_10
REMARK    8  A    between atoms: C_10  and  N_11
REMARK    9  A    between atoms: C_15  and  C_16
REMARK   10  A    between atoms: C_23  and  C_24
REMARK                            x       y       z     vdW  Elec       q    Type
REMARK                         _______ _______ _______ _____ _____    ______ ____
ROOT
ATOM      1  C   UNL     1      44.242   4.305  12.248  0.00  0.00    +0.000 C 
ATOM      2  C   UNL     1      44.095   5.656  12.978  0.00  0.00    +0.000 C 
ATOM      3  C   UNL     1      43.374   3.242  12.943  0.00  0.00    +0.000 C 
ENDROOT
BRANCH   1   4
ATOM      4  C   UNL     1      43.756   4.476  10.780  0.00  0.00    +0.000 C 
BRANCH   4   5
ATOM      5  O   UNL     1      43.812   3.216  10.101  0.00  0.00    +0.000 OA
BRANCH   5   9
ATOM      6  C   UNL     1      46.643   0.012   7.807  0.00  0.00    +0.000 C 
ATOM      7  C   UNL     1      46.169   1.431   7.963  0.00  0.00    +0.000 A 
ATOM      8  C   UNL     1      45.203   1.746   8.937  0.00  0.00    +0.000 A 
ATOM      9  C   UNL     1      44.747   3.059   9.116  0.00  0.00    +0.000 A 
ATOM     10  C   UNL     1      45.260   4.075   8.312  0.00  0.00    +0.000 A 
ATOM     11  C   UNL     1      46.218   3.779   7.337  0.00  0.00    +0.000 A 
ATOM     12  C   UNL     1      46.675   2.468   7.157  0.00  0.00    +0.000 A 
BRANCH  12  13
ATOM     13  C   UNL     1      47.658   2.209   6.141  0.00  0.00    +0.000 C 
ATOM     14  N   UNL     1      48.455   2.001   5.318  0.00  0.00    +0.000 NA
ENDBRANCH  12  13
ENDBRANCH   5   9
ENDBRANCH   4   5
ENDBRANCH   1   4
BRANCH   1  15
ATOM     15  C   UNL     1      45.726   3.862  12.225  0.00  0.00    +0.000 C 
BRANCH  15  16
ATOM     16  N   UNL     1      46.609   4.858  12.816  0.00  0.00    +0.000 N 
ATOM     17  C   UNL     1      47.117   4.641  14.087  0.00  0.00    +0.000 A 
ATOM     18  C   UNL     1      47.358   3.375  14.600  0.00  0.00    +0.000 A 
ATOM     19  C   UNL     1      47.898   3.240  15.876  0.00  0.00    +0.000 A 
ATOM     20  C   UNL     1      48.226   4.375  16.612  0.00  0.00    +0.000 A 
ATOM     21  C   UNL     1      47.973   5.601  16.019  0.00  0.00    +0.000 A 
ATOM     22  N   UNL     1      47.420   5.753  14.785  0.00  0.00    +0.000 NA
ATOM     23  H   UNL     1      46.275   5.819  12.814  0.00  0.00    +0.000 HD
BRANCH  20  24
ATOM     24  C   UNL     1      48.824   4.202  17.957  0.00  0.00    +0.000 C 
ATOM     25  N   UNL     1      49.899   4.963  18.316  0.00  0.00    +0.000 N 
ATOM     26  O   UNL     1      48.367   3.384  18.749  0.00  0.00    +0.000 OA
ATOM     27  H   UNL     1      50.353   5.661  17.747  0.00  0.00    +0.000 HD
ATOM     28  H   UNL     1      50.274   4.797  19.240  0.00  0.00    +0.000 HD
ENDBRANCH  20  24
ENDBRANCH  15  16
ENDBRANCH   1  15
TORSDOF 7
ENDMDL
MODEL 7
REMARK VINA RESULT:    -6.548      3.221      4.735
REMARK INTER + INTRA:         -10.190
REMARK INTER:                  -8.624
REMARK INTRA:                  -1.566
REMARK UNBOUND:                -0.963
REMARK  Name = 
REMARK  10 active torsions:
REMARK  status: ('A' for Active; 'I' for Inactive)
REMARK    1  A    between atoms: C_1  and  C_2
REMARK    2  A    between atoms: C_4  and  O_5
REMARK    3  A    between atoms: O_5  and  C_6
REMARK    4  A    between atoms: C_6  and  C_7
REMARK    5  A    between atoms: C_7  and  C_8
REMARK    6  A    between atoms: C_7  and  C_9
REMARK    7  A    between atoms: C_7  and  C_10
REMARK    8  A    between atoms: C_10  and  N_11
REMARK    9  A    between atoms: C_15  and  C_16
REMARK   10  A    between atoms: C_23  and  C_24
REMARK                            x       y       z     vdW  Elec       q    Type
REMARK                         _______ _______ _______ _____ _____    ______ ____
ROOT
ATOM      1  C   UNL     1      47.925   9.380  12.586  0.00  0.00    +0.000 C 
ATOM      2  C   UNL     1      48.279  10.853  12.298  0.00  0.00    +0.000 C 
ATOM      3  C   UNL     1      48.824   8.456  11.745  0.00  0.00    +0.000 C 
ENDROOT
BRANCH   1   4
ATOM      4  C   UNL     1      48.173   9.094  14.094  0.00  0.00    +0.000 C 
BRANCH   4   5
ATOM      5  O   UNL     1      49.057   7.975  14.237  0.00  0.00    +0.000 OA
BRANCH   5   9
ATOM      6  C   UNL     1      46.900   3.629  14.200  0.00  0.00    +0.000 C 
ATOM      7  C   UNL     1      47.559   4.733  14.982  0.00  0.00    +0.000 A 
ATOM      8  C   UNL     1      48.037   5.877  14.316  0.00  0.00    +0.000 A 
ATOM      9  C   UNL     1      48.646   6.928  15.014  0.00  0.00    +0.000 A 
ATOM     10  C   UNL     1      48.783   6.838  16.397  0.00  0.00    +0.000 A 
ATOM     11  C   UNL     1      48.317   5.707  17.076  0.00  0.00    +0.000 A 
ATOM     12  C   UNL     1      47.708   4.656  16.380  0.00  0.00    +0.000 A 
BRANCH  12  13
ATOM     13  C   UNL     1      47.246   3.512  17.116  0.00  0.00    +0.000 C 
ATOM     14  N   UNL     1      46.871   2.586  17.714  0.00  0.00    +0.000 NA
ENDBRANCH  12  13
ENDBRANCH   5   9
ENDBRANCH   4   5
ENDBRANCH   1   4
BRANCH   1  15
ATOM     15  C   UNL     1      46.432   9.112  12.274  0.00  0.00    +0.000 C 
BRANCH  15  16
ATOM     16  N   UNL     1      45.867   8.075  13.125  0.00  0.00    +0.000 N 
ATOM     17  C   UNL     1      45.386   6.912  12.546  0.00  0.00    +0.000 A 
ATOM     18  C   UNL     1      45.897   6.385  11.368  0.00  0.00    +0.000 A 
ATOM     19  C   UNL     1      45.379   5.196  10.863  0.00  0.00    +0.000 A 
ATOM     20  C   UNL     1      44.379   4.526  11.561  0.00  0.00    +0.000 A 
ATOM     21  C   UNL     1      43.938   5.109  12.739  0.00  0.00    +0.000 A 
ATOM     22  N   UNL     1      44.413   6.284  13.233  0.00  0.00    +0.000 NA
ATOM     23  H   UNL     1      45.152   8.369  13.786  0.00  0.00    +0.000 HD
BRANCH  20  24
ATOM     24  C   UNL     1      43.865   3.248  11.014  0.00  0.00    +0.000 C 
ATOM     25  N   UNL     1      43.412   2.286  11.871  0.00  0.00    +0.000 N 
ATOM     26  O   UNL     1      43.842   3.044   9.805  0.00  0.00    +0.000 OA
ATOM     27  H   UNL     1      43.386   2.347  12.877  0.00  0.00    +0.000 HD
ATOM     28  H   UNL     1      43.082   1.430  11.445  0.00  0.00    +0.000 HD
ENDBRANCH  20  24
ENDBRANCH  15  16
ENDBRANCH   1  15
TORSDOF 7
ENDMDL
MODEL 8
REMARK VINA RESULT:    -6.385      4.033      6.364
REMARK INTER + INTRA:          -9.961
REMARK INTER:                  -9.009
REMARK INTRA:                  -0.952
REMARK UNBOUND:                -0.963
REMARK  Name = 
REMARK  10 active torsions:
REMARK  status: ('A' for Active; 'I' for Inactive)
REMARK    1  A    between atoms: C_1  and  C_2
REMARK    2  A    between atoms: C_4  and  O_5
REMARK    3  A    between atoms: O_5  and  C_6
REMARK    4  A    between atoms: C_6  and  C_7
REMARK    5  A    between atoms: C_7  and  C_8
REMARK    6  A    between atoms: C_7  and  C_9
REMARK    7  A    between atoms: C_7  and  C_10
REMARK    8  A    between atoms: C_10  and  N_11
REMARK    9  A    between atoms: C_15  and  C_16
REMARK   10  A    between atoms: C_23  and  C_24
REMARK                            x       y       z     vdW  Elec       q    Type
REMARK                         _______ _______ _______ _____ _____    ______ ____
ROOT
ATOM      1  C   UNL     1      47.740   4.437  17.574  0.00  0.00    +0.000 C 
ATOM      2  C   UNL     1      47.198   2.993  17.596  0.00  0.00    +0.000 C 
ATOM      3  C   UNL     1      46.870   5.331  18.475  0.00  0.00    +0.000 C 
ENDROOT
BRANCH   1   4
ATOM      4  C   UNL     1      49.196   4.430  18.119  0.00  0.00    +0.000 C 
BRANCH   4   5
ATOM      5  O   UNL     1      50.101   4.032  17.081  0.00  0.00    +0.000 OA
BRANCH   5   9
ATOM      6  C   UNL     1      54.600   3.526  18.824  0.00  0.00    +0.000 C 
ATOM      7  C   UNL     1      53.351   2.888  18.280  0.00  0.00    +0.000 A 
ATOM      8  C   UNL     1      52.254   3.691  17.914  0.00  0.00    +0.000 A 
ATOM      9  C   UNL     1      51.080   3.131  17.395  0.00  0.00    +0.000 A 
ATOM     10  C   UNL     1      50.995   1.749  17.237  0.00  0.00    +0.000 A 
ATOM     11  C   UNL     1      52.074   0.936  17.598  0.00  0.00    +0.000 A 
ATOM     12  C   UNL     1      53.249   1.494  18.117  0.00  0.00    +0.000 A 
BRANCH  12  13
ATOM     13  C   UNL     1      54.332   0.621  18.478  0.00  0.00    +0.000 C 
ATOM     14  N   UNL     1      55.208  -0.088  18.768  0.00  0.00    +0.000 NA
ENDBRANCH  12  13
ENDBRANCH   5   9
ENDBRANCH   4   5
ENDBRANCH   1   4
BRANCH   1  15
ATOM     15  C   UNL     1      47.759   4.983  16.125  0.00  0.00    +0.000 C 
BRANCH  15  16
ATOM     16  N   UNL     1      47.518   3.941  15.138  0.00  0.00    +0.000 N 
ATOM     17  C   UNL     1      46.803   4.247  13.991  0.00  0.00    +0.000 A 
ATOM     18  C   UNL     1      46.805   5.509  13.413  0.00  0.00    +0.000 A 
ATOM     19  C   UNL     1      46.083   5.732  12.243  0.00  0.00    +0.000 A 
ATOM     20  C   UNL     1      45.397   4.679  11.643  0.00  0.00    +0.000 A 
ATOM     21  C   UNL     1      45.464   3.447  12.273  0.00  0.00    +0.000 A 
ATOM     22  N   UNL     1      46.140   3.217  13.431  0.00  0.00    +0.000 NA
ATOM     23  H   UNL     1      47.122   3.070  15.485  0.00  0.00    +0.000 HD
BRANCH  20  24
ATOM     24  C   UNL     1      44.660   4.938  10.384  0.00  0.00    +0.000 C 
ATOM     25  N   UNL     1      45.351   5.309   9.266  0.00  0.00    +0.000 N 
ATOM     26  O   UNL     1      43.439   4.826  10.334  0.00  0.00    +0.000 OA
ATOM     27  H   UNL     1      46.349   5.431   9.196  0.00  0.00    +0.000 HD
ATOM     28  H   UNL     1      44.798   5.484   8.438  0.00  0.00    +0.000 HD
ENDBRANCH  20  24
ENDBRANCH  15  16
ENDBRANCH   1  15
TORSDOF 7
ENDMDL
MODEL 9
REMARK VINA RESULT:    -6.335      3.137      7.921
REMARK INTER + INTRA:          -9.891
REMARK INTER:                  -8.781
REMARK INTRA:                  -1.110
REMARK UNBOUND:                -0.963
REMARK  Name = 
REMARK  10 active torsions:
REMARK  status: ('A' for Active; 'I' for Inactive)
REMARK    1  A    between atoms: C_1  and  C_2
REMARK    2  A    between atoms: C_4  and  O_5
REMARK    3  A    between atoms: O_5  and  C_6
REMARK    4  A    between atoms: C_6  and  C_7
REMARK    5  A    between atoms: C_7  and  C_8
REMARK    6  A    between atoms: C_7  and  C_9
REMARK    7  A    between atoms: C_7  and  C_10
REMARK    8  A    between atoms: C_10  and  N_11
REMARK    9  A    between atoms: C_15  and  C_16
REMARK   10  A    between atoms: C_23  and  C_24
REMARK                            x       y       z     vdW  Elec       q    Type
REMARK                         _______ _______ _______ _____ _____    ______ ____
ROOT
ATOM      1  C   UNL     1      49.139   8.616  12.625  0.00  0.00    +0.000 C 
ATOM      2  C   UNL     1      50.654   8.339  12.531  0.00  0.00    +0.000 C 
ATOM      3  C   UNL     1      48.825   9.992  12.013  0.00  0.00    +0.000 C 
ENDROOT
BRANCH   1   4
ATOM      4  C   UNL     1      48.382   7.519  11.822  0.00  0.00    +0.000 C 
BRANCH   4   5
ATOM      5  O   UNL     1      46.969   7.739  11.915  0.00  0.00    +0.000 OA
BRANCH   5   9
ATOM      6  C   UNL     1      45.005   4.219   9.215  0.00  0.00    +0.000 C 
ATOM      7  C   UNL     1      45.167   4.871  10.561  0.00  0.00    +0.000 A 
ATOM      8  C   UNL     1      45.985   6.008  10.698  0.00  0.00    +0.000 A 
ATOM      9  C   UNL     1      46.150   6.645  11.934  0.00  0.00    +0.000 A 
ATOM     10  C   UNL     1      45.491   6.142  13.054  0.00  0.00    +0.000 A 
ATOM     11  C   UNL     1      44.677   5.010  12.938  0.00  0.00    +0.000 A 
ATOM     12  C   UNL     1      44.511   4.372  11.703  0.00  0.00    +0.000 A 
BRANCH  12  13
ATOM     13  C   UNL     1      43.668   3.211  11.629  0.00  0.00    +0.000 C 
ATOM     14  N   UNL     1      42.983   2.271  11.570  0.00  0.00    +0.000 NA
ENDBRANCH  12  13
ENDBRANCH   5   9
ENDBRANCH   4   5
ENDBRANCH   1   4
BRANCH   1  15
ATOM     15  C   UNL     1      48.670   8.558  14.099  0.00  0.00    +0.000 C 
BRANCH  15  16
ATOM     16  N   UNL     1      49.569   7.773  14.934  0.00  0.00    +0.000 N 
ATOM     17  C   UNL     1      49.064   6.696  15.644  0.00  0.00    +0.000 A 
ATOM     18  C   UNL     1      47.981   5.944  15.211  0.00  0.00    +0.000 A 
ATOM     19  C   UNL     1      47.550   4.857  15.967  0.00  0.00    +0.000 A 
ATOM     20  C   UNL     1      48.231   4.511  17.131  0.00  0.00    +0.000 A 
ATOM     21  C   UNL     1      49.314   5.301  17.482  0.00  0.00    +0.000 A 
ATOM     22  N   UNL     1      49.733   6.383  16.771  0.00  0.00    +0.000 NA
ATOM     23  H   UNL     1      50.145   8.292  15.593  0.00  0.00    +0.000 HD
BRANCH  20  24
ATOM     24  C   UNL     1      47.767   3.334  17.902  0.00  0.00    +0.000 C 
ATOM     25  N   UNL     1      48.431   2.972  19.039  0.00  0.00    +0.000 N 
ATOM     26  O   UNL     1      46.797   2.681  17.531  0.00  0.00    +0.000 OA
ATOM     27  H   UNL     1      49.236   3.434  19.432  0.00  0.00    +0.000 HD
ATOM     28  H   UNL     1      48.079   2.155  19.520  0.00  0.00    +0.000 HD
ENDBRANCH  20  24
ENDBRANCH  15  16
ENDBRANCH   1  15
TORSDOF 7
ENDMDL
