MODEL 1
REMARK VINA RESULT:    -8.022      0.000      0.000
REMARK INTER + INTRA:          -9.787
REMARK INTER:                  -9.428
REMARK INTRA:                  -0.359
REMARK UNBOUND:                -0.359
REMARK  Name = 
REMARK  3 active torsions:
REMARK  status: ('A' for Active; 'I' for Inactive)
REMARK    1  A    between atoms: C_2  and  C_4
REMARK    2  A    between atoms: N_8  and  C_9
REMARK    3  A    between atoms: C_9  and  C_10
REMARK                            x       y       z     vdW  Elec       q    Type
REMARK                         _______ _______ _______ _____ _____    ______ ____
ROOT
ATOM      1  C   UNL     1      46.503   2.603   7.403  0.00  0.00    +0.000 A 
ATOM      2  C   UNL     1      45.891   1.617   8.169  0.00  0.00    +0.000 A 
ATOM      3  C   UNL     1      44.966   1.995   9.142  0.00  0.00    +0.000 A 
ATOM      4  C   UNL     1      44.687   3.345   9.350  0.00  0.00    +0.000 A 
ATOM      5  N   UNL     1      43.839   3.672  10.402  0.00  0.00    +0.000 N 
ATOM      6  N   UNL     1      45.280   4.306   8.619  0.00  0.00    +0.000 NA
ATOM      7  C   UNL     1      46.170   3.923   7.666  0.00  0.00    +0.000 A 
ATOM      8  H   UNL     1      42.926   3.241  10.310  0.00  0.00    +0.000 HD
ENDROOT
BRANCH   1  10
ATOM      9  N   UNL     1      47.484   3.091   5.233  0.00  0.00    +0.000 N 
ATOM     10  C   UNL     1      47.507   2.313   6.357  0.00  0.00    +0.000 C 
ATOM     11  O   UNL     1      48.347   1.436   6.502  0.00  0.00    +0.000 OA
ATOM     12  H   UNL     1      48.234   2.943   4.570  0.00  0.00    +0.000 HD
ATOM     13  H   UNL     1      46.970   3.961   5.174  0.00  0.00    +0.000 HD
ENDBRANCH   1  10
BRANCH   5  14
ATOM     14  C   UNL     1      43.803   5.050  10.858  0.00  0.00    +0.000 C 
BRANCH  14  15
ATOM     15  C   UNL     1      44.928   5.232  11.846  0.00  0.00    +0.000 A 
ATOM     16  C   UNL     1      44.937   4.494  13.031  0.00  0.00    +0.000 A 
ATOM     17  N   UNL     1      45.894   4.587  13.983  0.00  0.00    +0.000 NA
ATOM     18  C   UNL     1      46.900   5.455  13.739  0.00  0.00    +0.000 A 
ATOM     19  C   UNL     1      46.991   6.223  12.588  0.00  0.00    +0.000 A 
ATOM     20 BR   UNL     1      48.442   7.401  12.333  0.00  0.00    +0.000 Br
ATOM     21  C   UNL     1      45.992   6.110  11.624  0.00  0.00    +0.000 A 
ENDBRANCH  14  15
ENDBRANCH   5  14
TORSDOF 3
ENDMDL
MODEL 2
REMARK VINA RESULT:    -7.277      3.341      6.305
REMARK INTER + INTRA:          -8.912
REMARK INTER:                  -8.512
REMARK INTRA:                  -0.400
REMARK UNBOUND:                -0.359
REMARK  Name = 
REMARK  3 active torsions:
REMARK  status: ('A' for Active; 'I' for Inactive)
REMARK    1  A    between atoms: C_2  and  C_4
REMARK    2  A    between atoms: N_8  and  C_9
REMARK    3  A    between atoms: C_9  and  C_10
REMARK                            x       y       z     vdW  Elec       q    Type
REMARK                         _______ _______ _______ _____ _____    ______ ____
ROOT
ATOM      1  C   UNL     1      46.745   5.222  13.555  0.00  0.00    +0.000 A 
ATOM      2  C   UNL     1      47.207   6.151  12.629  0.00  0.00    +0.000 A 
ATOM      3  C   UNL     1      46.557   6.258  11.400  0.00  0.00    +0.000 A 
ATOM      4  C   UNL     1      45.481   5.423  11.106  0.00  0.00    +0.000 A 
ATOM      5  N   UNL     1      44.938   5.497   9.828  0.00  0.00    +0.000 N 
ATOM      6  N   UNL     1      45.032   4.515  11.993  0.00  0.00    +0.000 NA
ATOM      7  C   UNL     1      45.667   4.431  13.193  0.00  0.00    +0.000 A 
ATOM      8  H   UNL     1      44.600   6.426   9.607  0.00  0.00    +0.000 HD
ENDROOT
BRANCH   1  10
ATOM      9  N   UNL     1      46.851   4.030  15.671  0.00  0.00    +0.000 N 
ATOM     10  C   UNL     1      47.369   5.018  14.881  0.00  0.00    +0.000 C 
ATOM     11  O   UNL     1      48.330   5.680  15.245  0.00  0.00    +0.000 OA
ATOM     12  H   UNL     1      47.345   3.840  16.533  0.00  0.00    +0.000 HD
ATOM     13  H   UNL     1      46.222   3.316  15.324  0.00  0.00    +0.000 HD
ENDBRANCH   1  10
BRANCH   5  14
ATOM     14  C   UNL     1      44.066   4.424   9.384  0.00  0.00    +0.000 C 
BRANCH  14  15
ATOM     15  C   UNL     1      44.932   3.372   8.738  0.00  0.00    +0.000 A 
ATOM     16  C   UNL     1      44.970   2.082   9.269  0.00  0.00    +0.000 A 
ATOM     17  N   UNL     1      45.717   1.069   8.770  0.00  0.00    +0.000 NA
ATOM     18  C   UNL     1      46.460   1.355   7.679  0.00  0.00    +0.000 A 
ATOM     19  C   UNL     1      46.481   2.599   7.067  0.00  0.00    +0.000 A 
ATOM     20 BR   UNL     1      47.544   2.898   5.538  0.00  0.00    +0.000 Br
ATOM     21  C   UNL     1      45.705   3.625   7.602  0.00  0.00    +0.000 A 
ENDBRANCH  14  15
ENDBRANCH   5  14
TORSDOF 3
ENDMDL
MODEL 3
REMARK VINA RESULT:    -6.722      3.452      6.322
REMARK INTER + INTRA:          -8.260
REMARK INTER:                  -7.943
REMARK INTRA:                  -0.317
REMARK UNBOUND:                -0.359
REMARK  Name = 
REMARK  3 active torsions:
REMARK  status: ('A' for Active; 'I' for Inactive)
REMARK    1  A    between atoms: C_2  and  C_4
REMARK    2  A    between atoms: N_8  and  C_9
REMARK    3  A    between atoms: C_9  and  C_10
REMARK                            x       y       z     vdW  Elec       q    Type
REMARK                         _______ _______ _______ _____ _____    ______ ____
ROOT
ATOM      1  C   UNL     1      46.403   6.692  12.655  0.00  0.00    +0.000 A 
ATOM      2  C   UNL     1      45.491   5.830  13.253  0.00  0.00    +0.000 A 
ATOM      3  C   UNL     1      44.833   4.889  12.461  0.00  0.00    +0.000 A 
ATOM      4  C   UNL     1      45.073   4.844  11.089  0.00  0.00    +0.000 A 
ATOM      5  N   UNL     1      44.313   3.961  10.331  0.00  0.00    +0.000 N 
ATOM      6  N   UNL     1      45.947   5.680  10.500  0.00  0.00    +0.000 NA
ATOM      7  C   UNL     1      46.592   6.583  11.287  0.00  0.00    +0.000 A 
ATOM      8  H   UNL     1      44.421   3.000  10.635  0.00  0.00    +0.000 HD
ENDROOT
BRANCH   1  10
ATOM      9  N   UNL     1      46.443   8.839  13.794  0.00  0.00    +0.000 N 
ATOM     10  C   UNL     1      47.144   7.734  13.399  0.00  0.00    +0.000 C 
ATOM     11  O   UNL     1      48.327   7.602  13.679  0.00  0.00    +0.000 OA
ATOM     12  H   UNL     1      46.939   9.498  14.381  0.00  0.00    +0.000 HD
ATOM     13  H   UNL     1      45.432   8.883  13.791  0.00  0.00    +0.000 HD
ENDBRANCH   1  10
BRANCH   5  14
ATOM     14  C   UNL     1      44.289   4.131   8.889  0.00  0.00    +0.000 C 
BRANCH  14  15
ATOM     15  C   UNL     1      45.209   3.095   8.294  0.00  0.00    +0.000 A 
ATOM     16  C   UNL     1      45.280   1.821   8.861  0.00  0.00    +0.000 A 
ATOM     17  N   UNL     1      46.076   0.824   8.409  0.00  0.00    +0.000 NA
ATOM     18  C   UNL     1      46.835   1.108   7.328  0.00  0.00    +0.000 A 
ATOM     19  C   UNL     1      46.827   2.335   6.683  0.00  0.00    +0.000 A 
ATOM     20 BR   UNL     1      47.917   2.632   5.173  0.00  0.00    +0.000 Br
ATOM     21  C   UNL     1      46.001   3.345   7.170  0.00  0.00    +0.000 A 
ENDBRANCH  14  15
ENDBRANCH   5  14
TORSDOF 3
ENDMDL
MODEL 4
REMARK VINA RESULT:    -6.476      3.922      5.896
REMARK INTER + INTRA:          -7.970
REMARK INTER:                  -7.638
REMARK INTRA:                  -0.332
REMARK UNBOUND:                -0.359
REMARK  Name = 
REMARK  3 active torsions:
REMARK  status: ('A' for Active; 'I' for Inactive)
REMARK    1  A    between atoms: C_2  and  C_4
REMARK    2  A    between atoms: N_8  and  C_9
REMARK    3  A    between atoms: C_9  and  C_10
REMARK                            x       y       z     vdW  Elec       q    Type
REMARK                         _______ _______ _______ _____ _____    ______ ____
ROOT
ATOM      1  C   UNL     1      45.276   4.493  11.548  0.00  0.00    +0.000 A 
ATOM      2  C   UNL     1      45.916   5.703  11.797  0.00  0.00    +0.000 A 
ATOM      3  C   UNL     1      46.627   5.857  12.987  0.00  0.00    +0.000 A 
ATOM      4  C   UNL     1      46.664   4.818  13.915  0.00  0.00    +0.000 A 
ATOM      5  N   UNL     1      47.295   5.062  15.130  0.00  0.00    +0.000 N 
ATOM      6  N   UNL     1      46.041   3.648  13.686  0.00  0.00    +0.000 NA
ATOM      7  C   UNL     1      45.364   3.506  12.516  0.00  0.00    +0.000 A 
ATOM      8  H   UNL     1      48.267   5.327  15.013  0.00  0.00    +0.000 HD
ENDROOT
BRANCH   1  10
ATOM      9  N   UNL     1      44.909   4.817   9.166  0.00  0.00    +0.000 N 
ATOM     10  C   UNL     1      44.486   4.229  10.326  0.00  0.00    +0.000 C 
ATOM     11  O   UNL     1      43.511   3.490  10.341  0.00  0.00    +0.000 OA
ATOM     12  H   UNL     1      44.415   4.553   8.324  0.00  0.00    +0.000 HD
ATOM     13  H   UNL     1      45.824   5.236   9.061  0.00  0.00    +0.000 HD
ENDBRANCH   1  10
BRANCH   5  14
ATOM     14  C   UNL     1      47.056   4.145  16.230  0.00  0.00    +0.000 C 
BRANCH  14  15
ATOM     15  C   UNL     1      48.388   3.574  16.644  0.00  0.00    +0.000 A 
ATOM     16  C   UNL     1      48.755   2.293  16.225  0.00  0.00    +0.000 A 
ATOM     17  N   UNL     1      49.922   1.687  16.545  0.00  0.00    +0.000 NA
ATOM     18  C   UNL     1      50.773   2.397  17.317  0.00  0.00    +0.000 A 
ATOM     19  C   UNL     1      50.511   3.680  17.772  0.00  0.00    +0.000 A 
ATOM     20 BR   UNL     1      51.769   4.596  18.837  0.00  0.00    +0.000 Br
ATOM     21  C   UNL     1      49.301   4.281  17.430  0.00  0.00    +0.000 A 
ENDBRANCH  14  15
ENDBRANCH   5  14
TORSDOF 3
ENDMDL
MODEL 5
REMARK VINA RESULT:    -5.999      4.942      8.389
REMARK INTER + INTRA:          -7.410
REMARK INTER:                  -7.176
REMARK INTRA:                  -0.234
REMARK UNBOUND:                -0.359
REMARK  Name = 
REMARK  3 active torsions:
REMARK  status: ('A' for Active; 'I' for Inactive)
REMARK    1  A    between atoms: C_2  and  C_4
REMARK    2  A    between atoms: N_8  and  C_9
REMARK    3  A    between atoms: C_9  and  C_10
REMARK                            x       y       z     vdW  Elec       q    Type
REMARK                         _______ _______ _______ _____ _____    ______ ____
ROOT
ATOM      1  C   UNL     1      48.957   4.763  18.122  0.00  0.00    +0.000 A 
ATOM      2  C   UNL     1      48.010   3.746  18.156  0.00  0.00    +0.000 A 
ATOM      3  C   UNL     1      47.241   3.501  17.019  0.00  0.00    +0.000 A 
ATOM      4  C   UNL     1      47.410   4.289  15.882  0.00  0.00    +0.000 A 
ATOM      5  N   UNL     1      46.545   4.074  14.815  0.00  0.00    +0.000 N 
ATOM      6  N   UNL     1      48.318   5.281  15.842  0.00  0.00    +0.000 NA
ATOM      7  C   UNL     1      49.071   5.499  16.954  0.00  0.00    +0.000 A 
ATOM      8  H   UNL     1      46.591   3.122  14.468  0.00  0.00    +0.000 HD
ENDROOT
BRANCH   1  10
ATOM      9  N   UNL     1      49.688   4.355  20.404  0.00  0.00    +0.000 N 
ATOM     10  C   UNL     1      49.815   5.114  19.275  0.00  0.00    +0.000 C 
ATOM     11  O   UNL     1      50.628   6.026  19.214  0.00  0.00    +0.000 OA
ATOM     12  H   UNL     1      50.345   4.547  21.150  0.00  0.00    +0.000 HD
ATOM     13  H   UNL     1      49.208   3.464  20.420  0.00  0.00    +0.000 HD
ENDBRANCH   1  10
BRANCH   5  14
ATOM     14  C   UNL     1      46.465   5.084  13.775  0.00  0.00    +0.000 C 
BRANCH  14  15
ATOM     15  C   UNL     1      45.315   4.717  12.872  0.00  0.00    +0.000 A 
ATOM     16  C   UNL     1      44.037   5.212  13.138  0.00  0.00    +0.000 A 
ATOM     17  N   UNL     1      42.939   4.939  12.396  0.00  0.00    +0.000 NA
ATOM     18  C   UNL     1      43.124   4.135  11.326  0.00  0.00    +0.000 A 
ATOM     19  C   UNL     1      44.354   3.603  10.967  0.00  0.00    +0.000 A 
ATOM     20 BR   UNL     1      44.515   2.498   9.447  0.00  0.00    +0.000 Br
ATOM     21  C   UNL     1      45.468   3.898  11.750  0.00  0.00    +0.000 A 
ENDBRANCH  14  15
ENDBRANCH   5  14
TORSDOF 3
ENDMDL
MODEL 6
REMARK VINA RESULT:    -5.755      3.655      5.319
REMARK INTER + INTRA:          -7.123
REMARK INTER:                  -6.767
REMARK INTRA:                  -0.356
REMARK UNBOUND:                -0.359
REMARK  Name = 
REMARK  3 active torsions:
REMARK  status: ('A' for Active; 'I' for Inactive)
REMARK    1  A    between atoms: C_2  and  C_4
REMARK    2  A    between atoms: N_8  and  C_9
REMARK    3  A    between atoms: C_9  and  C_10
REMARK                            x       y       z     vdW  Elec       q    Type
REMARK                         _______ _______ _______ _____ _____    ______ ____
ROOT
ATOM      1  C   UNL     1      44.460   4.070  11.753  0.00  0.00    +0.000 A 
ATOM      2  C   UNL     1      45.480   4.006  12.695  0.00  0.00    +0.000 A 
ATOM      3  C   UNL     1      45.958   5.191  13.254  0.00  0.00    +0.000 A 
ATOM      4  C   UNL     1      45.431   6.415  12.845  0.00  0.00    +0.000 A 
ATOM      5  N   UNL     1      46.016   7.569  13.353  0.00  0.00    +0.000 N 
ATOM      6  N   UNL     1      44.450   6.487  11.927  0.00  0.00    +0.000 NA
ATOM      7  C   UNL     1      43.984   5.323  11.401  0.00  0.00    +0.000 A 
ATOM      8  H   UNL     1      45.977   7.607  14.365  0.00  0.00    +0.000 HD
ENDROOT
BRANCH   1  10
ATOM      9  N   UNL     1      44.573   2.370  10.019  0.00  0.00    +0.000 N 
ATOM     10  C   UNL     1      43.891   2.876  11.089  0.00  0.00    +0.000 C 
ATOM     11  O   UNL     1      42.870   2.342  11.498  0.00  0.00    +0.000 OA
ATOM     12  H   UNL     1      44.224   1.502   9.634  0.00  0.00    +0.000 HD
ATOM     13  H   UNL     1      45.526   2.632   9.796  0.00  0.00    +0.000 HD
ENDBRANCH   1  10
BRANCH   5  14
ATOM     14  C   UNL     1      45.732   8.834  12.699  0.00  0.00    +0.000 C 
BRANCH  14  15
ATOM     15  C   UNL     1      47.037   9.379  12.177  0.00  0.00    +0.000 A 
ATOM     16  C   UNL     1      47.131  10.723  11.810  0.00  0.00    +0.000 A 
ATOM     17  N   UNL     1      48.251  11.308  11.326  0.00  0.00    +0.000 NA
ATOM     18  C   UNL     1      49.339  10.515  11.208  0.00  0.00    +0.000 A 
ATOM     19  C   UNL     1      49.353   9.173  11.558  0.00  0.00    +0.000 A 
ATOM     20 BR   UNL     1      50.926   8.149  11.368  0.00  0.00    +0.000 Br
ATOM     21  C   UNL     1      48.186   8.594  12.052  0.00  0.00    +0.000 A 
ENDBRANCH  14  15
ENDBRANCH   5  14
TORSDOF 3
ENDMDL
MODEL 7
REMARK VINA RESULT:    -5.708      1.802      2.209
REMARK INTER + INTRA:          -7.067
REMARK INTER:                  -6.989
REMARK INTRA:                  -0.078
REMARK UNBOUND:                -0.359
REMARK  Name = 
REMARK  3 active torsions:
REMARK  status: ('A' for Active; 'I' for Inactive)
REMARK    1  A    between atoms: C_2  and  C_4
REMARK    2  A    between atoms: N_8  and  C_9
REMARK    3  A    between atoms: C_9  and  C_10
REMARK                            x       y       z     vdW  Elec       q    Type
REMARK                         _______ _______ _______ _____ _____    ______ ____
ROOT
ATOM      1  C   UNL     1      45.506   3.282   8.813  0.00  0.00    +0.000 A 
ATOM      2  C   UNL     1      44.962   2.581   9.884  0.00  0.00    +0.000 A 
ATOM      3  C   UNL     1      44.486   3.292  10.984  0.00  0.00    +0.000 A 
ATOM      4  C   UNL     1      44.584   4.683  11.010  0.00  0.00    +0.000 A 
ATOM      5  N   UNL     1      44.193   5.335  12.173  0.00  0.00    +0.000 N 
ATOM      6  N   UNL     1      45.116   5.369   9.982  0.00  0.00    +0.000 NA
ATOM      7  C   UNL     1      45.564   4.663   8.909  0.00  0.00    +0.000 A 
ATOM      8  H   UNL     1      43.226   5.149  12.413  0.00  0.00    +0.000 HD
ENDROOT
BRANCH   1  10
ATOM      9  N   UNL     1      46.549   1.361   7.750  0.00  0.00    +0.000 N 
ATOM     10  C   UNL     1      46.052   2.625   7.605  0.00  0.00    +0.000 C 
ATOM     11  O   UNL     1      46.031   3.175   6.513  0.00  0.00    +0.000 OA
ATOM     12  H   UNL     1      46.832   0.890   6.901  0.00  0.00    +0.000 HD
ATOM     13  H   UNL     1      46.376   0.789   8.568  0.00  0.00    +0.000 HD
ENDBRANCH   1  10
BRANCH   5  14
ATOM     14  C   UNL     1      44.598   6.717  12.362  0.00  0.00    +0.000 C 
BRANCH  14  15
ATOM     15  C   UNL     1      46.081   6.722  12.636  0.00  0.00    +0.000 A 
ATOM     16  C   UNL     1      46.638   5.741  13.458  0.00  0.00    +0.000 A 
ATOM     17  N   UNL     1      47.953   5.661  13.772  0.00  0.00    +0.000 NA
ATOM     18  C   UNL     1      48.756   6.603  13.231  0.00  0.00    +0.000 A 
ATOM     19  C   UNL     1      48.304   7.610  12.391  0.00  0.00    +0.000 A 
ATOM     20 BR   UNL     1      49.507   8.874  11.676  0.00  0.00    +0.000 Br
ATOM     21  C   UNL     1      46.946   7.671  12.086  0.00  0.00    +0.000 A 
ENDBRANCH  14  15
ENDBRANCH   5  14
TORSDOF 3
ENDMDL
MODEL 8
REMARK VINA RESULT:    -5.648      3.807      5.871
REMARK INTER + INTRA:          -6.997
REMARK INTER:                  -6.728
REMARK INTRA:                  -0.269
REMARK UNBOUND:                -0.359
REMARK  Name = 
REMARK  3 active torsions:
REMARK  status: ('A' for Active; 'I' for Inactive)
REMARK    1  A    between atoms: C_2  and  C_4
REMARK    2  A    between atoms: N_8  and  C_9
REMARK    3  A    between atoms: C_9  and  C_10
REMARK                            x       y       z     vdW  Elec       q    Type
REMARK                         _______ _______ _______ _____ _____    ______ ____
ROOT
ATOM      1  C   UNL     1      44.976   4.461  11.678  0.00  0.00    +0.000 A 
ATOM      2  C   UNL     1      45.361   5.779  11.897  0.00  0.00    +0.000 A 
ATOM      3  C   UNL     1      46.211   6.064  12.965  0.00  0.00    +0.000 A 
ATOM      4  C   UNL     1      46.638   5.040  13.809  0.00  0.00    +0.000 A 
ATOM      5  N   UNL     1      47.396   5.393  14.919  0.00  0.00    +0.000 N 
ATOM      6  N   UNL     1      46.263   3.763  13.609  0.00  0.00    +0.000 NA
ATOM      7  C   UNL     1      45.446   3.497  12.556  0.00  0.00    +0.000 A 
ATOM      8  H   UNL     1      48.249   5.879  14.665  0.00  0.00    +0.000 HD
ENDROOT
BRANCH   1  10
ATOM      9  N   UNL     1      44.203   4.691   9.385  0.00  0.00    +0.000 N 
ATOM     10  C   UNL     1      44.068   4.051  10.585  0.00  0.00    +0.000 C 
ATOM     11  O   UNL     1      43.250   3.153  10.734  0.00  0.00    +0.000 OA
ATOM     12  H   UNL     1      43.641   4.338   8.622  0.00  0.00    +0.000 HD
ATOM     13  H   UNL     1      45.005   5.263   9.151  0.00  0.00    +0.000 HD
ENDBRANCH   1  10
BRANCH   5  14
ATOM     14  C   UNL     1      47.560   4.419  15.984  0.00  0.00    +0.000 C 
BRANCH  14  15
ATOM     15  C   UNL     1      48.179   5.130  17.160  0.00  0.00    +0.000 A 
ATOM     16  C   UNL     1      47.910   4.690  18.457  0.00  0.00    +0.000 A 
ATOM     17  N   UNL     1      48.409   5.261  19.579  0.00  0.00    +0.000 NA
ATOM     18  C   UNL     1      49.225   6.322  19.398  0.00  0.00    +0.000 A 
ATOM     19  C   UNL     1      49.565   6.828  18.153  0.00  0.00    +0.000 A 
ATOM     20 BR   UNL     1      50.723   8.309  18.003  0.00  0.00    +0.000 Br
ATOM     21  C   UNL     1      49.037   6.223  17.014  0.00  0.00    +0.000 A 
ENDBRANCH  14  15
ENDBRANCH   5  14
TORSDOF 3
ENDMDL
MODEL 9
REMARK VINA RESULT:    -5.595      2.495      3.781
REMARK INTER + INTRA:          -6.935
REMARK INTER:                  -6.550
REMARK INTRA:                  -0.385
REMARK UNBOUND:                -0.359
REMARK  Name = 
REMARK  3 active torsions:
REMARK  status: ('A' for Active; 'I' for Inactive)
REMARK    1  A    between atoms: C_2  and  C_4
REMARK    2  A    between atoms: N_8  and  C_9
REMARK    3  A    between atoms: C_9  and  C_10
REMARK                            x       y       z     vdW  Elec       q    Type
REMARK                         _______ _______ _______ _____ _____    ______ ____
ROOT
ATOM      1  C   UNL     1      44.932   3.674  10.192  0.00  0.00    +0.000 A 
ATOM      2  C   UNL     1      45.026   3.214  11.501  0.00  0.00    +0.000 A 
ATOM      3  C   UNL     1      45.192   4.140  12.531  0.00  0.00    +0.000 A 
ATOM      4  C   UNL     1      45.288   5.499  12.237  0.00  0.00    +0.000 A 
ATOM      5  N   UNL     1      45.559   6.368  13.287  0.00  0.00    +0.000 N 
ATOM      6  N   UNL     1      45.206   5.952  10.972  0.00  0.00    +0.000 NA
ATOM      7  C   UNL     1      45.031   5.039   9.979  0.00  0.00    +0.000 A 
ATOM      8  H   UNL     1      44.859   6.320  14.018  0.00  0.00    +0.000 HD
ENDROOT
BRANCH   1  10
ATOM      9  N   UNL     1      44.332   3.340   7.860  0.00  0.00    +0.000 N 
ATOM     10  C   UNL     1      44.770   2.778   9.026  0.00  0.00    +0.000 C 
ATOM     11  O   UNL     1      45.046   1.588   9.090  0.00  0.00    +0.000 OA
ATOM     12  H   UNL     1      44.315   2.736   7.049  0.00  0.00    +0.000 HD
ATOM     13  H   UNL     1      44.317   4.340   7.700  0.00  0.00    +0.000 HD
ENDBRANCH   1  10
BRANCH   5  14
ATOM     14  C   UNL     1      46.002   7.715  12.973  0.00  0.00    +0.000 C 
BRANCH  14  15
ATOM     15  C   UNL     1      47.504   7.742  13.105  0.00  0.00    +0.000 A 
ATOM     16  C   UNL     1      48.129   6.971  14.086  0.00  0.00    +0.000 A 
ATOM     17  N   UNL     1      49.466   6.929  14.292  0.00  0.00    +0.000 NA
ATOM     18  C   UNL     1      50.222   7.690  13.471  0.00  0.00    +0.000 A 
ATOM     19  C   UNL     1      49.701   8.480  12.457  0.00  0.00    +0.000 A 
ATOM     20 BR   UNL     1      50.840   9.500  11.354  0.00  0.00    +0.000 Br
ATOM     21  C   UNL     1      48.321   8.507  12.268  0.00  0.00    +0.000 A 
ENDBRANCH  14  15
ENDBRANCH   5  14
TORSDOF 3
ENDMDL
