MODEL 1
REMARK VINA RESULT:    -8.731      0.000      0.000
REMARK INTER + INTRA:         -11.993
REMARK INTER:                 -11.283
REMARK INTRA:                  -0.710
REMARK UNBOUND:                -0.710
REMARK  Name = 
REMARK  5 active torsions:
REMARK  status: ('A' for Active; 'I' for Inactive)
REMARK    1  A    between atoms: C_2  and  C_4
REMARK    2  A    between atoms: C_7  and  N_8
REMARK    3  A    between atoms: N_8  and  C_9
REMARK    4  A    between atoms: C_9  and  C_10
REMARK    5  A    between atoms: C_15  and  C_16
REMARK                            x       y       z     vdW  Elec       q    Type
REMARK                         _______ _______ _______ _____ _____    ______ ____
ROOT
ATOM      1  C   UNL     1      43.564   4.652  11.130  0.00  0.00    +0.000 C 
ENDROOT
BRANCH   1   2
ATOM      2  C   UNL     1      44.805   4.940  11.949  0.00  0.00    +0.000 A 
ATOM      3  C   UNL     1      45.456   3.944  12.681  0.00  0.00    +0.000 A 
ATOM      4  C   UNL     1      46.588   4.267  13.426  0.00  0.00    +0.000 A 
ATOM      5  F   UNL     1      47.208   3.305  14.123  0.00  0.00    +0.000 F 
ATOM      6  C   UNL     1      47.095   5.562  13.458  0.00  0.00    +0.000 A 
ATOM      7  C   UNL     1      46.460   6.581  12.735  0.00  0.00    +0.000 A 
ATOM      8  C   UNL     1      45.312   6.252  11.995  0.00  0.00    +0.000 A 
BRANCH   7   9
ATOM      9  C   UNL     1      47.015   7.994  12.736  0.00  0.00    +0.000 C 
ATOM     10  C   UNL     1      46.014   9.011  12.169  0.00  0.00    +0.000 C 
ATOM     11  C   UNL     1      46.651  10.390  12.054  0.00  0.00    +0.000 C 
ATOM     12  O   UNL     1      47.848  10.332  11.280  0.00  0.00    +0.000 OA
ATOM     13  C   UNL     1      48.840   9.504  11.883  0.00  0.00    +0.000 C 
ATOM     14  C   UNL     1      48.351   8.066  11.980  0.00  0.00    +0.000 C 
ENDBRANCH   7   9
ENDBRANCH   1   2
BRANCH   1  15
ATOM     15  N   UNL     1      43.866   4.934   9.732  0.00  0.00    +0.000 N 
ATOM     16  H   UNL     1      44.214   5.876   9.592  0.00  0.00    +0.000 HD
BRANCH  15  20
ATOM     17  C   UNL     1      46.193   2.055   7.959  0.00  0.00    +0.000 A 
ATOM     18  C   UNL     1      46.307   3.385   7.585  0.00  0.00    +0.000 A 
ATOM     19  N   UNL     1      45.524   4.365   8.115  0.00  0.00    +0.000 NA
ATOM     20  C   UNL     1      44.620   3.984   9.041  0.00  0.00    +0.000 A 
ATOM     21  C   UNL     1      44.517   2.630   9.397  0.00  0.00    +0.000 A 
ATOM     22  N   UNL     1      45.278   1.633   8.872  0.00  0.00    +0.000 NA
BRANCH  17  24
ATOM     23  N   UNL     1      46.813  -0.268   7.648  0.00  0.00    +0.000 N 
ATOM     24  C   UNL     1      47.104   1.040   7.364  0.00  0.00    +0.000 C 
ATOM     25  O   UNL     1      48.060   1.348   6.665  0.00  0.00    +0.000 OA
ATOM     26  H   UNL     1      47.389  -1.000   7.259  0.00  0.00    +0.000 HD
ATOM     27  H   UNL     1      46.003  -0.499   8.212  0.00  0.00    +0.000 HD
ENDBRANCH  17  24
ENDBRANCH  15  20
ENDBRANCH   1  15
TORSDOF 5
ENDMDL
MODEL 2
REMARK VINA RESULT:    -8.515      2.560      3.736
REMARK INTER + INTRA:         -11.715
REMARK INTER:                 -11.113
REMARK INTRA:                  -0.602
REMARK UNBOUND:                -0.710
REMARK  Name = 
REMARK  5 active torsions:
REMARK  status: ('A' for Active; 'I' for Inactive)
REMARK    1  A    between atoms: C_2  and  C_4
REMARK    2  A    between atoms: C_7  and  N_8
REMARK    3  A    between atoms: N_8  and  C_9
REMARK    4  A    between atoms: C_9  and  C_10
REMARK    5  A    between atoms: C_15  and  C_16
REMARK                            x       y       z     vdW  Elec       q    Type
REMARK                         _______ _______ _______ _____ _____    ______ ____
ROOT
ATOM      1  C   UNL     1      43.958   4.752  11.331  0.00  0.00    +0.000 C 
ENDROOT
BRANCH   1   2
ATOM      2  C   UNL     1      45.216   5.314  11.962  0.00  0.00    +0.000 A 
ATOM      3  C   UNL     1      45.994   6.283  11.323  0.00  0.00    +0.000 A 
ATOM      4  C   UNL     1      47.147   6.757  11.944  0.00  0.00    +0.000 A 
ATOM      5  F   UNL     1      47.886   7.689  11.326  0.00  0.00    +0.000 F 
ATOM      6  C   UNL     1      47.547   6.293  13.194  0.00  0.00    +0.000 A 
ATOM      7  C   UNL     1      46.786   5.320  13.854  0.00  0.00    +0.000 A 
ATOM      8  C   UNL     1      45.629   4.836  13.219  0.00  0.00    +0.000 A 
BRANCH   7   9
ATOM      9  C   UNL     1      47.191   4.822  15.230  0.00  0.00    +0.000 C 
ATOM     10  C   UNL     1      48.322   5.662  15.842  0.00  0.00    +0.000 C 
ATOM     11  C   UNL     1      48.798   5.053  17.155  0.00  0.00    +0.000 C 
ATOM     12  O   UNL     1      49.185   3.692  16.971  0.00  0.00    +0.000 OA
ATOM     13  C   UNL     1      48.096   2.876  16.546  0.00  0.00    +0.000 C 
ATOM     14  C   UNL     1      47.579   3.335  15.191  0.00  0.00    +0.000 C 
ENDBRANCH   7   9
ENDBRANCH   1   2
BRANCH   1  15
ATOM     15  N   UNL     1      44.041   4.957   9.891  0.00  0.00    +0.000 N 
ATOM     16  H   UNL     1      44.315   5.903   9.647  0.00  0.00    +0.000 HD
BRANCH  15  20
ATOM     17  C   UNL     1      46.207   2.048   7.969  0.00  0.00    +0.000 A 
ATOM     18  C   UNL     1      46.335   3.379   7.607  0.00  0.00    +0.000 A 
ATOM     19  N   UNL     1      45.604   4.371   8.188  0.00  0.00    +0.000 NA
ATOM     20  C   UNL     1      44.736   4.000   9.152  0.00  0.00    +0.000 A 
ATOM     21  C   UNL     1      44.617   2.643   9.494  0.00  0.00    +0.000 A 
ATOM     22  N   UNL     1      45.327   1.636   8.920  0.00  0.00    +0.000 NA
BRANCH  17  24
ATOM     23  N   UNL     1      46.800  -0.281   7.656  0.00  0.00    +0.000 N 
ATOM     24  C   UNL     1      47.063   1.019   7.318  0.00  0.00    +0.000 C 
ATOM     25  O   UNL     1      47.951   1.312   6.529  0.00  0.00    +0.000 OA
ATOM     26  H   UNL     1      47.340  -1.022   7.233  0.00  0.00    +0.000 HD
ATOM     27  H   UNL     1      46.044  -0.500   8.295  0.00  0.00    +0.000 HD
ENDBRANCH  17  24
ENDBRANCH  15  20
ENDBRANCH   1  15
TORSDOF 5
ENDMDL
MODEL 3
REMARK VINA RESULT:    -8.182      3.950      7.095
REMARK INTER + INTRA:         -11.284
REMARK INTER:                 -10.783
REMARK INTRA:                  -0.501
REMARK UNBOUND:                -0.710
REMARK  Name = 
REMARK  5 active torsions:
REMARK  status: ('A' for Active; 'I' for Inactive)
REMARK    1  A    between atoms: C_2  and  C_4
REMARK    2  A    between atoms: C_7  and  N_8
REMARK    3  A    between atoms: N_8  and  C_9
REMARK    4  A    between atoms: C_9  and  C_10
REMARK    5  A    between atoms: C_15  and  C_16
REMARK                            x       y       z     vdW  Elec       q    Type
REMARK                         _______ _______ _______ _____ _____    ______ ____
ROOT
ATOM      1  C   UNL     1      46.478   7.229  12.038  0.00  0.00    +0.000 C 
ENDROOT
BRANCH   1   2
ATOM      2  C   UNL     1      45.408   6.340  11.438  0.00  0.00    +0.000 A 
ATOM      3  C   UNL     1      44.085   6.370  11.885  0.00  0.00    +0.000 A 
ATOM      4  C   UNL     1      43.144   5.523  11.304  0.00  0.00    +0.000 A 
ATOM      5  F   UNL     1      41.876   5.561  11.735  0.00  0.00    +0.000 F 
ATOM      6  C   UNL     1      43.486   4.643  10.281  0.00  0.00    +0.000 A 
ATOM      7  C   UNL     1      44.807   4.591   9.817  0.00  0.00    +0.000 A 
ATOM      8  C   UNL     1      45.755   5.440  10.413  0.00  0.00    +0.000 A 
BRANCH   7   9
ATOM      9  C   UNL     1      45.193   3.658   8.683  0.00  0.00    +0.000 C 
ATOM     10  C   UNL     1      45.552   2.251   9.186  0.00  0.00    +0.000 C 
ATOM     11  C   UNL     1      46.068   1.384   8.044  0.00  0.00    +0.000 C 
ATOM     12  O   UNL     1      47.168   2.012   7.389  0.00  0.00    +0.000 OA
ATOM     13  C   UNL     1      46.801   3.253   6.789  0.00  0.00    +0.000 C 
ATOM     14  C   UNL     1      46.341   4.245   7.847  0.00  0.00    +0.000 C 
ENDBRANCH   7   9
ENDBRANCH   1   2
BRANCH   1  15
ATOM     15  N   UNL     1      47.631   6.399  12.362  0.00  0.00    +0.000 N 
ATOM     16  H   UNL     1      48.512   6.869  12.183  0.00  0.00    +0.000 HD
BRANCH  15  20
ATOM     17  C   UNL     1      47.306   4.520  15.997  0.00  0.00    +0.000 A 
ATOM     18  C   UNL     1      48.096   5.650  15.853  0.00  0.00    +0.000 A 
ATOM     19  N   UNL     1      48.267   6.278  14.657  0.00  0.00    +0.000 NA
ATOM     20  C   UNL     1      47.620   5.750  13.597  0.00  0.00    +0.000 A 
ATOM     21  C   UNL     1      46.832   4.600  13.766  0.00  0.00    +0.000 A 
ATOM     22  N   UNL     1      46.658   3.949  14.947  0.00  0.00    +0.000 NA
BRANCH  17  24
ATOM     23  N   UNL     1      47.553   4.659  18.404  0.00  0.00    +0.000 N 
ATOM     24  C   UNL     1      47.135   3.904  17.341  0.00  0.00    +0.000 C 
ATOM     25  O   UNL     1      46.653   2.790  17.493  0.00  0.00    +0.000 OA
ATOM     26  H   UNL     1      47.447   4.297  19.341  0.00  0.00    +0.000 HD
ATOM     27  H   UNL     1      47.928   5.588  18.254  0.00  0.00    +0.000 HD
ENDBRANCH  17  24
ENDBRANCH  15  20
ENDBRANCH   1  15
TORSDOF 5
ENDMDL
MODEL 4
REMARK VINA RESULT:    -7.706      2.138      2.855
REMARK INTER + INTRA:         -10.669
REMARK INTER:                 -10.054
REMARK INTRA:                  -0.614
REMARK UNBOUND:                -0.710
REMARK  Name = 
REMARK  5 active torsions:
REMARK  status: ('A' for Active; 'I' for Inactive)
REMARK    1  A    between atoms: C_2  and  C_4
REMARK    2  A    between atoms: C_7  and  N_8
REMARK    3  A    between atoms: N_8  and  C_9
REMARK    4  A    between atoms: C_9  and  C_10
REMARK    5  A    between atoms: C_15  and  C_16
REMARK                            x       y       z     vdW  Elec       q    Type
REMARK                         _______ _______ _______ _____ _____    ______ ____
ROOT
ATOM      1  C   UNL     1      44.514   5.144  11.318  0.00  0.00    +0.000 C 
ENDROOT
BRANCH   1   2
ATOM      2  C   UNL     1      45.223   6.451  11.609  0.00  0.00    +0.000 A 
ATOM      3  C   UNL     1      44.575   7.684  11.501  0.00  0.00    +0.000 A 
ATOM      4  C   UNL     1      45.279   8.856  11.770  0.00  0.00    +0.000 A 
ATOM      5  F   UNL     1      44.648  10.034  11.668  0.00  0.00    +0.000 F 
ATOM      6  C   UNL     1      46.617   8.833  12.150  0.00  0.00    +0.000 A 
ATOM      7  C   UNL     1      47.291   7.611  12.262  0.00  0.00    +0.000 A 
ATOM      8  C   UNL     1      46.581   6.431  11.979  0.00  0.00    +0.000 A 
BRANCH   7   9
ATOM      9  C   UNL     1      48.743   7.564  12.702  0.00  0.00    +0.000 C 
ATOM     10  C   UNL     1      48.885   7.375  14.220  0.00  0.00    +0.000 C 
ATOM     11  C   UNL     1      50.345   7.474  14.643  0.00  0.00    +0.000 C 
ATOM     12  O   UNL     1      50.918   8.704  14.204  0.00  0.00    +0.000 OA
ATOM     13  C   UNL     1      50.925   8.818  12.783  0.00  0.00    +0.000 C 
ATOM     14  C   UNL     1      49.505   8.816  12.237  0.00  0.00    +0.000 C 
ENDBRANCH   7   9
ENDBRANCH   1   2
BRANCH   1  15
ATOM     15  N   UNL     1      44.230   5.089   9.890  0.00  0.00    +0.000 N 
ATOM     16  H   UNL     1      44.288   6.000   9.446  0.00  0.00    +0.000 HD
BRANCH  15  20
ATOM     17  C   UNL     1      46.293   2.114   7.956  0.00  0.00    +0.000 A 
ATOM     18  C   UNL     1      46.302   3.412   7.470  0.00  0.00    +0.000 A 
ATOM     19  N   UNL     1      45.596   4.420   8.054  0.00  0.00    +0.000 NA
ATOM     20  C   UNL     1      44.878   4.100   9.150  0.00  0.00    +0.000 A 
ATOM     21  C   UNL     1      44.877   2.776   9.619  0.00  0.00    +0.000 A 
ATOM     22  N   UNL     1      45.563   1.752   9.044  0.00  0.00    +0.000 NA
BRANCH  17  24
ATOM     23  N   UNL     1      46.791  -0.228   7.583  0.00  0.00    +0.000 N 
ATOM     24  C   UNL     1      47.115   1.069   7.288  0.00  0.00    +0.000 C 
ATOM     25  O   UNL     1      48.029   1.345   6.522  0.00  0.00    +0.000 OA
ATOM     26  H   UNL     1      47.307  -0.979   7.148  0.00  0.00    +0.000 HD
ATOM     27  H   UNL     1      46.016  -0.432   8.204  0.00  0.00    +0.000 HD
ENDBRANCH  17  24
ENDBRANCH  15  20
ENDBRANCH   1  15
TORSDOF 5
ENDMDL
MODEL 5
REMARK VINA RESULT:    -7.579      3.291      7.189
REMARK INTER + INTRA:         -10.505
REMARK INTER:                  -9.831
REMARK INTRA:                  -0.674
REMARK UNBOUND:                -0.710
REMARK  Name = 
REMARK  5 active torsions:
REMARK  status: ('A' for Active; 'I' for Inactive)
REMARK    1  A    between atoms: C_2  and  C_4
REMARK    2  A    between atoms: C_7  and  N_8
REMARK    3  A    between atoms: N_8  and  C_9
REMARK    4  A    between atoms: C_9  and  C_10
REMARK    5  A    between atoms: C_15  and  C_16
REMARK                            x       y       z     vdW  Elec       q    Type
REMARK                         _______ _______ _______ _____ _____    ______ ____
ROOT
ATOM      1  C   UNL     1      45.024   6.578  10.914  0.00  0.00    +0.000 C 
ENDROOT
BRANCH   1   2
ATOM      2  C   UNL     1      44.737   5.127  10.586  0.00  0.00    +0.000 A 
ATOM      3  C   UNL     1      43.909   4.337  11.386  0.00  0.00    +0.000 A 
ATOM      4  C   UNL     1      43.689   3.005  11.042  0.00  0.00    +0.000 A 
ATOM      5  F   UNL     1      42.889   2.255  11.813  0.00  0.00    +0.000 F 
ATOM      6  C   UNL     1      44.271   2.436   9.914  0.00  0.00    +0.000 A 
ATOM      7  C   UNL     1      45.109   3.205   9.096  0.00  0.00    +0.000 A 
ATOM      8  C   UNL     1      45.337   4.545   9.453  0.00  0.00    +0.000 A 
BRANCH   7   9
ATOM      9  C   UNL     1      45.731   2.610   7.846  0.00  0.00    +0.000 C 
ATOM     10  C   UNL     1      46.372   1.239   8.113  0.00  0.00    +0.000 C 
ATOM     11  C   UNL     1      47.107   0.736   6.877  0.00  0.00    +0.000 C 
ATOM     12  O   UNL     1      48.065   1.695   6.432  0.00  0.00    +0.000 OA
ATOM     13  C   UNL     1      47.456   2.923   6.039  0.00  0.00    +0.000 C 
ATOM     14  C   UNL     1      46.751   3.574   7.220  0.00  0.00    +0.000 C 
ENDBRANCH   7   9
ENDBRANCH   1   2
BRANCH   1  15
ATOM     15  N   UNL     1      45.156   6.699  12.360  0.00  0.00    +0.000 N 
ATOM     16  H   UNL     1      44.620   5.997  12.860  0.00  0.00    +0.000 HD
BRANCH  15  20
ATOM     17  C   UNL     1      48.842   7.059  14.131  0.00  0.00    +0.000 A 
ATOM     18  C   UNL     1      48.323   8.089  13.361  0.00  0.00    +0.000 A 
ATOM     19  N   UNL     1      47.125   7.994  12.720  0.00  0.00    +0.000 NA
ATOM     20  C   UNL     1      46.447   6.838  12.871  0.00  0.00    +0.000 A 
ATOM     21  C   UNL     1      46.997   5.806  13.648  0.00  0.00    +0.000 A 
ATOM     22  N   UNL     1      48.196   5.873  14.286  0.00  0.00    +0.000 NA
BRANCH  17  24
ATOM     23  N   UNL     1      51.137   7.837  14.104  0.00  0.00    +0.000 N 
ATOM     24  C   UNL     1      50.141   7.243  14.832  0.00  0.00    +0.000 C 
ATOM     25  O   UNL     1      50.317   6.884  15.989  0.00  0.00    +0.000 OA
ATOM     26  H   UNL     1      52.036   8.000  14.535  0.00  0.00    +0.000 HD
ATOM     27  H   UNL     1      50.961   8.146  13.155  0.00  0.00    +0.000 HD
ENDBRANCH  17  24
ENDBRANCH  15  20
ENDBRANCH   1  15
TORSDOF 5
ENDMDL
MODEL 6
REMARK VINA RESULT:    -7.572      1.449      2.051
REMARK INTER + INTRA:         -10.495
REMARK INTER:                  -9.938
REMARK INTRA:                  -0.557
REMARK UNBOUND:                -0.710
REMARK  Name = 
REMARK  5 active torsions:
REMARK  status: ('A' for Active; 'I' for Inactive)
REMARK    1  A    between atoms: C_2  and  C_4
REMARK    2  A    between atoms: C_7  and  N_8
REMARK    3  A    between atoms: N_8  and  C_9
REMARK    4  A    between atoms: C_9  and  C_10
REMARK    5  A    between atoms: C_15  and  C_16
REMARK                            x       y       z     vdW  Elec       q    Type
REMARK                         _______ _______ _______ _____ _____    ______ ____
ROOT
ATOM      1  C   UNL     1      43.917   5.579  10.641  0.00  0.00    +0.000 C 
ENDROOT
BRANCH   1   2
ATOM      2  C   UNL     1      45.073   5.708  11.612  0.00  0.00    +0.000 A 
ATOM      3  C   UNL     1      45.174   4.907  12.752  0.00  0.00    +0.000 A 
ATOM      4  C   UNL     1      46.254   5.076  13.616  0.00  0.00    +0.000 A 
ATOM      5  F   UNL     1      46.346   4.301  14.706  0.00  0.00    +0.000 F 
ATOM      6  C   UNL     1      47.244   6.023  13.372  0.00  0.00    +0.000 A 
ATOM      7  C   UNL     1      47.164   6.841  12.237  0.00  0.00    +0.000 A 
ATOM      8  C   UNL     1      46.068   6.675  11.374  0.00  0.00    +0.000 A 
BRANCH   7   9
ATOM      9  C   UNL     1      48.249   7.861  11.940  0.00  0.00    +0.000 C 
ATOM     10  C   UNL     1      49.659   7.277  12.115  0.00  0.00    +0.000 C 
ATOM     11  C   UNL     1      50.717   8.359  11.947  0.00  0.00    +0.000 C 
ATOM     12  O   UNL     1      50.477   9.446  12.839  0.00  0.00    +0.000 OA
ATOM     13  C   UNL     1      49.230  10.089  12.580  0.00  0.00    +0.000 C 
ATOM     14  C   UNL     1      48.074   9.124  12.797  0.00  0.00    +0.000 C 
ENDBRANCH   7   9
ENDBRANCH   1   2
BRANCH   1  15
ATOM     15  N   UNL     1      43.766   4.170  10.299  0.00  0.00    +0.000 N 
ATOM     16  H   UNL     1      42.829   3.946   9.981  0.00  0.00    +0.000 HD
BRANCH  15  20
ATOM     17  C   UNL     1      46.501   2.596   7.674  0.00  0.00    +0.000 A 
ATOM     18  C   UNL     1      45.894   1.794   8.628  0.00  0.00    +0.000 A 
ATOM     19  N   UNL     1      45.015   2.284   9.546  0.00  0.00    +0.000 NA
ATOM     20  C   UNL     1      44.748   3.605   9.486  0.00  0.00    +0.000 A 
ATOM     21  C   UNL     1      45.383   4.398   8.517  0.00  0.00    +0.000 A 
ATOM     22  N   UNL     1      46.272   3.934   7.599  0.00  0.00    +0.000 NA
BRANCH  17  24
ATOM     23  N   UNL     1      48.586   2.676   6.442  0.00  0.00    +0.000 N 
ATOM     24  C   UNL     1      47.425   1.989   6.679  0.00  0.00    +0.000 C 
ATOM     25  O   UNL     1      47.169   0.941   6.101  0.00  0.00    +0.000 OA
ATOM     26  H   UNL     1      49.258   2.303   5.786  0.00  0.00    +0.000 HD
ATOM     27  H   UNL     1      48.786   3.530   6.950  0.00  0.00    +0.000 HD
ENDBRANCH  17  24
ENDBRANCH  15  20
ENDBRANCH   1  15
TORSDOF 5
ENDMDL
MODEL 7
REMARK VINA RESULT:    -7.545      4.808      7.983
REMARK INTER + INTRA:         -10.461
REMARK INTER:                  -9.933
REMARK INTRA:                  -0.527
REMARK UNBOUND:                -0.710
REMARK  Name = 
REMARK  5 active torsions:
REMARK  status: ('A' for Active; 'I' for Inactive)
REMARK    1  A    between atoms: C_2  and  C_4
REMARK    2  A    between atoms: C_7  and  N_8
REMARK    3  A    between atoms: N_8  and  C_9
REMARK    4  A    between atoms: C_9  and  C_10
REMARK    5  A    between atoms: C_15  and  C_16
REMARK                            x       y       z     vdW  Elec       q    Type
REMARK                         _______ _______ _______ _____ _____    ______ ____
ROOT
ATOM      1  C   UNL     1      46.436   5.379  13.609  0.00  0.00    +0.000 C 
ENDROOT
BRANCH   1   2
ATOM      2  C   UNL     1      45.345   5.194  12.573  0.00  0.00    +0.000 A 
ATOM      3  C   UNL     1      44.046   5.666  12.775  0.00  0.00    +0.000 A 
ATOM      4  C   UNL     1      43.080   5.459  11.793  0.00  0.00    +0.000 A 
ATOM      5  F   UNL     1      41.837   5.919  11.992  0.00  0.00    +0.000 F 
ATOM      6  C   UNL     1      43.375   4.793  10.607  0.00  0.00    +0.000 A 
ATOM      7  C   UNL     1      44.669   4.306  10.382  0.00  0.00    +0.000 A 
ATOM      8  C   UNL     1      45.638   4.507  11.379  0.00  0.00    +0.000 A 
BRANCH   7   9
ATOM      9  C   UNL     1      45.016   3.601   9.083  0.00  0.00    +0.000 C 
ATOM     10  C   UNL     1      45.541   2.176   9.317  0.00  0.00    +0.000 C 
ATOM     11  C   UNL     1      46.010   1.551   8.010  0.00  0.00    +0.000 C 
ATOM     12  O   UNL     1      46.982   2.379   7.372  0.00  0.00    +0.000 OA
ATOM     13  C   UNL     1      46.453   3.654   7.016  0.00  0.00    +0.000 C 
ATOM     14  C   UNL     1      46.020   4.421   8.257  0.00  0.00    +0.000 C 
ENDBRANCH   7   9
ENDBRANCH   1   2
BRANCH   1  15
ATOM     15  N   UNL     1      46.524   4.158  14.399  0.00  0.00    +0.000 N 
ATOM     16  H   UNL     1      46.913   3.382  13.874  0.00  0.00    +0.000 HD
BRANCH  15  20
ATOM     17  C   UNL     1      48.431   4.435  18.024  0.00  0.00    +0.000 A 
ATOM     18  C   UNL     1      47.447   3.482  17.814  0.00  0.00    +0.000 A 
ATOM     19  N   UNL     1      46.758   3.384  16.642  0.00  0.00    +0.000 NA
ATOM     20  C   UNL     1      47.082   4.265  15.673  0.00  0.00    +0.000 A 
ATOM     21  C   UNL     1      48.076   5.227  15.913  0.00  0.00    +0.000 A 
ATOM     22  N   UNL     1      48.767   5.352  17.077  0.00  0.00    +0.000 NA
BRANCH  17  24
ATOM     23  N   UNL     1      48.524   3.905  20.387  0.00  0.00    +0.000 N 
ATOM     24  C   UNL     1      49.168   4.464  19.316  0.00  0.00    +0.000 C 
ATOM     25  O   UNL     1      50.282   4.959  19.423  0.00  0.00    +0.000 OA
ATOM     26  H   UNL     1      48.983   3.884  21.286  0.00  0.00    +0.000 HD
ATOM     27  H   UNL     1      47.610   3.481  20.268  0.00  0.00    +0.000 HD
ENDBRANCH  17  24
ENDBRANCH  15  20
ENDBRANCH   1  15
TORSDOF 5
ENDMDL
MODEL 8
REMARK VINA RESULT:    -6.875      5.751      7.689
REMARK INTER + INTRA:          -9.595
REMARK INTER:                  -8.944
REMARK INTRA:                  -0.651
REMARK UNBOUND:                -0.710
REMARK  Name = 
REMARK  5 active torsions:
REMARK  status: ('A' for Active; 'I' for Inactive)
REMARK    1  A    between atoms: C_2  and  C_4
REMARK    2  A    between atoms: C_7  and  N_8
REMARK    3  A    between atoms: N_8  and  C_9
REMARK    4  A    between atoms: C_9  and  C_10
REMARK    5  A    between atoms: C_15  and  C_16
REMARK                            x       y       z     vdW  Elec       q    Type
REMARK                         _______ _______ _______ _____ _____    ______ ____
ROOT
ATOM      1  C   UNL     1      48.649   6.500  15.872  0.00  0.00    +0.000 C 
ENDROOT
BRANCH   1   2
ATOM      2  C   UNL     1      48.238   6.580  14.416  0.00  0.00    +0.000 A 
ATOM      3  C   UNL     1      48.958   7.333  13.485  0.00  0.00    +0.000 A 
ATOM      4  C   UNL     1      48.528   7.380  12.160  0.00  0.00    +0.000 A 
ATOM      5  F   UNL     1      49.227   8.101  11.272  0.00  0.00    +0.000 F 
ATOM      6  C   UNL     1      47.398   6.690  11.734  0.00  0.00    +0.000 A 
ATOM      7  C   UNL     1      46.656   5.931  12.648  0.00  0.00    +0.000 A 
ATOM      8  C   UNL     1      47.086   5.895  13.986  0.00  0.00    +0.000 A 
BRANCH   7   9
ATOM      9  C   UNL     1      45.435   5.150  12.196  0.00  0.00    +0.000 C 
ATOM     10  C   UNL     1      45.248   5.195  10.672  0.00  0.00    +0.000 C 
ATOM     11  C   UNL     1      43.943   4.523  10.267  0.00  0.00    +0.000 C 
ATOM     12  O   UNL     1      42.838   5.105  10.957  0.00  0.00    +0.000 OA
ATOM     13  C   UNL     1      42.933   4.933  12.369  0.00  0.00    +0.000 C 
ATOM     14  C   UNL     1      44.167   5.637  12.914  0.00  0.00    +0.000 C 
ENDBRANCH   7   9
ENDBRANCH   1   2
BRANCH   1  15
ATOM     15  N   UNL     1      48.077   5.286  16.440  0.00  0.00    +0.000 N 
ATOM     16  H   UNL     1      47.301   4.929  15.892  0.00  0.00    +0.000 HD
BRANCH  15  20
ATOM     17  C   UNL     1      50.901   2.458  17.376  0.00  0.00    +0.000 A 
ATOM     18  C   UNL     1      49.705   2.093  16.778  0.00  0.00    +0.000 A 
ATOM     19  N   UNL     1      48.723   2.991  16.491  0.00  0.00    +0.000 NA
ATOM     20  C   UNL     1      48.967   4.279  16.813  0.00  0.00    +0.000 A 
ATOM     21  C   UNL     1      50.181   4.624  17.427  0.00  0.00    +0.000 A 
ATOM     22  N   UNL     1      51.170   3.742  17.734  0.00  0.00    +0.000 NA
BRANCH  17  24
ATOM     23  N   UNL     1      51.501   0.233  18.128  0.00  0.00    +0.000 N 
ATOM     24  C   UNL     1      51.945   1.430  17.631  0.00  0.00    +0.000 C 
ATOM     25  O   UNL     1      53.132   1.634  17.414  0.00  0.00    +0.000 OA
ATOM     26  H   UNL     1      52.164  -0.507  18.306  0.00  0.00    +0.000 HD
ATOM     27  H   UNL     1      50.510   0.080  18.278  0.00  0.00    +0.000 HD
ENDBRANCH  17  24
ENDBRANCH  15  20
ENDBRANCH   1  15
TORSDOF 5
ENDMDL
MODEL 9
REMARK VINA RESULT:    -6.796      4.712      7.388
REMARK INTER + INTRA:          -9.493
REMARK INTER:                  -9.192
REMARK INTRA:                  -0.300
REMARK UNBOUND:                -0.710
REMARK  Name = 
REMARK  5 active torsions:
REMARK  status: ('A' for Active; 'I' for Inactive)
REMARK    1  A    between atoms: C_2  and  C_4
REMARK    2  A    between atoms: C_7  and  N_8
REMARK    3  A    between atoms: N_8  and  C_9
REMARK    4  A    between atoms: C_9  and  C_10
REMARK    5  A    between atoms: C_15  and  C_16
REMARK                            x       y       z     vdW  Elec       q    Type
REMARK                         _______ _______ _______ _____ _____    ______ ____
ROOT
ATOM      1  C   UNL     1      48.904   7.104  12.931  0.00  0.00    +0.000 C 
ENDROOT
BRANCH   1   2
ATOM      2  C   UNL     1      47.479   7.306  12.457  0.00  0.00    +0.000 A 
ATOM      3  C   UNL     1      46.759   8.466  12.753  0.00  0.00    +0.000 A 
ATOM      4  C   UNL     1      45.448   8.594  12.301  0.00  0.00    +0.000 A 
ATOM      5  F   UNL     1      44.765   9.712  12.585  0.00  0.00    +0.000 F 
ATOM      6  C   UNL     1      44.831   7.595  11.554  0.00  0.00    +0.000 A 
ATOM      7  C   UNL     1      45.530   6.420  11.247  0.00  0.00    +0.000 A 
ATOM      8  C   UNL     1      46.849   6.290  11.715  0.00  0.00    +0.000 A 
BRANCH   7   9
ATOM      9  C   UNL     1      44.884   5.330  10.411  0.00  0.00    +0.000 C 
ATOM     10  C   UNL     1      44.682   4.031  11.205  0.00  0.00    +0.000 C 
ATOM     11  C   UNL     1      44.164   2.920  10.302  0.00  0.00    +0.000 C 
ATOM     12  O   UNL     1      45.028   2.731   9.183  0.00  0.00    +0.000 OA
ATOM     13  C   UNL     1      45.101   3.891   8.357  0.00  0.00    +0.000 C 
ATOM     14  C   UNL     1      45.687   5.064   9.128  0.00  0.00    +0.000 C 
ENDBRANCH   7   9
ENDBRANCH   1   2
BRANCH   1  15
ATOM     15  N   UNL     1      48.953   7.388  14.359  0.00  0.00    +0.000 N 
ATOM     16  H   UNL     1      48.569   8.298  14.588  0.00  0.00    +0.000 HD
BRANCH  15  20
ATOM     17  C   UNL     1      47.889   4.402  16.967  0.00  0.00    +0.000 A 
ATOM     18  C   UNL     1      47.512   4.344  15.635  0.00  0.00    +0.000 A 
ATOM     19  N   UNL     1      47.805   5.333  14.746  0.00  0.00    +0.000 NA
ATOM     20  C   UNL     1      48.496   6.390  15.221  0.00  0.00    +0.000 A 
ATOM     21  C   UNL     1      48.859   6.430  16.577  0.00  0.00    +0.000 A 
ATOM     22  N   UNL     1      48.566   5.461  17.485  0.00  0.00    +0.000 NA
BRANCH  17  24
ATOM     23  N   UNL     1      48.346   3.158  18.997  0.00  0.00    +0.000 N 
ATOM     24  C   UNL     1      47.566   3.269  17.877  0.00  0.00    +0.000 C 
ATOM     25  O   UNL     1      46.661   2.479  17.642  0.00  0.00    +0.000 OA
ATOM     26  H   UNL     1      48.162   2.417  19.657  0.00  0.00    +0.000 HD
ATOM     27  H   UNL     1      49.075   3.838  19.180  0.00  0.00    +0.000 HD
ENDBRANCH  17  24
ENDBRANCH  15  20
ENDBRANCH   1  15
TORSDOF 5
ENDMDL
