MODEL 1
REMARK VINA RESULT:    -7.339      0.000      0.000
REMARK INTER + INTRA:          -9.857
REMARK INTER:                  -9.269
REMARK INTRA:                  -0.588
REMARK UNBOUND:                -0.588
REMARK  Name = 
REMARK  9 active torsions:
REMARK  status: ('A' for Active; 'I' for Inactive)
REMARK    1  A    between atoms: C_1  and  C_2
REMARK    2  A    between atoms: C_2  and  N_3
REMARK    3  A    between atoms: C_2  and  C_4
REMARK    4  A    between atoms: C_7  and  C_8
REMARK    5  A    between atoms: C_8  and  N_9
REMARK    6  A    between atoms: C_11  and  C_12
REMARK    7  A    between atoms: C_12  and  C_13
REMARK    8  A    between atoms: C_12  and  C_14
REMARK    9  A    between atoms: C_12  and  C_15
REMARK                            x       y       z     vdW  Elec       q    Type
REMARK                         _______ _______ _______ _____ _____    ______ ____
ROOT
ATOM      1  N   UNL     1      45.310   5.704  11.317  0.00  0.00    +0.000 N 
ATOM      2  C   UNL     1      45.580   7.046  11.222  0.00  0.00    +0.000 A 
ATOM      3  C   UNL     1      46.433   7.419  12.247  0.00  0.00    +0.000 A 
ATOM      4  C   UNL     1      46.683   6.214  13.002  0.00  0.00    +0.000 A 
ATOM      5  C   UNL     1      47.433   5.920  14.162  0.00  0.00    +0.000 A 
ATOM      6  C   UNL     1      47.452   4.622  14.688  0.00  0.00    +0.000 A 
ATOM      7  C   UNL     1      46.747   3.605  14.059  0.00  0.00    +0.000 A 
ATOM      8  C   UNL     1      46.004   3.856  12.907  0.00  0.00    +0.000 A 
ATOM      9  C   UNL     1      45.977   5.166  12.394  0.00  0.00    +0.000 A 
ENDROOT
BRANCH   3  10
ATOM     10  C   UNL     1      46.964   8.827  12.530  0.00  0.00    +0.000 C 
ATOM     11  C   UNL     1      47.188   9.059  14.044  0.00  0.00    +0.000 C 
ATOM     12  C   UNL     1      48.321   9.051  11.829  0.00  0.00    +0.000 C 
ATOM     13  C   UNL     1      45.961   9.895  12.051  0.00  0.00    +0.000 C 
ENDBRANCH   3  10
BRANCH   1  14
ATOM     14  C   UNL     1      44.302   5.022  10.510  0.00  0.00    +0.000 C 
BRANCH  14  18
ATOM     15  C   UNL     1      46.145   2.255   7.836  0.00  0.00    +0.000 A 
ATOM     16  C   UNL     1      45.302   1.758   8.826  0.00  0.00    +0.000 A 
ATOM     17  C   UNL     1      44.658   2.653   9.681  0.00  0.00    +0.000 A 
ATOM     18  C   UNL     1      44.875   4.027   9.542  0.00  0.00    +0.000 A 
ATOM     19  C   UNL     1      45.706   4.431   8.503  0.00  0.00    +0.000 A 
ATOM     20  N   UNL     1      46.345   3.588   7.661  0.00  0.00    +0.000 NA
BRANCH  15  22
ATOM     21  C   UNL     1      46.861  -0.126   7.486  0.00  0.00    +0.000 C 
ATOM     22  C   UNL     1      46.913   1.297   6.929  0.00  0.00    +0.000 C 
BRANCH  22  23
ATOM     23  N   UNL     1      48.324   1.696   6.775  0.00  0.00    +0.000 NA
ATOM     24  H   UNL     1      48.353   2.702   6.964  0.00  0.00    +0.000 HD
ATOM     25  H   UNL     1      48.547   1.642   5.780  0.00  0.00    +0.000 HD
ENDBRANCH  22  23
ENDBRANCH  15  22
ENDBRANCH  14  18
ENDBRANCH   1  14
TORSDOF 5
ENDMDL
MODEL 2
REMARK VINA RESULT:    -7.120      1.192      3.221
REMARK INTER + INTRA:          -9.581
REMARK INTER:                  -9.096
REMARK INTRA:                  -0.485
REMARK UNBOUND:                -0.588
REMARK  Name = 
REMARK  9 active torsions:
REMARK  status: ('A' for Active; 'I' for Inactive)
REMARK    1  A    between atoms: C_1  and  C_2
REMARK    2  A    between atoms: C_2  and  N_3
REMARK    3  A    between atoms: C_2  and  C_4
REMARK    4  A    between atoms: C_7  and  C_8
REMARK    5  A    between atoms: C_8  and  N_9
REMARK    6  A    between atoms: C_11  and  C_12
REMARK    7  A    between atoms: C_12  and  C_13
REMARK    8  A    between atoms: C_12  and  C_14
REMARK    9  A    between atoms: C_12  and  C_15
REMARK                            x       y       z     vdW  Elec       q    Type
REMARK                         _______ _______ _______ _____ _____    ______ ____
ROOT
ATOM      1  N   UNL     1      44.736   6.042  11.462  0.00  0.00    +0.000 N 
ATOM      2  C   UNL     1      45.845   5.695  12.192  0.00  0.00    +0.000 A 
ATOM      3  C   UNL     1      46.460   6.841  12.669  0.00  0.00    +0.000 A 
ATOM      4  C   UNL     1      45.660   7.941  12.185  0.00  0.00    +0.000 A 
ATOM      5  C   UNL     1      45.755   9.347  12.293  0.00  0.00    +0.000 A 
ATOM      6  C   UNL     1      44.817  10.174  11.664  0.00  0.00    +0.000 A 
ATOM      7  C   UNL     1      43.769   9.618  10.944  0.00  0.00    +0.000 A 
ATOM      8  C   UNL     1      43.637   8.235  10.825  0.00  0.00    +0.000 A 
ATOM      9  C   UNL     1      44.594   7.411  11.446  0.00  0.00    +0.000 A 
ENDROOT
BRANCH   3  10
ATOM     10  C   UNL     1      47.741   6.912  13.504  0.00  0.00    +0.000 C 
ATOM     11  C   UNL     1      49.005   6.926  12.610  0.00  0.00    +0.000 C 
ATOM     12  C   UNL     1      47.770   8.201  14.353  0.00  0.00    +0.000 C 
ATOM     13  C   UNL     1      47.856   5.687  14.433  0.00  0.00    +0.000 C 
ENDBRANCH   3  10
BRANCH   1  14
ATOM     14  C   UNL     1      43.964   5.093  10.664  0.00  0.00    +0.000 C 
BRANCH  14  18
ATOM     15  C   UNL     1      46.163   2.515   8.072  0.00  0.00    +0.000 A 
ATOM     16  C   UNL     1      46.268   3.890   7.883  0.00  0.00    +0.000 A 
ATOM     17  C   UNL     1      45.590   4.747   8.749  0.00  0.00    +0.000 A 
ATOM     18  C   UNL     1      44.807   4.220   9.781  0.00  0.00    +0.000 A 
ATOM     19  C   UNL     1      44.790   2.836   9.912  0.00  0.00    +0.000 A 
ATOM     20  N   UNL     1      45.435   1.979   9.087  0.00  0.00    +0.000 NA
BRANCH  15  22
ATOM     21  C   UNL     1      46.800   0.124   7.644  0.00  0.00    +0.000 C 
ATOM     22  C   UNL     1      46.841   1.552   7.100  0.00  0.00    +0.000 C 
BRANCH  22  23
ATOM     23  N   UNL     1      48.244   1.925   6.845  0.00  0.00    +0.000 NA
ATOM     24  H   UNL     1      48.777   1.580   7.649  0.00  0.00    +0.000 HD
ATOM     25  H   UNL     1      48.311   2.939   6.942  0.00  0.00    +0.000 HD
ENDBRANCH  22  23
ENDBRANCH  15  22
ENDBRANCH  14  18
ENDBRANCH   1  14
TORSDOF 5
ENDMDL
MODEL 3
REMARK VINA RESULT:    -5.849      4.192      7.156
REMARK INTER + INTRA:          -7.976
REMARK INTER:                  -7.662
REMARK INTRA:                  -0.314
REMARK UNBOUND:                -0.588
REMARK  Name = 
REMARK  9 active torsions:
REMARK  status: ('A' for Active; 'I' for Inactive)
REMARK    1  A    between atoms: C_1  and  C_2
REMARK    2  A    between atoms: C_2  and  N_3
REMARK    3  A    between atoms: C_2  and  C_4
REMARK    4  A    between atoms: C_7  and  C_8
REMARK    5  A    between atoms: C_8  and  N_9
REMARK    6  A    between atoms: C_11  and  C_12
REMARK    7  A    between atoms: C_12  and  C_13
REMARK    8  A    between atoms: C_12  and  C_14
REMARK    9  A    between atoms: C_12  and  C_15
REMARK                            x       y       z     vdW  Elec       q    Type
REMARK                         _______ _______ _______ _____ _____    ______ ____
ROOT
ATOM      1  N   UNL     1      47.288   5.103  15.044  0.00  0.00    +0.000 N 
ATOM      2  C   UNL     1      48.281   6.049  15.030  0.00  0.00    +0.000 A 
ATOM      3  C   UNL     1      48.268   6.714  13.815  0.00  0.00    +0.000 A 
ATOM      4  C   UNL     1      47.195   6.118  13.058  0.00  0.00    +0.000 A 
ATOM      5  C   UNL     1      46.681   6.319  11.756  0.00  0.00    +0.000 A 
ATOM      6  C   UNL     1      45.623   5.535  11.279  0.00  0.00    +0.000 A 
ATOM      7  C   UNL     1      45.053   4.565  12.092  0.00  0.00    +0.000 A 
ATOM      8  C   UNL     1      45.527   4.346  13.385  0.00  0.00    +0.000 A 
ATOM      9  C   UNL     1      46.601   5.126  13.850  0.00  0.00    +0.000 A 
ENDROOT
BRANCH   3  10
ATOM     10  C   UNL     1      49.224   7.825  13.370  0.00  0.00    +0.000 C 
ATOM     11  C   UNL     1      49.822   7.536  11.971  0.00  0.00    +0.000 C 
ATOM     12  C   UNL     1      48.486   9.177  13.278  0.00  0.00    +0.000 C 
ATOM     13  C   UNL     1      50.406   7.954  14.351  0.00  0.00    +0.000 C 
ENDBRANCH   3  10
BRANCH   1  14
ATOM     14  C   UNL     1      47.140   4.099  16.094  0.00  0.00    +0.000 C 
BRANCH  14  18
ATOM     15  C   UNL     1      50.934   2.658  17.411  0.00  0.00    +0.000 A 
ATOM     16  C   UNL     1      50.520   3.917  17.836  0.00  0.00    +0.000 A 
ATOM     17  C   UNL     1      49.264   4.384  17.449  0.00  0.00    +0.000 A 
ATOM     18  C   UNL     1      48.447   3.595  16.635  0.00  0.00    +0.000 A 
ATOM     19  C   UNL     1      48.931   2.338  16.290  0.00  0.00    +0.000 A 
ATOM     20  N   UNL     1      50.144   1.858  16.647  0.00  0.00    +0.000 NA
BRANCH  15  22
ATOM     21  C   UNL     1      52.353   0.619  17.780  0.00  0.00    +0.000 C 
ATOM     22  C   UNL     1      52.329   2.148  17.764  0.00  0.00    +0.000 C 
BRANCH  22  23
ATOM     23  N   UNL     1      52.781   2.645  19.076  0.00  0.00    +0.000 NA
ATOM     24  H   UNL     1      51.975   2.561  19.702  0.00  0.00    +0.000 HD
ATOM     25  H   UNL     1      52.903   3.655  18.992  0.00  0.00    +0.000 HD
ENDBRANCH  22  23
ENDBRANCH  15  22
ENDBRANCH  14  18
ENDBRANCH   1  14
TORSDOF 5
ENDMDL
MODEL 4
REMARK VINA RESULT:    -5.663      4.376      7.656
REMARK INTER + INTRA:          -7.740
REMARK INTER:                  -7.378
REMARK INTRA:                  -0.362
REMARK UNBOUND:                -0.588
REMARK  Name = 
REMARK  9 active torsions:
REMARK  status: ('A' for Active; 'I' for Inactive)
REMARK    1  A    between atoms: C_1  and  C_2
REMARK    2  A    between atoms: C_2  and  N_3
REMARK    3  A    between atoms: C_2  and  C_4
REMARK    4  A    between atoms: C_7  and  C_8
REMARK    5  A    between atoms: C_8  and  N_9
REMARK    6  A    between atoms: C_11  and  C_12
REMARK    7  A    between atoms: C_12  and  C_13
REMARK    8  A    between atoms: C_12  and  C_14
REMARK    9  A    between atoms: C_12  and  C_15
REMARK                            x       y       z     vdW  Elec       q    Type
REMARK                         _______ _______ _______ _____ _____    ______ ____
ROOT
ATOM      1  N   UNL     1      47.693   5.292  15.316  0.00  0.00    +0.000 N 
ATOM      2  C   UNL     1      46.630   4.658  14.723  0.00  0.00    +0.000 A 
ATOM      3  C   UNL     1      46.460   5.146  13.438  0.00  0.00    +0.000 A 
ATOM      4  C   UNL     1      47.492   6.138  13.259  0.00  0.00    +0.000 A 
ATOM      5  C   UNL     1      47.847   7.007  12.203  0.00  0.00    +0.000 A 
ATOM      6  C   UNL     1      48.910   7.908  12.349  0.00  0.00    +0.000 A 
ATOM      7  C   UNL     1      49.639   7.941  13.529  0.00  0.00    +0.000 A 
ATOM      8  C   UNL     1      49.324   7.091  14.588  0.00  0.00    +0.000 A 
ATOM      9  C   UNL     1      48.245   6.200  14.440  0.00  0.00    +0.000 A 
ENDROOT
BRANCH   3  10
ATOM     10  C   UNL     1      45.375   4.733  12.439  0.00  0.00    +0.000 C 
ATOM     11  C   UNL     1      45.620   5.356  11.042  0.00  0.00    +0.000 C 
ATOM     12  C   UNL     1      45.354   3.201  12.256  0.00  0.00    +0.000 C 
ATOM     13  C   UNL     1      43.988   5.209  12.911  0.00  0.00    +0.000 C 
ENDBRANCH   3  10
BRANCH   1  14
ATOM     14  C   UNL     1      48.032   5.154  16.729  0.00  0.00    +0.000 C 
BRANCH  14  18
ATOM     15  C   UNL     1      51.379   2.683  17.674  0.00  0.00    +0.000 A 
ATOM     16  C   UNL     1      50.209   2.072  17.231  0.00  0.00    +0.000 A 
ATOM     17  C   UNL     1      49.121   2.869  16.877  0.00  0.00    +0.000 A 
ATOM     18  C   UNL     1      49.211   4.260  16.983  0.00  0.00    +0.000 A 
ATOM     19  C   UNL     1      50.431   4.780  17.402  0.00  0.00    +0.000 A 
ATOM     20  N   UNL     1      51.503   4.034  17.754  0.00  0.00    +0.000 NA
BRANCH  15  22
ATOM     21  C   UNL     1      53.831   2.234  17.377  0.00  0.00    +0.000 C 
ATOM     22  C   UNL     1      52.563   1.834  18.131  0.00  0.00    +0.000 C 
BRANCH  22  23
ATOM     23  N   UNL     1      52.321   0.394  17.925  0.00  0.00    +0.000 NA
ATOM     24  H   UNL     1      51.947   0.305  16.976  0.00  0.00    +0.000 HD
ATOM     25  H   UNL     1      51.527   0.135  18.511  0.00  0.00    +0.000 HD
ENDBRANCH  22  23
ENDBRANCH  15  22
ENDBRANCH  14  18
ENDBRANCH   1  14
TORSDOF 5
ENDMDL
MODEL 5
REMARK VINA RESULT:    -5.638      2.688      4.513
REMARK INTER + INTRA:          -7.710
REMARK INTER:                  -6.935
REMARK INTRA:                  -0.775
REMARK UNBOUND:                -0.588
REMARK  Name = 
REMARK  9 active torsions:
REMARK  status: ('A' for Active; 'I' for Inactive)
REMARK    1  A    between atoms: C_1  and  C_2
REMARK    2  A    between atoms: C_2  and  N_3
REMARK    3  A    between atoms: C_2  and  C_4
REMARK    4  A    between atoms: C_7  and  C_8
REMARK    5  A    between atoms: C_8  and  N_9
REMARK    6  A    between atoms: C_11  and  C_12
REMARK    7  A    between atoms: C_12  and  C_13
REMARK    8  A    between atoms: C_12  and  C_14
REMARK    9  A    between atoms: C_12  and  C_15
REMARK                            x       y       z     vdW  Elec       q    Type
REMARK                         _______ _______ _______ _____ _____    ______ ____
ROOT
ATOM      1  N   UNL     1      47.804   8.225  12.966  0.00  0.00    +0.000 N 
ATOM      2  C   UNL     1      48.382   9.084  12.066  0.00  0.00    +0.000 A 
ATOM      3  C   UNL     1      49.722   9.245  12.377  0.00  0.00    +0.000 A 
ATOM      4  C   UNL     1      49.952   8.427  13.543  0.00  0.00    +0.000 A 
ATOM      5  C   UNL     1      51.077   8.173  14.360  0.00  0.00    +0.000 A 
ATOM      6  C   UNL     1      50.972   7.333  15.475  0.00  0.00    +0.000 A 
ATOM      7  C   UNL     1      49.762   6.723  15.778  0.00  0.00    +0.000 A 
ATOM      8  C   UNL     1      48.634   6.942  14.989  0.00  0.00    +0.000 A 
ATOM      9  C   UNL     1      48.743   7.801  13.880  0.00  0.00    +0.000 A 
ENDROOT
BRANCH   3  10
ATOM     10  C   UNL     1      50.730  10.138  11.647  0.00  0.00    +0.000 C 
ATOM     11  C   UNL     1      51.474  11.078  12.628  0.00  0.00    +0.000 C 
ATOM     12  C   UNL     1      51.802   9.285  10.935  0.00  0.00    +0.000 C 
ATOM     13  C   UNL     1      50.020  11.031  10.612  0.00  0.00    +0.000 C 
ENDBRANCH   3  10
BRANCH   1  14
ATOM     14  C   UNL     1      46.367   7.981  13.043  0.00  0.00    +0.000 C 
BRANCH  14  18
ATOM     15  C   UNL     1      44.957   4.267  11.485  0.00  0.00    +0.000 A 
ATOM     16  C   UNL     1      45.433   5.222  10.591  0.00  0.00    +0.000 A 
ATOM     17  C   UNL     1      45.937   6.424  11.088  0.00  0.00    +0.000 A 
ATOM     18  C   UNL     1      45.947   6.660  12.466  0.00  0.00    +0.000 A 
ATOM     19  C   UNL     1      45.483   5.634  13.282  0.00  0.00    +0.000 A 
ATOM     20  N   UNL     1      44.987   4.459  12.830  0.00  0.00    +0.000 NA
BRANCH  15  22
ATOM     21  C   UNL     1      44.361   2.939   9.439  0.00  0.00    +0.000 C 
ATOM     22  C   UNL     1      44.339   2.971  10.968  0.00  0.00    +0.000 C 
BRANCH  22  23
ATOM     23  N   UNL     1      42.949   2.801  11.427  0.00  0.00    +0.000 NA
ATOM     24  H   UNL     1      42.419   2.488  10.609  0.00  0.00    +0.000 HD
ATOM     25  H   UNL     1      42.572   3.733  11.604  0.00  0.00    +0.000 HD
ENDBRANCH  22  23
ENDBRANCH  15  22
ENDBRANCH  14  18
ENDBRANCH   1  14
TORSDOF 5
ENDMDL
MODEL 6
REMARK VINA RESULT:    -5.459      3.612      6.606
REMARK INTER + INTRA:          -7.483
REMARK INTER:                  -6.790
REMARK INTRA:                  -0.693
REMARK UNBOUND:                -0.588
REMARK  Name = 
REMARK  9 active torsions:
REMARK  status: ('A' for Active; 'I' for Inactive)
REMARK    1  A    between atoms: C_1  and  C_2
REMARK    2  A    between atoms: C_2  and  N_3
REMARK    3  A    between atoms: C_2  and  C_4
REMARK    4  A    between atoms: C_7  and  C_8
REMARK    5  A    between atoms: C_8  and  N_9
REMARK    6  A    between atoms: C_11  and  C_12
REMARK    7  A    between atoms: C_12  and  C_13
REMARK    8  A    between atoms: C_12  and  C_14
REMARK    9  A    between atoms: C_12  and  C_15
REMARK                            x       y       z     vdW  Elec       q    Type
REMARK                         _______ _______ _______ _____ _____    ______ ____
ROOT
ATOM      1  N   UNL     1      48.497   6.831  15.408  0.00  0.00    +0.000 N 
ATOM      2  C   UNL     1      48.616   5.799  16.303  0.00  0.00    +0.000 A 
ATOM      3  C   UNL     1      48.829   6.311  17.572  0.00  0.00    +0.000 A 
ATOM      4  C   UNL     1      48.839   7.745  17.416  0.00  0.00    +0.000 A 
ATOM      5  C   UNL     1      49.031   8.829  18.303  0.00  0.00    +0.000 A 
ATOM      6  C   UNL     1      49.019  10.147  17.829  0.00  0.00    +0.000 A 
ATOM      7  C   UNL     1      48.796  10.402  16.483  0.00  0.00    +0.000 A 
ATOM      8  C   UNL     1      48.593   9.358  15.581  0.00  0.00    +0.000 A 
ATOM      9  C   UNL     1      48.623   8.036  16.062  0.00  0.00    +0.000 A 
ENDROOT
BRANCH   3  10
ATOM     10  C   UNL     1      49.044   5.508  18.859  0.00  0.00    +0.000 C 
ATOM     11  C   UNL     1      48.922   3.985  18.608  0.00  0.00    +0.000 C 
ATOM     12  C   UNL     1      50.453   5.762  19.434  0.00  0.00    +0.000 C 
ATOM     13  C   UNL     1      47.986   5.879  19.917  0.00  0.00    +0.000 C 
ENDBRANCH   3  10
BRANCH   1  14
ATOM     14  C   UNL     1      48.453   6.646  13.960  0.00  0.00    +0.000 C 
BRANCH  14  18
ATOM     15  C   UNL     1      44.511   5.610  12.696  0.00  0.00    +0.000 A 
ATOM     16  C   UNL     1      44.953   6.913  12.485  0.00  0.00    +0.000 A 
ATOM     17  C   UNL     1      46.254   7.256  12.853  0.00  0.00    +0.000 A 
ATOM     18  C   UNL     1      47.089   6.298  13.437  0.00  0.00    +0.000 A 
ATOM     19  C   UNL     1      46.571   5.015  13.577  0.00  0.00    +0.000 A 
ATOM     20  N   UNL     1      45.314   4.653  13.232  0.00  0.00    +0.000 NA
BRANCH  15  22
ATOM     21  C   UNL     1      43.044   3.993  11.456  0.00  0.00    +0.000 C 
ATOM     22  C   UNL     1      43.073   5.223  12.363  0.00  0.00    +0.000 C 
BRANCH  22  23
ATOM     23  N   UNL     1      42.347   6.322  11.700  0.00  0.00    +0.000 NA
ATOM     24  H   UNL     1      41.983   5.930  10.826  0.00  0.00    +0.000 HD
ATOM     25  H   UNL     1      43.044   6.994  11.377  0.00  0.00    +0.000 HD
ENDBRANCH  22  23
ENDBRANCH  15  22
ENDBRANCH  14  18
ENDBRANCH   1  14
TORSDOF 5
ENDMDL
MODEL 7
REMARK VINA RESULT:    -5.423      3.967      7.695
REMARK INTER + INTRA:          -7.438
REMARK INTER:                  -6.876
REMARK INTRA:                  -0.562
REMARK UNBOUND:                -0.588
REMARK  Name = 
REMARK  9 active torsions:
REMARK  status: ('A' for Active; 'I' for Inactive)
REMARK    1  A    between atoms: C_1  and  C_2
REMARK    2  A    between atoms: C_2  and  N_3
REMARK    3  A    between atoms: C_2  and  C_4
REMARK    4  A    between atoms: C_7  and  C_8
REMARK    5  A    between atoms: C_8  and  N_9
REMARK    6  A    between atoms: C_11  and  C_12
REMARK    7  A    between atoms: C_12  and  C_13
REMARK    8  A    between atoms: C_12  and  C_14
REMARK    9  A    between atoms: C_12  and  C_15
REMARK                            x       y       z     vdW  Elec       q    Type
REMARK                         _______ _______ _______ _____ _____    ______ ____
ROOT
ATOM      1  N   UNL     1      47.131   4.747  14.421  0.00  0.00    +0.000 N 
ATOM      2  C   UNL     1      47.943   5.850  14.503  0.00  0.00    +0.000 A 
ATOM      3  C   UNL     1      47.774   6.633  13.373  0.00  0.00    +0.000 A 
ATOM      4  C   UNL     1      46.796   5.944  12.566  0.00  0.00    +0.000 A 
ATOM      5  C   UNL     1      46.212   6.193  11.303  0.00  0.00    +0.000 A 
ATOM      6  C   UNL     1      45.291   5.292  10.754  0.00  0.00    +0.000 A 
ATOM      7  C   UNL     1      44.927   4.152  11.457  0.00  0.00    +0.000 A 
ATOM      8  C   UNL     1      45.475   3.878  12.710  0.00  0.00    +0.000 A 
ATOM      9  C   UNL     1      46.412   4.780  13.247  0.00  0.00    +0.000 A 
ENDROOT
BRANCH   3  10
ATOM     10  C   UNL     1      48.505   7.938  13.046  0.00  0.00    +0.000 C 
ATOM     11  C   UNL     1      47.514   9.109  12.833  0.00  0.00    +0.000 C 
ATOM     12  C   UNL     1      49.446   8.343  14.201  0.00  0.00    +0.000 C 
ATOM     13  C   UNL     1      49.323   7.795  11.748  0.00  0.00    +0.000 C 
ENDBRANCH   3  10
BRANCH   1  14
ATOM     14  C   UNL     1      47.197   3.623  15.351  0.00  0.00    +0.000 C 
BRANCH  14  18
ATOM     15  C   UNL     1      49.004   4.751  19.048  0.00  0.00    +0.000 A 
ATOM     16  C   UNL     1      47.729   5.231  18.760  0.00  0.00    +0.000 A 
ATOM     17  C   UNL     1      47.107   4.836  17.575  0.00  0.00    +0.000 A 
ATOM     18  C   UNL     1      47.771   3.981  16.691  0.00  0.00    +0.000 A 
ATOM     19  C   UNL     1      49.026   3.526  17.079  0.00  0.00    +0.000 A 
ATOM     20  N   UNL     1      49.656   3.892  18.220  0.00  0.00    +0.000 NA
BRANCH  15  22
ATOM     21  C   UNL     1      49.995   6.722  20.245  0.00  0.00    +0.000 C 
ATOM     22  C   UNL     1      49.735   5.217  20.304  0.00  0.00    +0.000 C 
BRANCH  22  23
ATOM     23  N   UNL     1      51.020   4.518  20.485  0.00  0.00    +0.000 NA
ATOM     24  H   UNL     1      51.427   4.897  21.345  0.00  0.00    +0.000 HD
ATOM     25  H   UNL     1      51.654   4.857  19.761  0.00  0.00    +0.000 HD
ENDBRANCH  22  23
ENDBRANCH  15  22
ENDBRANCH  14  18
ENDBRANCH   1  14
TORSDOF 5
ENDMDL
MODEL 8
REMARK VINA RESULT:    -5.403      3.115      5.745
REMARK INTER + INTRA:          -7.412
REMARK INTER:                  -7.161
REMARK INTRA:                  -0.251
REMARK UNBOUND:                -0.588
REMARK  Name = 
REMARK  9 active torsions:
REMARK  status: ('A' for Active; 'I' for Inactive)
REMARK    1  A    between atoms: C_1  and  C_2
REMARK    2  A    between atoms: C_2  and  N_3
REMARK    3  A    between atoms: C_2  and  C_4
REMARK    4  A    between atoms: C_7  and  C_8
REMARK    5  A    between atoms: C_8  and  N_9
REMARK    6  A    between atoms: C_11  and  C_12
REMARK    7  A    between atoms: C_12  and  C_13
REMARK    8  A    between atoms: C_12  and  C_14
REMARK    9  A    between atoms: C_12  and  C_15
REMARK                            x       y       z     vdW  Elec       q    Type
REMARK                         _______ _______ _______ _____ _____    ______ ____
ROOT
ATOM      1  N   UNL     1      48.864   8.112  13.129  0.00  0.00    +0.000 N 
ATOM      2  C   UNL     1      50.108   7.705  12.718  0.00  0.00    +0.000 A 
ATOM      3  C   UNL     1      50.577   8.568  11.742  0.00  0.00    +0.000 A 
ATOM      4  C   UNL     1      49.538   9.553  11.562  0.00  0.00    +0.000 A 
ATOM      5  C   UNL     1      49.381  10.672  10.714  0.00  0.00    +0.000 A 
ATOM      6  C   UNL     1      48.207  11.435  10.750  0.00  0.00    +0.000 A 
ATOM      7  C   UNL     1      47.191  11.108  11.638  0.00  0.00    +0.000 A 
ATOM      8  C   UNL     1      47.315  10.017  12.497  0.00  0.00    +0.000 A 
ATOM      9  C   UNL     1      48.491   9.246  12.442  0.00  0.00    +0.000 A 
ENDROOT
BRANCH   3  10
ATOM     10  C   UNL     1      51.909   8.466  10.994  0.00  0.00    +0.000 C 
ATOM     11  C   UNL     1      53.097   8.270  11.968  0.00  0.00    +0.000 C 
ATOM     12  C   UNL     1      51.906   7.259  10.032  0.00  0.00    +0.000 C 
ATOM     13  C   UNL     1      52.187   9.753  10.194  0.00  0.00    +0.000 C 
ENDBRANCH   3  10
BRANCH   1  14
ATOM     14  C   UNL     1      48.004   7.326  14.009  0.00  0.00    +0.000 C 
BRANCH  14  18
ATOM     15  C   UNL     1      45.422   4.506  12.115  0.00  0.00    +0.000 A 
ATOM     16  C   UNL     1      45.770   5.659  11.416  0.00  0.00    +0.000 A 
ATOM     17  C   UNL     1      46.648   6.569  12.004  0.00  0.00    +0.000 A 
ATOM     18  C   UNL     1      47.154   6.323  13.284  0.00  0.00    +0.000 A 
ATOM     19  C   UNL     1      46.776   5.130  13.890  0.00  0.00    +0.000 A 
ATOM     20  N   UNL     1      45.925   4.229  13.346  0.00  0.00    +0.000 NA
BRANCH  15  22
ATOM     21  C   UNL     1      43.135   4.255  11.109  0.00  0.00    +0.000 C 
ATOM     22  C   UNL     1      44.413   3.525  11.523  0.00  0.00    +0.000 C 
BRANCH  22  23
ATOM     23  N   UNL     1      44.063   2.454  12.475  0.00  0.00    +0.000 NA
ATOM     24  H   UNL     1      43.337   2.845  13.082  0.00  0.00    +0.000 HD
ATOM     25  H   UNL     1      44.856   2.341  13.108  0.00  0.00    +0.000 HD
ENDBRANCH  22  23
ENDBRANCH  15  22
ENDBRANCH  14  18
ENDBRANCH   1  14
TORSDOF 5
ENDMDL
MODEL 9
REMARK VINA RESULT:    -5.396      3.529      8.206
REMARK INTER + INTRA:          -7.404
REMARK INTER:                  -6.551
REMARK INTRA:                  -0.852
REMARK UNBOUND:                -0.588
REMARK  Name = 
REMARK  9 active torsions:
REMARK  status: ('A' for Active; 'I' for Inactive)
REMARK    1  A    between atoms: C_1  and  C_2
REMARK    2  A    between atoms: C_2  and  N_3
REMARK    3  A    between atoms: C_2  and  C_4
REMARK    4  A    between atoms: C_7  and  C_8
REMARK    5  A    between atoms: C_8  and  N_9
REMARK    6  A    between atoms: C_11  and  C_12
REMARK    7  A    between atoms: C_12  and  C_13
REMARK    8  A    between atoms: C_12  and  C_14
REMARK    9  A    between atoms: C_12  and  C_15
REMARK                            x       y       z     vdW  Elec       q    Type
REMARK                         _______ _______ _______ _____ _____    ______ ____
ROOT
ATOM      1  N   UNL     1      47.701   6.781  13.138  0.00  0.00    +0.000 N 
ATOM      2  C   UNL     1      47.021   5.600  12.977  0.00  0.00    +0.000 A 
ATOM      3  C   UNL     1      45.799   5.850  12.375  0.00  0.00    +0.000 A 
ATOM      4  C   UNL     1      45.752   7.276  12.167  0.00  0.00    +0.000 A 
ATOM      5  C   UNL     1      44.788   8.160  11.631  0.00  0.00    +0.000 A 
ATOM      6  C   UNL     1      45.028   9.540  11.597  0.00  0.00    +0.000 A 
ATOM      7  C   UNL     1      46.227  10.051  12.073  0.00  0.00    +0.000 A 
ATOM      8  C   UNL     1      47.206   9.208  12.600  0.00  0.00    +0.000 A 
ATOM      9  C   UNL     1      46.950   7.825  12.646  0.00  0.00    +0.000 A 
ENDROOT
BRANCH   3  10
ATOM     10  C   UNL     1      44.718   4.819  12.038  0.00  0.00    +0.000 C 
ATOM     11  C   UNL     1      44.333   4.865  10.538  0.00  0.00    +0.000 C 
ATOM     12  C   UNL     1      45.214   3.388  12.335  0.00  0.00    +0.000 C 
ATOM     13  C   UNL     1      43.433   5.091  12.844  0.00  0.00    +0.000 C 
ENDBRANCH   3  10
BRANCH   1  14
ATOM     14  C   UNL     1      48.936   6.906  13.906  0.00  0.00    +0.000 C 
BRANCH  14  18
ATOM     15  C   UNL     1      48.524   7.155  18.145  0.00  0.00    +0.000 A 
ATOM     16  C   UNL     1      48.575   8.339  17.414  0.00  0.00    +0.000 A 
ATOM     17  C   UNL     1      48.666   8.273  16.024  0.00  0.00    +0.000 A 
ATOM     18  C   UNL     1      48.718   7.030  15.386  0.00  0.00    +0.000 A 
ATOM     19  C   UNL     1      48.626   5.904  16.196  0.00  0.00    +0.000 A 
ATOM     20  N   UNL     1      48.539   5.935  17.546  0.00  0.00    +0.000 NA
BRANCH  15  22
ATOM     21  C   UNL     1      47.484   6.178  20.212  0.00  0.00    +0.000 C 
ATOM     22  C   UNL     1      48.490   7.195  19.671  0.00  0.00    +0.000 C 
BRANCH  22  23
ATOM     23  N   UNL     1      48.135   8.533  20.179  0.00  0.00    +0.000 NA
ATOM     24  H   UNL     1      48.774   9.187  19.719  0.00  0.00    +0.000 HD
ATOM     25  H   UNL     1      48.428   8.573  21.156  0.00  0.00    +0.000 HD
ENDBRANCH  22  23
ENDBRANCH  15  22
ENDBRANCH  14  18
ENDBRANCH   1  14
TORSDOF 5
ENDMDL
