MODEL 1
REMARK VINA RESULT:    -9.212      0.000      0.000
REMARK INTER + INTRA:         -12.914
REMARK INTER:                 -11.904
REMARK INTRA:                  -1.010
REMARK UNBOUND:                -1.010
REMARK  Name = 
REMARK  5 active torsions:
REMARK  status: ('A' for Active; 'I' for Inactive)
REMARK    1  A    between atoms: C_2  and  C_3
REMARK    2  A    between atoms: C_6  and  C_7
REMARK    3  A    between atoms: C_11  and  C_12
REMARK    4  A    between atoms: C_12  and  N_13
REMARK    5  A    between atoms: C_17  and  C_18
REMARK                            x       y       z     vdW  Elec       q    Type
REMARK                         _______ _______ _______ _____ _____    ______ ____
ROOT
ATOM      1  C   UNL     1      43.910   5.131  11.161  0.00  0.00    +0.000 C 
ATOM      2  C   UNL     1      42.626   5.817  11.613  0.00  0.00    +0.000 C 
ATOM      3  C   UNL     1      42.728   4.331  11.686  0.00  0.00    +0.000 C 
ENDROOT
BRANCH   1   4
ATOM      4  N   UNL     1      44.226   5.148   9.721  0.00  0.00    +0.000 N 
ATOM      5  C   UNL     1      45.017   4.179   9.087  0.00  0.00    +0.000 A 
ATOM      6  C   UNL     1      44.966   2.825   9.406  0.00  0.00    +0.000 A 
ATOM      7  C   UNL     1      45.712   1.903   8.668  0.00  0.00    +0.000 A 
ATOM      8  C   UNL     1      46.510   2.356   7.624  0.00  0.00    +0.000 A 
ATOM      9  C   UNL     1      46.503   3.717   7.360  0.00  0.00    +0.000 A 
ATOM     10  N   UNL     1      45.782   4.627   8.069  0.00  0.00    +0.000 NA
ATOM     11  H   UNL     1      44.535   6.041   9.341  0.00  0.00    +0.000 HD
BRANCH   8  12
ATOM     12  C   UNL     1      47.322   1.456   6.778  0.00  0.00    +0.000 C 
ATOM     13  N   UNL     1      48.320   2.024   6.034  0.00  0.00    +0.000 N 
ATOM     14  O   UNL     1      47.097   0.256   6.722  0.00  0.00    +0.000 OA
ATOM     15  H   UNL     1      48.399   3.018   5.878  0.00  0.00    +0.000 HD
ATOM     16  H   UNL     1      48.810   1.411   5.394  0.00  0.00    +0.000 HD
ENDBRANCH   8  12
ENDBRANCH   1   4
BRANCH   1  21
ATOM     17  C   UNL     1      47.208   6.572  12.562  0.00  0.00    +0.000 A 
ATOM     18  C   UNL     1      47.417   5.730  13.665  0.00  0.00    +0.000 A 
ATOM     19  C   UNL     1      46.506   4.719  13.975  0.00  0.00    +0.000 A 
ATOM     20  C   UNL     1      45.376   4.522  13.180  0.00  0.00    +0.000 A 
ATOM     21  C   UNL     1      45.128   5.329  12.059  0.00  0.00    +0.000 A 
ATOM     22  C   UNL     1      46.051   6.353  11.790  0.00  0.00    +0.000 A 
BRANCH  17  26
ATOM     23  C   UNL     1      49.942   9.613  11.425  0.00  0.00    +0.000 A 
ATOM     24  C   UNL     1      48.617   9.973  11.626  0.00  0.00    +0.000 A 
ATOM     25  C   UNL     1      47.712   8.986  12.022  0.00  0.00    +0.000 A 
ATOM     26  C   UNL     1      48.138   7.664  12.211  0.00  0.00    +0.000 A 
ATOM     27  C   UNL     1      49.501   7.432  12.006  0.00  0.00    +0.000 A 
ATOM     28  N   UNL     1      50.407   8.360  11.611  0.00  0.00    +0.000 NA
BRANCH  23  30
ATOM     29  N   UNL     1      51.691  11.341  10.578  0.00  0.00    +0.000 NA
ATOM     30  C   UNL     1      50.906  10.583  10.974  0.00  0.00    +0.000 C 
ENDBRANCH  23  30
ENDBRANCH  17  26
ENDBRANCH   1  21
TORSDOF 5
ENDMDL
MODEL 2
REMARK VINA RESULT:    -8.700      2.852      4.559
REMARK INTER + INTRA:         -12.253
REMARK INTER:                 -11.436
REMARK INTRA:                  -0.816
REMARK UNBOUND:                -1.010
REMARK  Name = 
REMARK  5 active torsions:
REMARK  status: ('A' for Active; 'I' for Inactive)
REMARK    1  A    between atoms: C_2  and  C_3
REMARK    2  A    between atoms: C_6  and  C_7
REMARK    3  A    between atoms: C_11  and  C_12
REMARK    4  A    between atoms: C_12  and  N_13
REMARK    5  A    between atoms: C_17  and  C_18
REMARK                            x       y       z     vdW  Elec       q    Type
REMARK                         _______ _______ _______ _____ _____    ______ ____
ROOT
ATOM      1  C   UNL     1      44.194   4.960  11.423  0.00  0.00    +0.000 C 
ATOM      2  C   UNL     1      42.911   5.404  12.116  0.00  0.00    +0.000 C 
ATOM      3  C   UNL     1      43.368   3.992  12.257  0.00  0.00    +0.000 C 
ENDROOT
BRANCH   1   4
ATOM      4  N   UNL     1      44.185   4.880   9.951  0.00  0.00    +0.000 N 
ATOM      5  C   UNL     1      44.984   3.992   9.216  0.00  0.00    +0.000 A 
ATOM      6  C   UNL     1      45.247   2.688   9.622  0.00  0.00    +0.000 A 
ATOM      7  C   UNL     1      45.971   1.828   8.793  0.00  0.00    +0.000 A 
ATOM      8  C   UNL     1      46.431   2.295   7.568  0.00  0.00    +0.000 A 
ATOM      9  C   UNL     1      46.123   3.603   7.227  0.00  0.00    +0.000 A 
ATOM     10  N   UNL     1      45.419   4.452   8.023  0.00  0.00    +0.000 NA
ATOM     11  H   UNL     1      44.239   5.768   9.454  0.00  0.00    +0.000 HD
BRANCH   8  12
ATOM     12  C   UNL     1      47.192   1.457   6.617  0.00  0.00    +0.000 C 
ATOM     13  N   UNL     1      48.122   2.083   5.832  0.00  0.00    +0.000 N 
ATOM     14  O   UNL     1      46.983   0.257   6.514  0.00  0.00    +0.000 OA
ATOM     15  H   UNL     1      48.173   3.085   5.723  0.00  0.00    +0.000 HD
ATOM     16  H   UNL     1      48.572   1.513   5.126  0.00  0.00    +0.000 HD
ENDBRANCH   8  12
ENDBRANCH   1   4
BRANCH   1  21
ATOM     17  C   UNL     1      47.107   5.605  13.875  0.00  0.00    +0.000 A 
ATOM     18  C   UNL     1      47.878   6.515  13.136  0.00  0.00    +0.000 A 
ATOM     19  C   UNL     1      47.485   6.911  11.856  0.00  0.00    +0.000 A 
ATOM     20  C   UNL     1      46.307   6.414  11.297  0.00  0.00    +0.000 A 
ATOM     21  C   UNL     1      45.494   5.512  12.000  0.00  0.00    +0.000 A 
ATOM     22  C   UNL     1      45.931   5.115  13.275  0.00  0.00    +0.000 A 
BRANCH  17  26
ATOM     23  C   UNL     1      48.188   4.448  17.813  0.00  0.00    +0.000 A 
ATOM     24  C   UNL     1      47.346   3.608  17.098  0.00  0.00    +0.000 A 
ATOM     25  C   UNL     1      47.000   3.967  15.792  0.00  0.00    +0.000 A 
ATOM     26  C   UNL     1      47.496   5.148  15.224  0.00  0.00    +0.000 A 
ATOM     27  C   UNL     1      48.359   5.895  16.033  0.00  0.00    +0.000 A 
ATOM     28  N   UNL     1      48.708   5.585  17.306  0.00  0.00    +0.000 NA
BRANCH  23  30
ATOM     29  N   UNL     1      48.829   3.944  20.282  0.00  0.00    +0.000 NA
ATOM     30  C   UNL     1      48.539   4.147  19.177  0.00  0.00    +0.000 C 
ENDBRANCH  23  30
ENDBRANCH  17  26
ENDBRANCH   1  21
TORSDOF 5
ENDMDL
MODEL 3
REMARK VINA RESULT:    -7.901      2.381      3.058
REMARK INTER + INTRA:         -11.221
REMARK INTER:                 -10.912
REMARK INTRA:                  -0.308
REMARK UNBOUND:                -1.010
REMARK  Name = 
REMARK  5 active torsions:
REMARK  status: ('A' for Active; 'I' for Inactive)
REMARK    1  A    between atoms: C_2  and  C_3
REMARK    2  A    between atoms: C_6  and  C_7
REMARK    3  A    between atoms: C_11  and  C_12
REMARK    4  A    between atoms: C_12  and  N_13
REMARK    5  A    between atoms: C_17  and  C_18
REMARK                            x       y       z     vdW  Elec       q    Type
REMARK                         _______ _______ _______ _____ _____    ______ ____
ROOT
ATOM      1  C   UNL     1      43.984   5.479  11.135  0.00  0.00    +0.000 C 
ATOM      2  C   UNL     1      42.605   5.208  11.725  0.00  0.00    +0.000 C 
ATOM      3  C   UNL     1      43.750   4.332  12.106  0.00  0.00    +0.000 C 
ENDROOT
BRANCH   1   4
ATOM      4  N   UNL     1      44.177   5.218   9.697  0.00  0.00    +0.000 N 
ATOM      5  C   UNL     1      44.925   4.142   9.196  0.00  0.00    +0.000 A 
ATOM      6  C   UNL     1      44.916   2.875   9.770  0.00  0.00    +0.000 A 
ATOM      7  C   UNL     1      45.608   1.825   9.161  0.00  0.00    +0.000 A 
ATOM      8  C   UNL     1      46.311   2.066   7.987  0.00  0.00    +0.000 A 
ATOM      9  C   UNL     1      46.266   3.352   7.469  0.00  0.00    +0.000 A 
ATOM     10  N   UNL     1      45.596   4.384   8.049  0.00  0.00    +0.000 NA
ATOM     11  H   UNL     1      44.443   6.020   9.128  0.00  0.00    +0.000 HD
BRANCH   8  12
ATOM     12  C   UNL     1      47.060   1.018   7.262  0.00  0.00    +0.000 C 
ATOM     13  N   UNL     1      46.775  -0.285   7.568  0.00  0.00    +0.000 N 
ATOM     14  O   UNL     1      47.920   1.300   6.440  0.00  0.00    +0.000 OA
ATOM     15  H   UNL     1      46.245  -0.560   8.381  0.00  0.00    +0.000 HD
ATOM     16  H   UNL     1      47.355  -0.988   7.129  0.00  0.00    +0.000 HD
ENDBRANCH   8  12
ENDBRANCH   1   4
BRANCH   1  21
ATOM     17  C   UNL     1      46.513   7.757  12.960  0.00  0.00    +0.000 A 
ATOM     18  C   UNL     1      46.030   9.025  12.605  0.00  0.00    +0.000 A 
ATOM     19  C   UNL     1      44.916   9.160  11.775  0.00  0.00    +0.000 A 
ATOM     20  C   UNL     1      44.256   8.028  11.295  0.00  0.00    +0.000 A 
ATOM     21  C   UNL     1      44.691   6.737  11.631  0.00  0.00    +0.000 A 
ATOM     22  C   UNL     1      45.830   6.637  12.448  0.00  0.00    +0.000 A 
BRANCH  17  26
ATOM     23  C   UNL     1      49.959   7.082  15.344  0.00  0.00    +0.000 A 
ATOM     24  C   UNL     1      49.768   8.354  14.825  0.00  0.00    +0.000 A 
ATOM     25  C   UNL     1      48.626   8.595  14.056  0.00  0.00    +0.000 A 
ATOM     26  C   UNL     1      47.699   7.572  13.820  0.00  0.00    +0.000 A 
ATOM     27  C   UNL     1      47.986   6.342  14.421  0.00  0.00    +0.000 A 
ATOM     28  N   UNL     1      49.088   6.068  15.163  0.00  0.00    +0.000 NA
BRANCH  23  30
ATOM     29  N   UNL     1      52.115   6.530  16.688  0.00  0.00    +0.000 NA
ATOM     30  C   UNL     1      51.141   6.769  16.106  0.00  0.00    +0.000 C 
ENDBRANCH  23  30
ENDBRANCH  17  26
ENDBRANCH   1  21
TORSDOF 5
ENDMDL
MODEL 4
REMARK VINA RESULT:    -6.960      5.196      8.732
REMARK INTER + INTRA:         -10.005
REMARK INTER:                  -9.059
REMARK INTRA:                  -0.945
REMARK UNBOUND:                -1.010
REMARK  Name = 
REMARK  5 active torsions:
REMARK  status: ('A' for Active; 'I' for Inactive)
REMARK    1  A    between atoms: C_2  and  C_3
REMARK    2  A    between atoms: C_6  and  C_7
REMARK    3  A    between atoms: C_11  and  C_12
REMARK    4  A    between atoms: C_12  and  N_13
REMARK    5  A    between atoms: C_17  and  C_18
REMARK                            x       y       z     vdW  Elec       q    Type
REMARK                         _______ _______ _______ _____ _____    ______ ____
ROOT
ATOM      1  C   UNL     1      49.417   7.325  17.015  0.00  0.00    +0.000 C 
ATOM      2  C   UNL     1      48.897   8.603  17.663  0.00  0.00    +0.000 C 
ATOM      3  C   UNL     1      50.366   8.350  17.618  0.00  0.00    +0.000 C 
ENDROOT
BRANCH   1   4
ATOM      4  N   UNL     1      49.152   6.050  17.706  0.00  0.00    +0.000 N 
ATOM      5  C   UNL     1      49.993   4.930  17.621  0.00  0.00    +0.000 A 
ATOM      6  C   UNL     1      51.382   5.020  17.600  0.00  0.00    +0.000 A 
ATOM      7  C   UNL     1      52.159   3.859  17.613  0.00  0.00    +0.000 A 
ATOM      8  C   UNL     1      51.529   2.621  17.636  0.00  0.00    +0.000 A 
ATOM      9  C   UNL     1      50.142   2.610  17.665  0.00  0.00    +0.000 A 
ATOM     10  N   UNL     1      49.372   3.732  17.654  0.00  0.00    +0.000 NA
ATOM     11  H   UNL     1      48.205   5.684  17.622  0.00  0.00    +0.000 HD
BRANCH   8  12
ATOM     12  C   UNL     1      52.264   1.339  17.666  0.00  0.00    +0.000 C 
ATOM     13  N   UNL     1      51.594   0.240  18.129  0.00  0.00    +0.000 N 
ATOM     14  O   UNL     1      53.434   1.265  17.316  0.00  0.00    +0.000 OA
ATOM     15  H   UNL     1      50.718   0.293  18.627  0.00  0.00    +0.000 HD
ATOM     16  H   UNL     1      52.136  -0.610  18.226  0.00  0.00    +0.000 HD
ENDBRANCH   8  12
ENDBRANCH   1   4
BRANCH   1  21
ATOM     17  C   UNL     1      48.111   6.319  13.522  0.00  0.00    +0.000 A 
ATOM     18  C   UNL     1      49.002   7.020  12.695  0.00  0.00    +0.000 A 
ATOM     19  C   UNL     1      50.004   7.824  13.242  0.00  0.00    +0.000 A 
ATOM     20  C   UNL     1      50.141   7.931  14.627  0.00  0.00    +0.000 A 
ATOM     21  C   UNL     1      49.284   7.240  15.497  0.00  0.00    +0.000 A 
ATOM     22  C   UNL     1      48.271   6.461  14.914  0.00  0.00    +0.000 A 
BRANCH  17  26
ATOM     23  C   UNL     1      44.939   3.865  12.135  0.00  0.00    +0.000 A 
ATOM     24  C   UNL     1      45.142   5.082  11.501  0.00  0.00    +0.000 A 
ATOM     25  C   UNL     1      46.197   5.889  11.934  0.00  0.00    +0.000 A 
ATOM     26  C   UNL     1      47.027   5.474  12.984  0.00  0.00    +0.000 A 
ATOM     27  C   UNL     1      46.739   4.215  13.522  0.00  0.00    +0.000 A 
ATOM     28  N   UNL     1      45.720   3.410  13.137  0.00  0.00    +0.000 NA
BRANCH  23  30
ATOM     29  N   UNL     1      42.963   2.305  11.484  0.00  0.00    +0.000 NA
ATOM     30  C   UNL     1      43.839   3.015  11.758  0.00  0.00    +0.000 C 
ENDBRANCH  23  30
ENDBRANCH  17  26
ENDBRANCH   1  21
TORSDOF 5
ENDMDL
MODEL 5
REMARK VINA RESULT:    -6.458      3.185      7.184
REMARK INTER + INTRA:          -9.355
REMARK INTER:                  -9.550
REMARK INTRA:                   0.194
REMARK UNBOUND:                -1.010
REMARK  Name = 
REMARK  5 active torsions:
REMARK  status: ('A' for Active; 'I' for Inactive)
REMARK    1  A    between atoms: C_2  and  C_3
REMARK    2  A    between atoms: C_6  and  C_7
REMARK    3  A    between atoms: C_11  and  C_12
REMARK    4  A    between atoms: C_12  and  N_13
REMARK    5  A    between atoms: C_17  and  C_18
REMARK                            x       y       z     vdW  Elec       q    Type
REMARK                         _______ _______ _______ _____ _____    ______ ____
ROOT
ATOM      1  C   UNL     1      46.076   7.796  12.519  0.00  0.00    +0.000 C 
ATOM      2  C   UNL     1      45.303   8.919  13.199  0.00  0.00    +0.000 C 
ATOM      3  C   UNL     1      45.982   9.181  11.898  0.00  0.00    +0.000 C 
ENDROOT
BRANCH   1   4
ATOM      4  N   UNL     1      47.327   7.342  13.155  0.00  0.00    +0.000 N 
ATOM      5  C   UNL     1      47.395   6.271  14.058  0.00  0.00    +0.000 A 
ATOM      6  C   UNL     1      46.646   5.107  13.919  0.00  0.00    +0.000 A 
ATOM      7  C   UNL     1      46.835   4.041  14.802  0.00  0.00    +0.000 A 
ATOM      8  C   UNL     1      47.770   4.165  15.823  0.00  0.00    +0.000 A 
ATOM      9  C   UNL     1      48.485   5.350  15.894  0.00  0.00    +0.000 A 
ATOM     10  N   UNL     1      48.313   6.397  15.041  0.00  0.00    +0.000 NA
ATOM     11  H   UNL     1      47.916   8.071  13.554  0.00  0.00    +0.000 HD
BRANCH   8  12
ATOM     12  C   UNL     1      48.052   3.088  16.796  0.00  0.00    +0.000 C 
ATOM     13  N   UNL     1      47.186   2.946  17.845  0.00  0.00    +0.000 N 
ATOM     14  O   UNL     1      49.034   2.368  16.685  0.00  0.00    +0.000 OA
ATOM     15  H   UNL     1      46.501   3.642  18.097  0.00  0.00    +0.000 HD
ATOM     16  H   UNL     1      47.439   2.263  18.549  0.00  0.00    +0.000 HD
ENDBRANCH   8  12
ENDBRANCH   1   4
BRANCH   1  21
ATOM     17  C   UNL     1      44.996   4.858  10.256  0.00  0.00    +0.000 A 
ATOM     18  C   UNL     1      43.729   4.570  10.785  0.00  0.00    +0.000 A 
ATOM     19  C   UNL     1      43.224   5.293  11.867  0.00  0.00    +0.000 A 
ATOM     20  C   UNL     1      43.972   6.327  12.432  0.00  0.00    +0.000 A 
ATOM     21  C   UNL     1      45.239   6.663  11.932  0.00  0.00    +0.000 A 
ATOM     22  C   UNL     1      45.728   5.899  10.859  0.00  0.00    +0.000 A 
BRANCH  17  26
ATOM     23  C   UNL     1      46.801   2.785   7.023  0.00  0.00    +0.000 A 
ATOM     24  C   UNL     1      46.159   2.035   7.997  0.00  0.00    +0.000 A 
ATOM     25  C   UNL     1      45.541   2.706   9.055  0.00  0.00    +0.000 A 
ATOM     26  C   UNL     1      45.573   4.106   9.125  0.00  0.00    +0.000 A 
ATOM     27  C   UNL     1      46.225   4.751   8.069  0.00  0.00    +0.000 A 
ATOM     28  N   UNL     1      46.844   4.134   7.033  0.00  0.00    +0.000 NA
BRANCH  23  30
ATOM     29  N   UNL     1      48.081   1.635   5.073  0.00  0.00    +0.000 NA
ATOM     30  C   UNL     1      47.491   2.141   5.935  0.00  0.00    +0.000 C 
ENDBRANCH  23  30
ENDBRANCH  17  26
ENDBRANCH   1  21
TORSDOF 5
ENDMDL
MODEL 6
REMARK VINA RESULT:    -6.310      2.925      7.153
REMARK INTER + INTRA:          -9.164
REMARK INTER:                  -8.747
REMARK INTRA:                  -0.417
REMARK UNBOUND:                -1.010
REMARK  Name = 
REMARK  5 active torsions:
REMARK  status: ('A' for Active; 'I' for Inactive)
REMARK    1  A    between atoms: C_2  and  C_3
REMARK    2  A    between atoms: C_6  and  C_7
REMARK    3  A    between atoms: C_11  and  C_12
REMARK    4  A    between atoms: C_12  and  N_13
REMARK    5  A    between atoms: C_17  and  C_18
REMARK                            x       y       z     vdW  Elec       q    Type
REMARK                         _______ _______ _______ _____ _____    ______ ____
ROOT
ATOM      1  C   UNL     1      45.177   8.100  12.294  0.00  0.00    +0.000 C 
ATOM      2  C   UNL     1      44.182   9.248  12.420  0.00  0.00    +0.000 C 
ATOM      3  C   UNL     1      45.145   9.236  11.283  0.00  0.00    +0.000 C 
ENDROOT
BRANCH   1   4
ATOM      4  N   UNL     1      46.256   8.016  13.296  0.00  0.00    +0.000 N 
ATOM      5  C   UNL     1      47.619   8.091  12.977  0.00  0.00    +0.000 A 
ATOM      6  C   UNL     1      48.130   8.944  12.003  0.00  0.00    +0.000 A 
ATOM      7  C   UNL     1      49.509   9.037  11.806  0.00  0.00    +0.000 A 
ATOM      8  C   UNL     1      50.360   8.260  12.584  0.00  0.00    +0.000 A 
ATOM      9  C   UNL     1      49.780   7.440  13.540  0.00  0.00    +0.000 A 
ATOM     10  N   UNL     1      48.438   7.339  13.745  0.00  0.00    +0.000 NA
ATOM     11  H   UNL     1      46.177   7.261  13.975  0.00  0.00    +0.000 HD
BRANCH   8  12
ATOM     12  C   UNL     1      51.832   8.300  12.459  0.00  0.00    +0.000 C 
ATOM     13  N   UNL     1      52.388   7.688  11.369  0.00  0.00    +0.000 N 
ATOM     14  O   UNL     1      52.531   8.835  13.308  0.00  0.00    +0.000 OA
ATOM     15  H   UNL     1      51.881   7.054  10.770  0.00  0.00    +0.000 HD
ATOM     16  H   UNL     1      53.399   7.648  11.342  0.00  0.00    +0.000 HD
ENDBRANCH   8  12
ENDBRANCH   1   4
BRANCH   1  21
ATOM     17  C   UNL     1      44.671   4.746  10.448  0.00  0.00    +0.000 A 
ATOM     18  C   UNL     1      43.546   4.243  11.118  0.00  0.00    +0.000 A 
ATOM     19  C   UNL     1      42.958   4.955  12.165  0.00  0.00    +0.000 A 
ATOM     20  C   UNL     1      43.478   6.192  12.552  0.00  0.00    +0.000 A 
ATOM     21  C   UNL     1      44.593   6.745  11.905  0.00  0.00    +0.000 A 
ATOM     22  C   UNL     1      45.175   5.991  10.873  0.00  0.00    +0.000 A 
BRANCH  17  26
ATOM     23  C   UNL     1      46.714   2.738   7.316  0.00  0.00    +0.000 A 
ATOM     24  C   UNL     1      46.024   1.967   8.240  0.00  0.00    +0.000 A 
ATOM     25  C   UNL     1      45.329   2.617   9.264  0.00  0.00    +0.000 A 
ATOM     26  C   UNL     1      45.332   4.016   9.348  0.00  0.00    +0.000 A 
ATOM     27  C   UNL     1      46.038   4.683   8.342  0.00  0.00    +0.000 A 
ATOM     28  N   UNL     1      46.732   4.087   7.341  0.00  0.00    +0.000 NA
BRANCH  23  30
ATOM     29  N   UNL     1      48.128   1.646   5.427  0.00  0.00    +0.000 NA
ATOM     30  C   UNL     1      47.482   2.117   6.268  0.00  0.00    +0.000 C 
ENDBRANCH  23  30
ENDBRANCH  17  26
ENDBRANCH   1  21
TORSDOF 5
ENDMDL
