MODEL 1
REMARK VINA RESULT:    -8.481      0.000      0.000
REMARK INTER + INTRA:         -12.088
REMARK INTER:                 -11.456
REMARK INTRA:                  -0.632
REMARK UNBOUND:                -0.632
REMARK  Name = 
REMARK  7 active torsions:
REMARK  status: ('A' for Active; 'I' for Inactive)
REMARK    1  A    between atoms: C_1  and  O_2
REMARK    2  A    between atoms: O_2  and  C_3
REMARK    3  A    between atoms: C_5  and  C_6
REMARK    4  A    between atoms: C_6  and  N_7
REMARK    5  A    between atoms: N_7  and  C_8
REMARK    6  A    between atoms: C_11  and  C_12
REMARK    7  A    between atoms: C_21  and  C_22
REMARK                            x       y       z     vdW  Elec       q    Type
REMARK                         _______ _______ _______ _____ _____    ______ ____
ROOT
ATOM      1  C   UNL     1      43.851   5.097  11.389  0.00  0.00    +0.000 C 
ATOM      2  C   UNL     1      42.600   5.515  12.130  0.00  0.00    +0.000 C 
ATOM      3  C   UNL     1      43.009   4.080  12.153  0.00  0.00    +0.000 C 
ENDROOT
BRANCH   1   6
ATOM      4  C   UNL     1      47.047   5.132  13.555  0.00  0.00    +0.000 A 
ATOM      5  C   UNL     1      45.893   4.695  12.884  0.00  0.00    +0.000 A 
ATOM      6  C   UNL     1      45.215   5.496  11.944  0.00  0.00    +0.000 A 
ATOM      7  C   UNL     1      45.795   6.732  11.629  0.00  0.00    +0.000 A 
ATOM      8  C   UNL     1      46.967   7.164  12.252  0.00  0.00    +0.000 A 
ATOM      9  C   UNL     1      47.598   6.375  13.228  0.00  0.00    +0.000 A 
BRANCH   4  11
ATOM     10  C   UNL     1      47.150   4.391  15.813  0.00  0.00    +0.000 C 
ATOM     11  O   UNL     1      47.542   4.220  14.453  0.00  0.00    +0.000 OA
ENDBRANCH   4  11
BRANCH   9  12
ATOM     12  C   UNL     1      48.788   6.899  13.821  0.00  0.00    +0.000 C 
ATOM     13  N   UNL     1      49.774   7.285  14.310  0.00  0.00    +0.000 NA
ENDBRANCH   9  12
ENDBRANCH   1   6
BRANCH   1  14
ATOM     14  N   UNL     1      43.879   4.831   9.944  0.00  0.00    +0.000 N 
ATOM     15  H   UNL     1      42.963   4.692   9.525  0.00  0.00    +0.000 HD
BRANCH  14  16
ATOM     16  C   UNL     1      44.884   4.152   9.230  0.00  0.00    +0.000 A 
ATOM     17  C   UNL     1      45.829   4.773   8.408  0.00  0.00    +0.000 A 
ATOM     18  C   UNL     1      46.705   4.011   7.615  0.00  0.00    +0.000 A 
ATOM     19  C   UNL     1      46.622   2.614   7.617  0.00  0.00    +0.000 A 
ATOM     20  C   UNL     1      45.682   1.986   8.435  0.00  0.00    +0.000 A 
ATOM     21  C   UNL     1      44.829   2.750   9.230  0.00  0.00    +0.000 A 
BRANCH  19  22
ATOM     22  C   UNL     1      47.439   1.755   6.720  0.00  0.00    +0.000 C 
ATOM     23  N   UNL     1      48.543   2.309   6.142  0.00  0.00    +0.000 N 
ATOM     24  O   UNL     1      47.150   0.582   6.519  0.00  0.00    +0.000 OA
ATOM     25  H   UNL     1      48.948   3.179   6.456  0.00  0.00    +0.000 HD
ATOM     26  H   UNL     1      49.130   1.677   5.610  0.00  0.00    +0.000 HD
ENDBRANCH  19  22
ENDBRANCH  14  16
ENDBRANCH   1  14
TORSDOF 6
ENDMDL
MODEL 2
REMARK VINA RESULT:    -7.612      1.394      2.301
REMARK INTER + INTRA:         -10.913
REMARK INTER:                 -10.141
REMARK INTRA:                  -0.773
REMARK UNBOUND:                -0.632
REMARK  Name = 
REMARK  7 active torsions:
REMARK  status: ('A' for Active; 'I' for Inactive)
REMARK    1  A    between atoms: C_1  and  O_2
REMARK    2  A    between atoms: O_2  and  C_3
REMARK    3  A    between atoms: C_5  and  C_6
REMARK    4  A    between atoms: C_6  and  N_7
REMARK    5  A    between atoms: N_7  and  C_8
REMARK    6  A    between atoms: C_11  and  C_12
REMARK    7  A    between atoms: C_21  and  C_22
REMARK                            x       y       z     vdW  Elec       q    Type
REMARK                         _______ _______ _______ _____ _____    ______ ____
ROOT
ATOM      1  C   UNL     1      44.001   5.003  11.625  0.00  0.00    +0.000 C 
ATOM      2  C   UNL     1      43.132   6.064  10.987  0.00  0.00    +0.000 C 
ATOM      3  C   UNL     1      42.568   5.236  12.093  0.00  0.00    +0.000 C 
ENDROOT
BRANCH   1   6
ATOM      4  C   UNL     1      46.948   7.025  13.086  0.00  0.00    +0.000 A 
ATOM      5  C   UNL     1      45.767   6.689  12.404  0.00  0.00    +0.000 A 
ATOM      6  C   UNL     1      45.153   5.428  12.531  0.00  0.00    +0.000 A 
ATOM      7  C   UNL     1      45.721   4.536  13.450  0.00  0.00    +0.000 A 
ATOM      8  C   UNL     1      46.869   4.869  14.171  0.00  0.00    +0.000 A 
ATOM      9  C   UNL     1      47.499   6.111  13.989  0.00  0.00    +0.000 A 
BRANCH   4  11
ATOM     10  C   UNL     1      48.340   8.402  11.735  0.00  0.00    +0.000 C 
ATOM     11  O   UNL     1      47.407   8.288  12.806  0.00  0.00    +0.000 OA
ENDBRANCH   4  11
BRANCH   9  12
ATOM     12  C   UNL     1      48.674   6.365  14.762  0.00  0.00    +0.000 C 
ATOM     13  N   UNL     1      49.620   6.615  15.396  0.00  0.00    +0.000 NA
ENDBRANCH   9  12
ENDBRANCH   1   6
BRANCH   1  14
ATOM     14  N   UNL     1      44.193   3.666  11.046  0.00  0.00    +0.000 N 
ATOM     15  H   UNL     1      44.339   2.929  11.731  0.00  0.00    +0.000 HD
BRANCH  14  16
ATOM     16  C   UNL     1      44.803   3.359   9.816  0.00  0.00    +0.000 A 
ATOM     17  C   UNL     1      45.098   2.064   9.379  0.00  0.00    +0.000 A 
ATOM     18  C   UNL     1      45.839   1.852   8.203  0.00  0.00    +0.000 A 
ATOM     19  C   UNL     1      46.320   2.941   7.467  0.00  0.00    +0.000 A 
ATOM     20  C   UNL     1      46.029   4.237   7.896  0.00  0.00    +0.000 A 
ATOM     21  C   UNL     1      45.279   4.437   9.054  0.00  0.00    +0.000 A 
BRANCH  19  22
ATOM     22  C   UNL     1      47.204   2.789   6.282  0.00  0.00    +0.000 C 
ATOM     23  N   UNL     1      48.522   2.515   6.504  0.00  0.00    +0.000 N 
ATOM     24  O   UNL     1      46.768   2.881   5.142  0.00  0.00    +0.000 OA
ATOM     25  H   UNL     1      48.873   2.200   7.396  0.00  0.00    +0.000 HD
ATOM     26  H   UNL     1      49.081   2.327   5.680  0.00  0.00    +0.000 HD
ENDBRANCH  19  22
ENDBRANCH  14  16
ENDBRANCH   1  14
TORSDOF 6
ENDMDL
MODEL 3
REMARK VINA RESULT:    -6.718      1.935      6.945
REMARK INTER + INTRA:          -9.706
REMARK INTER:                 -10.364
REMARK INTRA:                   0.657
REMARK UNBOUND:                -0.632
REMARK  Name = 
REMARK  7 active torsions:
REMARK  status: ('A' for Active; 'I' for Inactive)
REMARK    1  A    between atoms: C_1  and  O_2
REMARK    2  A    between atoms: O_2  and  C_3
REMARK    3  A    between atoms: C_5  and  C_6
REMARK    4  A    between atoms: C_6  and  N_7
REMARK    5  A    between atoms: N_7  and  C_8
REMARK    6  A    between atoms: C_11  and  C_12
REMARK    7  A    between atoms: C_21  and  C_22
REMARK                            x       y       z     vdW  Elec       q    Type
REMARK                         _______ _______ _______ _____ _____    ______ ____
ROOT
ATOM      1  C   UNL     1      44.427   4.644  10.725  0.00  0.00    +0.000 C 
ATOM      2  C   UNL     1      44.155   3.799  11.950  0.00  0.00    +0.000 C 
ATOM      3  C   UNL     1      43.009   4.215  11.090  0.00  0.00    +0.000 C 
ENDROOT
BRANCH   1   6
ATOM      4  C   UNL     1      45.949   2.000   8.358  0.00  0.00    +0.000 A 
ATOM      5  C   UNL     1      45.166   2.610   9.352  0.00  0.00    +0.000 A 
ATOM      6  C   UNL     1      45.104   4.008   9.515  0.00  0.00    +0.000 A 
ATOM      7  C   UNL     1      45.792   4.787   8.575  0.00  0.00    +0.000 A 
ATOM      8  C   UNL     1      46.540   4.198   7.553  0.00  0.00    +0.000 A 
ATOM      9  C   UNL     1      46.634   2.802   7.441  0.00  0.00    +0.000 A 
BRANCH   4  11
ATOM     10  C   UNL     1      46.852  -0.055   7.571  0.00  0.00    +0.000 C 
ATOM     11  O   UNL     1      45.901   0.628   8.383  0.00  0.00    +0.000 OA
ENDBRANCH   4  11
BRANCH   9  12
ATOM     12  C   UNL     1      47.428   2.285   6.370  0.00  0.00    +0.000 C 
ATOM     13  N   UNL     1      48.109   1.888   5.512  0.00  0.00    +0.000 NA
ENDBRANCH   9  12
ENDBRANCH   1   6
BRANCH   1  14
ATOM     14  N   UNL     1      44.604   6.102  10.777  0.00  0.00    +0.000 N 
ATOM     15  H   UNL     1      44.365   6.585   9.915  0.00  0.00    +0.000 HD
BRANCH  14  16
ATOM     16  C   UNL     1      45.568   6.810  11.518  0.00  0.00    +0.000 A 
ATOM     17  C   UNL     1      46.816   6.300  11.886  0.00  0.00    +0.000 A 
ATOM     18  C   UNL     1      47.661   7.019  12.749  0.00  0.00    +0.000 A 
ATOM     19  C   UNL     1      47.248   8.246  13.280  0.00  0.00    +0.000 A 
ATOM     20  C   UNL     1      46.003   8.763  12.917  0.00  0.00    +0.000 A 
ATOM     21  C   UNL     1      45.180   8.051  12.046  0.00  0.00    +0.000 A 
BRANCH  19  22
ATOM     22  C   UNL     1      48.042   9.000  14.285  0.00  0.00    +0.000 C 
ATOM     23  N   UNL     1      47.527   9.115  15.544  0.00  0.00    +0.000 N 
ATOM     24  O   UNL     1      49.131   9.486  14.009  0.00  0.00    +0.000 OA
ATOM     25  H   UNL     1      46.765   8.544  15.878  0.00  0.00    +0.000 HD
ATOM     26  H   UNL     1      48.128   9.555  16.230  0.00  0.00    +0.000 HD
ENDBRANCH  19  22
ENDBRANCH  14  16
ENDBRANCH   1  14
TORSDOF 6
ENDMDL
MODEL 4
REMARK VINA RESULT:    -5.996      3.003      4.829
REMARK INTER + INTRA:          -8.730
REMARK INTER:                  -7.948
REMARK INTRA:                  -0.783
REMARK UNBOUND:                -0.632
REMARK  Name = 
REMARK  7 active torsions:
REMARK  status: ('A' for Active; 'I' for Inactive)
REMARK    1  A    between atoms: C_1  and  O_2
REMARK    2  A    between atoms: O_2  and  C_3
REMARK    3  A    between atoms: C_5  and  C_6
REMARK    4  A    between atoms: C_6  and  N_7
REMARK    5  A    between atoms: N_7  and  C_8
REMARK    6  A    between atoms: C_11  and  C_12
REMARK    7  A    between atoms: C_21  and  C_22
REMARK                            x       y       z     vdW  Elec       q    Type
REMARK                         _______ _______ _______ _____ _____    ______ ____
ROOT
ATOM      1  C   UNL     1      47.858   7.836  12.796  0.00  0.00    +0.000 C 
ATOM      2  C   UNL     1      48.865   7.582  11.696  0.00  0.00    +0.000 C 
ATOM      3  C   UNL     1      48.504   8.990  12.035  0.00  0.00    +0.000 C 
ENDROOT
BRANCH   1   6
ATOM      4  C   UNL     1      48.575   6.037  16.137  0.00  0.00    +0.000 A 
ATOM      5  C   UNL     1      48.401   6.288  14.765  0.00  0.00    +0.000 A 
ATOM      6  C   UNL     1      48.261   7.590  14.247  0.00  0.00    +0.000 A 
ATOM      7  C   UNL     1      48.395   8.651  15.153  0.00  0.00    +0.000 A 
ATOM      8  C   UNL     1      48.614   8.421  16.513  0.00  0.00    +0.000 A 
ATOM      9  C   UNL     1      48.695   7.114  17.019  0.00  0.00    +0.000 A 
BRANCH   4  11
ATOM     10  C   UNL     1      47.427   3.994  16.552  0.00  0.00    +0.000 C 
ATOM     11  O   UNL     1      48.660   4.702  16.446  0.00  0.00    +0.000 OA
ENDBRANCH   4  11
BRANCH   9  12
ATOM     12  C   UNL     1      48.911   6.971  18.425  0.00  0.00    +0.000 C 
ATOM     13  N   UNL     1      49.120   6.885  19.569  0.00  0.00    +0.000 NA
ENDBRANCH   9  12
ENDBRANCH   1   6
BRANCH   1  14
ATOM     14  N   UNL     1      46.405   7.768  12.588  0.00  0.00    +0.000 N 
ATOM     15  H   UNL     1      45.869   8.425  13.149  0.00  0.00    +0.000 HD
BRANCH  14  16
ATOM     16  C   UNL     1      45.651   6.625  12.266  0.00  0.00    +0.000 A 
ATOM     17  C   UNL     1      45.053   5.780  13.205  0.00  0.00    +0.000 A 
ATOM     18  C   UNL     1      44.440   4.579  12.806  0.00  0.00    +0.000 A 
ATOM     19  C   UNL     1      44.449   4.197  11.460  0.00  0.00    +0.000 A 
ATOM     20  C   UNL     1      45.043   5.035  10.516  0.00  0.00    +0.000 A 
ATOM     21  C   UNL     1      45.633   6.232  10.919  0.00  0.00    +0.000 A 
BRANCH  19  22
ATOM     22  C   UNL     1      43.922   2.890  10.987  0.00  0.00    +0.000 C 
ATOM     23  N   UNL     1      44.564   2.286   9.946  0.00  0.00    +0.000 N 
ATOM     24  O   UNL     1      42.959   2.355  11.523  0.00  0.00    +0.000 OA
ATOM     25  H   UNL     1      45.483   2.563   9.634  0.00  0.00    +0.000 HD
ATOM     26  H   UNL     1      44.241   1.356   9.705  0.00  0.00    +0.000 HD
ENDBRANCH  19  22
ENDBRANCH  14  16
ENDBRANCH   1  14
TORSDOF 6
ENDMDL
MODEL 5
REMARK VINA RESULT:    -5.991      2.651      6.858
REMARK INTER + INTRA:          -8.723
REMARK INTER:                  -8.240
REMARK INTRA:                  -0.483
REMARK UNBOUND:                -0.632
REMARK  Name = 
REMARK  7 active torsions:
REMARK  status: ('A' for Active; 'I' for Inactive)
REMARK    1  A    between atoms: C_1  and  O_2
REMARK    2  A    between atoms: O_2  and  C_3
REMARK    3  A    between atoms: C_5  and  C_6
REMARK    4  A    between atoms: C_6  and  N_7
REMARK    5  A    between atoms: N_7  and  C_8
REMARK    6  A    between atoms: C_11  and  C_12
REMARK    7  A    between atoms: C_21  and  C_22
REMARK                            x       y       z     vdW  Elec       q    Type
REMARK                         _______ _______ _______ _____ _____    ______ ____
ROOT
ATOM      1  C   UNL     1      43.758   5.694  11.479  0.00  0.00    +0.000 C 
ATOM      2  C   UNL     1      43.256   5.407  12.878  0.00  0.00    +0.000 C 
ATOM      3  C   UNL     1      42.267   5.560  11.771  0.00  0.00    +0.000 C 
ENDROOT
BRANCH   1   6
ATOM      4  C   UNL     1      45.420   3.755   8.584  0.00  0.00    +0.000 A 
ATOM      5  C   UNL     1      44.951   4.802   9.394  0.00  0.00    +0.000 A 
ATOM      6  C   UNL     1      44.461   4.589  10.697  0.00  0.00    +0.000 A 
ATOM      7  C   UNL     1      44.546   3.284  11.201  0.00  0.00    +0.000 A 
ATOM      8  C   UNL     1      45.051   2.238  10.426  0.00  0.00    +0.000 A 
ATOM      9  C   UNL     1      45.483   2.461   9.109  0.00  0.00    +0.000 A 
BRANCH   4  11
ATOM     10  C   UNL     1      47.183   3.896   6.992  0.00  0.00    +0.000 C 
ATOM     11  O   UNL     1      45.826   4.161   7.337  0.00  0.00    +0.000 OA
ENDBRANCH   4  11
BRANCH   9  12
ATOM     12  C   UNL     1      45.978   1.332   8.385  0.00  0.00    +0.000 C 
ATOM     13  N   UNL     1      46.404   0.398   7.831  0.00  0.00    +0.000 NA
ENDBRANCH   9  12
ENDBRANCH   1   6
BRANCH   1  14
ATOM     14  N   UNL     1      44.121   7.041  11.016  0.00  0.00    +0.000 N 
ATOM     15  H   UNL     1      44.037   7.176  10.012  0.00  0.00    +0.000 HD
BRANCH  14  16
ATOM     16  C   UNL     1      45.091   7.893  11.575  0.00  0.00    +0.000 A 
ATOM     17  C   UNL     1      44.918   9.265  11.780  0.00  0.00    +0.000 A 
ATOM     18  C   UNL     1      45.988  10.070  12.207  0.00  0.00    +0.000 A 
ATOM     19  C   UNL     1      47.256   9.511  12.404  0.00  0.00    +0.000 A 
ATOM     20  C   UNL     1      47.438   8.141  12.202  0.00  0.00    +0.000 A 
ATOM     21  C   UNL     1      46.366   7.349  11.795  0.00  0.00    +0.000 A 
BRANCH  19  22
ATOM     22  C   UNL     1      48.454  10.322  12.744  0.00  0.00    +0.000 C 
ATOM     23  N   UNL     1      48.272  11.427  13.524  0.00  0.00    +0.000 N 
ATOM     24  O   UNL     1      49.573  10.006  12.360  0.00  0.00    +0.000 OA
ATOM     25  H   UNL     1      47.427  11.593  14.050  0.00  0.00    +0.000 HD
ATOM     26  H   UNL     1      49.115  11.909  13.814  0.00  0.00    +0.000 HD
ENDBRANCH  19  22
ENDBRANCH  14  16
ENDBRANCH   1  14
TORSDOF 6
ENDMDL
MODEL 6
REMARK VINA RESULT:    -5.563      2.140      6.341
REMARK INTER + INTRA:          -8.146
REMARK INTER:                  -7.707
REMARK INTRA:                  -0.439
REMARK UNBOUND:                -0.632
REMARK  Name = 
REMARK  7 active torsions:
REMARK  status: ('A' for Active; 'I' for Inactive)
REMARK    1  A    between atoms: C_1  and  O_2
REMARK    2  A    between atoms: O_2  and  C_3
REMARK    3  A    between atoms: C_5  and  C_6
REMARK    4  A    between atoms: C_6  and  N_7
REMARK    5  A    between atoms: N_7  and  C_8
REMARK    6  A    between atoms: C_11  and  C_12
REMARK    7  A    between atoms: C_21  and  C_22
REMARK                            x       y       z     vdW  Elec       q    Type
REMARK                         _______ _______ _______ _____ _____    ______ ____
ROOT
ATOM      1  C   UNL     1      43.730   5.757  11.773  0.00  0.00    +0.000 C 
ATOM      2  C   UNL     1      42.221   5.788  11.870  0.00  0.00    +0.000 C 
ATOM      3  C   UNL     1      42.915   6.831  11.059  0.00  0.00    +0.000 C 
ENDROOT
BRANCH   1   6
ATOM      4  C   UNL     1      45.282   3.871   8.783  0.00  0.00    +0.000 A 
ATOM      5  C   UNL     1      44.845   4.903   9.629  0.00  0.00    +0.000 A 
ATOM      6  C   UNL     1      44.402   4.665  10.945  0.00  0.00    +0.000 A 
ATOM      7  C   UNL     1      44.501   3.351  11.420  0.00  0.00    +0.000 A 
ATOM      8  C   UNL     1      44.976   2.319  10.607  0.00  0.00    +0.000 A 
ATOM      9  C   UNL     1      45.360   2.567   9.279  0.00  0.00    +0.000 A 
BRANCH   4  11
ATOM     10  C   UNL     1      46.979   4.019   7.122  0.00  0.00    +0.000 C 
ATOM     11  O   UNL     1      45.643   4.301   7.530  0.00  0.00    +0.000 OA
ENDBRANCH   4  11
BRANCH   9  12
ATOM     12  C   UNL     1      45.826   1.451   8.517  0.00  0.00    +0.000 C 
ATOM     13  N   UNL     1      46.177   0.515   7.916  0.00  0.00    +0.000 NA
ENDBRANCH   9  12
ENDBRANCH   1   6
BRANCH   1  14
ATOM     14  N   UNL     1      44.614   6.316  12.805  0.00  0.00    +0.000 N 
ATOM     15  H   UNL     1      44.180   7.023  13.392  0.00  0.00    +0.000 HD
BRANCH  14  16
ATOM     16  C   UNL     1      46.006   6.500  12.715  0.00  0.00    +0.000 A 
ATOM     17  C   UNL     1      46.951   5.770  13.441  0.00  0.00    +0.000 A 
ATOM     18  C   UNL     1      48.314   6.115  13.402  0.00  0.00    +0.000 A 
ATOM     19  C   UNL     1      48.739   7.221  12.656  0.00  0.00    +0.000 A 
ATOM     20  C   UNL     1      47.802   7.955  11.928  0.00  0.00    +0.000 A 
ATOM     21  C   UNL     1      46.456   7.594  11.959  0.00  0.00    +0.000 A 
BRANCH  19  22
ATOM     22  C   UNL     1      50.143   7.708  12.663  0.00  0.00    +0.000 C 
ATOM     23  N   UNL     1      50.821   7.676  13.847  0.00  0.00    +0.000 N 
ATOM     24  O   UNL     1      50.688   8.106  11.641  0.00  0.00    +0.000 OA
ATOM     25  H   UNL     1      50.502   7.148  14.646  0.00  0.00    +0.000 HD
ATOM     26  H   UNL     1      51.801   7.928  13.803  0.00  0.00    +0.000 HD
ENDBRANCH  19  22
ENDBRANCH  14  16
ENDBRANCH   1  14
TORSDOF 6
ENDMDL
MODEL 7
REMARK VINA RESULT:    -5.530      4.675      7.052
REMARK INTER + INTRA:          -8.101
REMARK INTER:                  -7.322
REMARK INTRA:                  -0.779
REMARK UNBOUND:                -0.632
REMARK  Name = 
REMARK  7 active torsions:
REMARK  status: ('A' for Active; 'I' for Inactive)
REMARK    1  A    between atoms: C_1  and  O_2
REMARK    2  A    between atoms: O_2  and  C_3
REMARK    3  A    between atoms: C_5  and  C_6
REMARK    4  A    between atoms: C_6  and  N_7
REMARK    5  A    between atoms: N_7  and  C_8
REMARK    6  A    between atoms: C_11  and  C_12
REMARK    7  A    between atoms: C_21  and  C_22
REMARK                            x       y       z     vdW  Elec       q    Type
REMARK                         _______ _______ _______ _____ _____    ______ ____
ROOT
ATOM      1  C   UNL     1      46.379   4.843  13.839  0.00  0.00    +0.000 C 
ATOM      2  C   UNL     1      46.275   3.671  12.887  0.00  0.00    +0.000 C 
ATOM      3  C   UNL     1      45.033   4.405  13.270  0.00  0.00    +0.000 C 
ENDROOT
BRANCH   1   6
ATOM      4  C   UNL     1      46.728   8.449  12.503  0.00  0.00    +0.000 A 
ATOM      5  C   UNL     1      46.220   7.303  13.138  0.00  0.00    +0.000 A 
ATOM      6  C   UNL     1      46.999   6.149  13.349  0.00  0.00    +0.000 A 
ATOM      7  C   UNL     1      48.349   6.218  12.979  0.00  0.00    +0.000 A 
ATOM      8  C   UNL     1      48.882   7.365  12.389  0.00  0.00    +0.000 A 
ATOM      9  C   UNL     1      48.075   8.487  12.135  0.00  0.00    +0.000 A 
BRANCH   4  11
ATOM     10  C   UNL     1      44.708   9.196  11.491  0.00  0.00    +0.000 C 
ATOM     11  O   UNL     1      45.805   9.456  12.363  0.00  0.00    +0.000 OA
ENDBRANCH   4  11
BRANCH   9  12
ATOM     12  C   UNL     1      48.702   9.614  11.520  0.00  0.00    +0.000 C 
ATOM     13  N   UNL     1      49.234  10.542  11.055  0.00  0.00    +0.000 NA
ENDBRANCH   9  12
ENDBRANCH   1   6
BRANCH   1  14
ATOM     14  N   UNL     1      46.449   4.691  15.298  0.00  0.00    +0.000 N 
ATOM     15  H   UNL     1      45.891   5.362  15.818  0.00  0.00    +0.000 HD
BRANCH  14  16
ATOM     16  C   UNL     1      47.552   4.243  16.048  0.00  0.00    +0.000 A 
ATOM     17  C   UNL     1      48.496   5.081  16.648  0.00  0.00    +0.000 A 
ATOM     18  C   UNL     1      49.648   4.551  17.256  0.00  0.00    +0.000 A 
ATOM     19  C   UNL     1      49.881   3.171  17.240  0.00  0.00    +0.000 A 
ATOM     20  C   UNL     1      48.943   2.326  16.644  0.00  0.00    +0.000 A 
ATOM     21  C   UNL     1      47.796   2.861  16.059  0.00  0.00    +0.000 A 
BRANCH  19  22
ATOM     22  C   UNL     1      51.130   2.556  17.761  0.00  0.00    +0.000 C 
ATOM     23  N   UNL     1      51.259   1.201  17.663  0.00  0.00    +0.000 N 
ATOM     24  O   UNL     1      52.027   3.237  18.243  0.00  0.00    +0.000 OA
ATOM     25  H   UNL     1      50.668   0.636  17.072  0.00  0.00    +0.000 HD
ATOM     26  H   UNL     1      52.156   0.820  17.942  0.00  0.00    +0.000 HD
ENDBRANCH  19  22
ENDBRANCH  14  16
ENDBRANCH   1  14
TORSDOF 6
ENDMDL
MODEL 8
REMARK VINA RESULT:    -5.487      3.204      5.474
REMARK INTER + INTRA:          -8.044
REMARK INTER:                  -7.450
REMARK INTRA:                  -0.593
REMARK UNBOUND:                -0.632
REMARK  Name = 
REMARK  7 active torsions:
REMARK  status: ('A' for Active; 'I' for Inactive)
REMARK    1  A    between atoms: C_1  and  O_2
REMARK    2  A    between atoms: O_2  and  C_3
REMARK    3  A    between atoms: C_5  and  C_6
REMARK    4  A    between atoms: C_6  and  N_7
REMARK    5  A    between atoms: N_7  and  C_8
REMARK    6  A    between atoms: C_11  and  C_12
REMARK    7  A    between atoms: C_21  and  C_22
REMARK                            x       y       z     vdW  Elec       q    Type
REMARK                         _______ _______ _______ _____ _____    ______ ____
ROOT
ATOM      1  C   UNL     1      48.387   7.188  13.765  0.00  0.00    +0.000 C 
ATOM      2  C   UNL     1      49.240   7.368  12.529  0.00  0.00    +0.000 C 
ATOM      3  C   UNL     1      48.679   8.576  13.203  0.00  0.00    +0.000 C 
ENDROOT
BRANCH   1   6
ATOM      4  C   UNL     1      51.081   6.522  16.450  0.00  0.00    +0.000 A 
ATOM      5  C   UNL     1      50.397   7.067  15.351  0.00  0.00    +0.000 A 
ATOM      6  C   UNL     1      49.050   6.765  15.073  0.00  0.00    +0.000 A 
ATOM      7  C   UNL     1      48.376   5.959  16.001  0.00  0.00    +0.000 A 
ATOM      8  C   UNL     1      49.028   5.445  17.123  0.00  0.00    +0.000 A 
ATOM      9  C   UNL     1      50.387   5.712  17.353  0.00  0.00    +0.000 A 
BRANCH   4  11
ATOM     10  C   UNL     1      52.942   7.545  15.376  0.00  0.00    +0.000 C 
ATOM     11  O   UNL     1      52.395   6.913  16.531  0.00  0.00    +0.000 OA
ENDBRANCH   4  11
BRANCH   9  12
ATOM     12  C   UNL     1      50.976   5.138  18.522  0.00  0.00    +0.000 C 
ATOM     13  N   UNL     1      51.483   4.705  19.479  0.00  0.00    +0.000 NA
ENDBRANCH   9  12
ENDBRANCH   1   6
BRANCH   1  14
ATOM     14  N   UNL     1      46.958   6.851  13.714  0.00  0.00    +0.000 N 
ATOM     15  H   UNL     1      46.467   6.967  14.597  0.00  0.00    +0.000 HD
BRANCH  14  16
ATOM     16  C   UNL     1      46.349   5.872  12.908  0.00  0.00    +0.000 A 
ATOM     17  C   UNL     1      45.760   6.121  11.665  0.00  0.00    +0.000 A 
ATOM     18  C   UNL     1      45.046   5.115  10.992  0.00  0.00    +0.000 A 
ATOM     19  C   UNL     1      44.888   3.852  11.574  0.00  0.00    +0.000 A 
ATOM     20  C   UNL     1      45.474   3.594  12.814  0.00  0.00    +0.000 A 
ATOM     21  C   UNL     1      46.195   4.593  13.466  0.00  0.00    +0.000 A 
BRANCH  19  22
ATOM     22  C   UNL     1      44.051   2.783  10.970  0.00  0.00    +0.000 C 
ATOM     23  N   UNL     1      44.501   2.196   9.824  0.00  0.00    +0.000 N 
ATOM     24  O   UNL     1      43.004   2.418  11.490  0.00  0.00    +0.000 OA
ATOM     25  H   UNL     1      45.450   2.292   9.495  0.00  0.00    +0.000 HD
ATOM     26  H   UNL     1      43.958   1.410   9.485  0.00  0.00    +0.000 HD
ENDBRANCH  19  22
ENDBRANCH  14  16
ENDBRANCH   1  14
TORSDOF 6
ENDMDL
