MODEL 1
REMARK VINA RESULT:    -6.966      0.000      0.000
REMARK INTER + INTRA:         -11.369
REMARK INTER:                 -10.020
REMARK INTRA:                  -1.348
REMARK UNBOUND:                -1.348
REMARK  Name = 
REMARK  8 active torsions:
REMARK  status: ('A' for Active; 'I' for Inactive)
REMARK    1  A    between atoms: C_2  and  C_23
REMARK    2  A    between atoms: N_3  and  C_4
REMARK    3  A    between atoms: C_4  and  C_5
REMARK    4  A    between atoms: C_8  and  C_9
REMARK    5  A    between atoms: C_9  and  N_10
REMARK    6  A    between atoms: C_11  and  C_13
REMARK    7  A    between atoms: C_13  and  C_14
REMARK    8  A    between atoms: C_14  and  O_16
REMARK                            x       y       z     vdW  Elec       q    Type
REMARK                         _______ _______ _______ _____ _____    ______ ____
ROOT
ATOM      1  C   UNL     1      48.732   8.181  13.546  0.00  0.00    +0.000 A 
ATOM      2  C   UNL     1      48.671   7.445  12.354  0.00  0.00    +0.000 A 
ATOM      3  C   UNL     1      47.483   7.377  11.616  0.00  0.00    +0.000 A 
ATOM      4  C   UNL     1      46.338   8.059  12.045  0.00  0.00    +0.000 A 
ATOM      5  C   UNL     1      46.410   8.819  13.221  0.00  0.00    +0.000 A 
ATOM      6  C   UNL     1      47.596   8.888  13.958  0.00  0.00    +0.000 A 
ENDROOT
BRANCH   1   7
ATOM      7  C   UNL     1      49.993   8.209  14.369  0.00  0.00    +0.000 C 
BRANCH   7  10
ATOM      8  O   UNL     1      49.165   8.563  16.980  0.00  0.00    +0.000 OA
ATOM      9  C   UNL     1      49.514   7.437  16.635  0.00  0.00    +0.000 C 
ATOM     10  N   UNL     1      50.009   7.181  15.379  0.00  0.00    +0.000 N 
ATOM     11  H   UNL     1      50.100   6.221  15.063  0.00  0.00    +0.000 HD
BRANCH   9  12
ATOM     12  C   UNL     1      49.453   6.304  17.566  0.00  0.00    +0.000 A 
ATOM     13  C   UNL     1      50.108   6.376  18.788  0.00  0.00    +0.000 A 
ATOM     14  S   UNL     1      49.914   4.981  19.751  0.00  0.00    +0.000 S 
ATOM     15  C   UNL     1      48.910   4.251  18.585  0.00  0.00    +0.000 A 
ATOM     16  N   UNL     1      48.349   3.033  18.810  0.00  0.00    +0.000 NA
ATOM     17  C   UNL     1      47.581   2.616  17.858  0.00  0.00    +0.000 A 
ATOM     18  N   UNL     1      47.334   3.301  16.697  0.00  0.00    +0.000 N 
ATOM     19  C   UNL     1      47.915   4.514  16.408  0.00  0.00    +0.000 A 
ATOM     20  O   UNL     1      47.731   5.067  15.329  0.00  0.00    +0.000 OA
ATOM     21  C   UNL     1      48.758   5.044  17.463  0.00  0.00    +0.000 A 
ATOM     22  H   UNL     1      46.742   2.910  15.981  0.00  0.00    +0.000 HD
ENDBRANCH   9  12
ENDBRANCH   7  10
ENDBRANCH   1   7
BRANCH   4  23
ATOM     23  C   UNL     1      45.047   7.973  11.273  0.00  0.00    +0.000 C 
BRANCH  23  24
ATOM     24  N   UNL     1      44.810   6.649  10.742  0.00  0.00    +0.000 N 
ATOM     25  C   UNL     1      44.572   5.569  11.569  0.00  0.00    +0.000 C 
ATOM     26  O   UNL     1      44.565   5.659  12.792  0.00  0.00    +0.000 OA
ATOM     27  H   UNL     1      45.054   6.459   9.777  0.00  0.00    +0.000 HD
BRANCH  25  28
ATOM     28  C   UNL     1      44.259   4.247  10.830  0.00  0.00    +0.000 C 
ATOM     29  C   UNL     1      45.492   3.351  10.795  0.00  0.00    +0.000 C 
ATOM     30  C   UNL     1      45.308   2.544   9.536  0.00  0.00    +0.000 C 
ATOM     31  C   UNL     1      44.591   3.510   8.621  0.00  0.00    +0.000 C 
ATOM     32  O   UNL     1      43.864   4.443   9.443  0.00  0.00    +0.000 OA
BRANCH  28  33
ATOM     33  C   UNL     1      43.092   3.541  11.539  0.00  0.00    +0.000 C 
ATOM     34  O   UNL     1      42.933   2.335  11.634  0.00  0.00    +0.000 OA
BRANCH  33  35
ATOM     35  O   UNL     1      42.189   4.427  12.050  0.00  0.00    +0.000 OA
ATOM     36  H   UNL     1      42.510   5.342  11.879  0.00  0.00    +0.000 HD
ENDBRANCH  33  35
ENDBRANCH  28  33
ENDBRANCH  25  28
ENDBRANCH  23  24
ENDBRANCH   4  23
TORSDOF 8
ENDMDL
MODEL 2
REMARK VINA RESULT:    -6.959      2.341      2.777
REMARK INTER + INTRA:         -11.358
REMARK INTER:                  -9.993
REMARK INTRA:                  -1.364
REMARK UNBOUND:                -1.348
REMARK  Name = 
REMARK  8 active torsions:
REMARK  status: ('A' for Active; 'I' for Inactive)
REMARK    1  A    between atoms: C_2  and  C_23
REMARK    2  A    between atoms: N_3  and  C_4
REMARK    3  A    between atoms: C_4  and  C_5
REMARK    4  A    between atoms: C_8  and  C_9
REMARK    5  A    between atoms: C_9  and  N_10
REMARK    6  A    between atoms: C_11  and  C_13
REMARK    7  A    between atoms: C_13  and  C_14
REMARK    8  A    between atoms: C_14  and  O_16
REMARK                            x       y       z     vdW  Elec       q    Type
REMARK                         _______ _______ _______ _____ _____    ______ ____
ROOT
ATOM      1  C   UNL     1      48.965   7.901  16.122  0.00  0.00    +0.000 A 
ATOM      2  C   UNL     1      48.869   6.673  15.452  0.00  0.00    +0.000 A 
ATOM      3  C   UNL     1      48.279   6.595  14.185  0.00  0.00    +0.000 A 
ATOM      4  C   UNL     1      47.789   7.746  13.556  0.00  0.00    +0.000 A 
ATOM      5  C   UNL     1      47.913   8.977  14.214  0.00  0.00    +0.000 A 
ATOM      6  C   UNL     1      48.504   9.056  15.479  0.00  0.00    +0.000 A 
ENDROOT
BRANCH   1   7
ATOM      7  C   UNL     1      49.550   7.976  17.508  0.00  0.00    +0.000 C 
BRANCH   7  10
ATOM      8  O   UNL     1      49.366   5.906  19.328  0.00  0.00    +0.000 OA
ATOM      9  C   UNL     1      50.360   5.953  18.608  0.00  0.00    +0.000 C 
ATOM     10  N   UNL     1      50.572   6.984  17.725  0.00  0.00    +0.000 N 
ATOM     11  H   UNL     1      51.290   6.894  17.013  0.00  0.00    +0.000 HD
BRANCH   9  12
ATOM     12  C   UNL     1      51.398   4.918  18.679  0.00  0.00    +0.000 A 
ATOM     13  C   UNL     1      52.562   5.154  19.399  0.00  0.00    +0.000 A 
ATOM     14  S   UNL     1      53.649   3.839  19.392  0.00  0.00    +0.000 S 
ATOM     15  C   UNL     1      52.580   2.892  18.463  0.00  0.00    +0.000 A 
ATOM     16  N   UNL     1      52.887   1.608  18.136  0.00  0.00    +0.000 NA
ATOM     17  C   UNL     1      51.971   0.997  17.462  0.00  0.00    +0.000 A 
ATOM     18  N   UNL     1      50.782   1.557  17.073  0.00  0.00    +0.000 N 
ATOM     19  C   UNL     1      50.449   2.864  17.342  0.00  0.00    +0.000 A 
ATOM     20  O   UNL     1      49.409   3.356  16.917  0.00  0.00    +0.000 OA
ATOM     21  C   UNL     1      51.430   3.584  18.131  0.00  0.00    +0.000 A 
ATOM     22  H   UNL     1      50.117   1.032  16.526  0.00  0.00    +0.000 HD
ENDBRANCH   9  12
ENDBRANCH   7  10
ENDBRANCH   1   7
BRANCH   4  23
ATOM     23  C   UNL     1      47.128   7.671  12.203  0.00  0.00    +0.000 C 
BRANCH  23  24
ATOM     24  N   UNL     1      46.264   6.518  12.075  0.00  0.00    +0.000 N 
ATOM     25  C   UNL     1      44.957   6.637  11.644  0.00  0.00    +0.000 C 
ATOM     26  O   UNL     1      44.447   7.717  11.364  0.00  0.00    +0.000 OA
ATOM     27  H   UNL     1      46.535   5.653  12.527  0.00  0.00    +0.000 HD
BRANCH  25  28
ATOM     28  C   UNL     1      44.205   5.295  11.490  0.00  0.00    +0.000 C 
ATOM     29  C   UNL     1      45.086   4.135  11.940  0.00  0.00    +0.000 C 
ATOM     30  C   UNL     1      44.593   2.975  11.115  0.00  0.00    +0.000 C 
ATOM     31  C   UNL     1      44.176   3.638   9.822  0.00  0.00    +0.000 C 
ATOM     32  O   UNL     1      43.824   5.003  10.117  0.00  0.00    +0.000 OA
BRANCH  28  33
ATOM     33  C   UNL     1      42.910   5.349  12.318  0.00  0.00    +0.000 C 
ATOM     34  O   UNL     1      42.695   4.746  13.357  0.00  0.00    +0.000 OA
BRANCH  33  35
ATOM     35  O   UNL     1      41.964   6.146  11.742  0.00  0.00    +0.000 OA
ATOM     36  H   UNL     1      42.019   6.047  10.763  0.00  0.00    +0.000 HD
ENDBRANCH  33  35
ENDBRANCH  28  33
ENDBRANCH  25  28
ENDBRANCH  23  24
ENDBRANCH   4  23
TORSDOF 8
ENDMDL
MODEL 3
REMARK VINA RESULT:    -6.817      5.484      7.354
REMARK INTER + INTRA:         -11.154
REMARK INTER:                  -9.764
REMARK INTRA:                  -1.391
REMARK UNBOUND:                -1.348
REMARK  Name = 
REMARK  8 active torsions:
REMARK  status: ('A' for Active; 'I' for Inactive)
REMARK    1  A    between atoms: C_2  and  C_23
REMARK    2  A    between atoms: N_3  and  C_4
REMARK    3  A    between atoms: C_4  and  C_5
REMARK    4  A    between atoms: C_8  and  C_9
REMARK    5  A    between atoms: C_9  and  N_10
REMARK    6  A    between atoms: C_11  and  C_13
REMARK    7  A    between atoms: C_13  and  C_14
REMARK    8  A    between atoms: C_14  and  O_16
REMARK                            x       y       z     vdW  Elec       q    Type
REMARK                         _______ _______ _______ _____ _____    ______ ____
ROOT
ATOM      1  C   UNL     1      50.696   8.479  12.352  0.00  0.00    +0.000 A 
ATOM      2  C   UNL     1      49.563   8.077  11.632  0.00  0.00    +0.000 A 
ATOM      3  C   UNL     1      48.545   7.343  12.252  0.00  0.00    +0.000 A 
ATOM      4  C   UNL     1      48.633   7.012  13.610  0.00  0.00    +0.000 A 
ATOM      5  C   UNL     1      49.753   7.440  14.336  0.00  0.00    +0.000 A 
ATOM      6  C   UNL     1      50.768   8.175  13.717  0.00  0.00    +0.000 A 
ENDROOT
BRANCH   1   7
ATOM      7  C   UNL     1      51.817   9.221  11.671  0.00  0.00    +0.000 C 
BRANCH   7  10
ATOM      8  O   UNL     1      54.254   8.963  10.397  0.00  0.00    +0.000 OA
ATOM      9  C   UNL     1      53.243   8.654   9.772  0.00  0.00    +0.000 C 
ATOM     10  N   UNL     1      51.984   8.817  10.298  0.00  0.00    +0.000 N 
ATOM     11  H   UNL     1      51.191   8.374   9.845  0.00  0.00    +0.000 HD
BRANCH   9  12
ATOM     12  C   UNL     1      53.326   8.122   8.407  0.00  0.00    +0.000 A 
ATOM     13  C   UNL     1      53.266   8.988   7.322  0.00  0.00    +0.000 A 
ATOM     14  S   UNL     1      53.399   8.203   5.814  0.00  0.00    +0.000 S 
ATOM     15  C   UNL     1      53.586   6.684   6.560  0.00  0.00    +0.000 A 
ATOM     16  N   UNL     1      53.796   5.562   5.820  0.00  0.00    +0.000 NA
ATOM     17  C   UNL     1      53.959   4.487   6.517  0.00  0.00    +0.000 A 
ATOM     18  N   UNL     1      53.916   4.429   7.886  0.00  0.00    +0.000 N 
ATOM     19  C   UNL     1      53.661   5.529   8.672  0.00  0.00    +0.000 A 
ATOM     20  O   UNL     1      53.558   5.430   9.890  0.00  0.00    +0.000 OA
ATOM     21  C   UNL     1      53.509   6.770   7.938  0.00  0.00    +0.000 A 
ATOM     22  H   UNL     1      54.027   3.552   8.371  0.00  0.00    +0.000 HD
ENDBRANCH   9  12
ENDBRANCH   7  10
ENDBRANCH   1   7
BRANCH   4  23
ATOM     23  C   UNL     1      47.556   6.200  14.283  0.00  0.00    +0.000 C 
BRANCH  23  24
ATOM     24  N   UNL     1      46.458   5.894  13.392  0.00  0.00    +0.000 N 
ATOM     25  C   UNL     1      46.037   4.596  13.181  0.00  0.00    +0.000 C 
ATOM     26  O   UNL     1      46.573   3.630  13.714  0.00  0.00    +0.000 OA
ATOM     27  H   UNL     1      46.150   6.603  12.737  0.00  0.00    +0.000 HD
BRANCH  25  28
ATOM     28  C   UNL     1      44.801   4.461  12.262  0.00  0.00    +0.000 C 
ATOM     29  C   UNL     1      43.913   3.312  12.727  0.00  0.00    +0.000 C 
ATOM     30  C   UNL     1      43.243   2.847  11.460  0.00  0.00    +0.000 C 
ATOM     31  C   UNL     1      44.301   3.101  10.410  0.00  0.00    +0.000 C 
ATOM     32  O   UNL     1      45.141   4.173  10.877  0.00  0.00    +0.000 OA
BRANCH  28  33
ATOM     33  C   UNL     1      44.023   5.788  12.271  0.00  0.00    +0.000 C 
ATOM     34  O   UNL     1      44.133   6.691  11.458  0.00  0.00    +0.000 OA
BRANCH  33  35
ATOM     35  O   UNL     1      43.181   5.883  13.340  0.00  0.00    +0.000 OA
ATOM     36  H   UNL     1      43.293   6.769  13.756  0.00  0.00    +0.000 HD
ENDBRANCH  33  35
ENDBRANCH  28  33
ENDBRANCH  25  28
ENDBRANCH  23  24
ENDBRANCH   4  23
TORSDOF 8
ENDMDL
MODEL 4
REMARK VINA RESULT:    -6.683      3.266      4.311
REMARK INTER + INTRA:         -10.961
REMARK INTER:                  -9.844
REMARK INTRA:                  -1.117
REMARK UNBOUND:                -1.348
REMARK  Name = 
REMARK  8 active torsions:
REMARK  status: ('A' for Active; 'I' for Inactive)
REMARK    1  A    between atoms: C_2  and  C_23
REMARK    2  A    between atoms: N_3  and  C_4
REMARK    3  A    between atoms: C_4  and  C_5
REMARK    4  A    between atoms: C_8  and  C_9
REMARK    5  A    between atoms: C_9  and  N_10
REMARK    6  A    between atoms: C_11  and  C_13
REMARK    7  A    between atoms: C_13  and  C_14
REMARK    8  A    between atoms: C_14  and  O_16
REMARK                            x       y       z     vdW  Elec       q    Type
REMARK                         _______ _______ _______ _____ _____    ______ ____
ROOT
ATOM      1  C   UNL     1      48.596   5.207  17.471  0.00  0.00    +0.000 A 
ATOM      2  C   UNL     1      48.966   6.431  16.895  0.00  0.00    +0.000 A 
ATOM      3  C   UNL     1      48.601   6.740  15.580  0.00  0.00    +0.000 A 
ATOM      4  C   UNL     1      47.844   5.841  14.820  0.00  0.00    +0.000 A 
ATOM      5  C   UNL     1      47.449   4.631  15.408  0.00  0.00    +0.000 A 
ATOM      6  C   UNL     1      47.812   4.321  16.722  0.00  0.00    +0.000 A 
ENDROOT
BRANCH   1   7
ATOM      7  C   UNL     1      49.037   4.850  18.867  0.00  0.00    +0.000 C 
BRANCH   7  10
ATOM      8  O   UNL     1      51.625   5.814  18.885  0.00  0.00    +0.000 OA
ATOM      9  C   UNL     1      51.464   4.598  18.948  0.00  0.00    +0.000 C 
ATOM     10  N   UNL     1      50.218   4.024  18.873  0.00  0.00    +0.000 N 
ATOM     11  H   UNL     1      50.100   3.048  19.124  0.00  0.00    +0.000 HD
BRANCH   9  12
ATOM     12  C   UNL     1      52.606   3.685  19.074  0.00  0.00    +0.000 A 
ATOM     13  C   UNL     1      53.660   4.008  19.918  0.00  0.00    +0.000 A 
ATOM     14  S   UNL     1      54.891   2.827  19.958  0.00  0.00    +0.000 S 
ATOM     15  C   UNL     1      54.035   1.822  18.882  0.00  0.00    +0.000 A 
ATOM     16  N   UNL     1      54.522   0.604  18.526  0.00  0.00    +0.000 NA
ATOM     17  C   UNL     1      53.753  -0.067  17.734  0.00  0.00    +0.000 A 
ATOM     18  N   UNL     1      52.548   0.377  17.254  0.00  0.00    +0.000 N 
ATOM     19  C   UNL     1      52.038   1.620  17.550  0.00  0.00    +0.000 A 
ATOM     20  O   UNL     1      50.993   2.015  17.047  0.00  0.00    +0.000 OA
ATOM     21  C   UNL     1      52.848   2.398  18.468  0.00  0.00    +0.000 A 
ATOM     22  H   UNL     1      52.005  -0.186  16.618  0.00  0.00    +0.000 HD
ENDBRANCH   9  12
ENDBRANCH   7  10
ENDBRANCH   1   7
BRANCH   4  23
ATOM     23  C   UNL     1      47.466   6.152  13.395  0.00  0.00    +0.000 C 
BRANCH  23  24
ATOM     24  N   UNL     1      46.215   5.537  13.010  0.00  0.00    +0.000 N 
ATOM     25  C   UNL     1      45.745   5.602  11.712  0.00  0.00    +0.000 C 
ATOM     26  O   UNL     1      46.343   6.194  10.820  0.00  0.00    +0.000 OA
ATOM     27  H   UNL     1      45.562   5.263  13.735  0.00  0.00    +0.000 HD
BRANCH  25  28
ATOM     28  C   UNL     1      44.434   4.822  11.462  0.00  0.00    +0.000 C 
ATOM     29  C   UNL     1      44.255   3.729  12.510  0.00  0.00    +0.000 C 
ATOM     30  C   UNL     1      43.451   2.677  11.791  0.00  0.00    +0.000 C 
ATOM     31  C   UNL     1      43.936   2.802  10.364  0.00  0.00    +0.000 C 
ATOM     32  O   UNL     1      44.400   4.152  10.171  0.00  0.00    +0.000 OA
BRANCH  28  33
ATOM     33  C   UNL     1      43.252   5.805  11.493  0.00  0.00    +0.000 C 
ATOM     34  O   UNL     1      42.081   5.516  11.670  0.00  0.00    +0.000 OA
BRANCH  33  35
ATOM     35  O   UNL     1      43.648   7.091  11.262  0.00  0.00    +0.000 OA
ATOM     36  H   UNL     1      42.946   7.702  11.586  0.00  0.00    +0.000 HD
ENDBRANCH  33  35
ENDBRANCH  28  33
ENDBRANCH  25  28
ENDBRANCH  23  24
ENDBRANCH   4  23
TORSDOF 8
ENDMDL
MODEL 5
REMARK VINA RESULT:    -6.587      5.189      8.254
REMARK INTER + INTRA:         -10.823
REMARK INTER:                  -9.333
REMARK INTRA:                  -1.490
REMARK UNBOUND:                -1.348
REMARK  Name = 
REMARK  8 active torsions:
REMARK  status: ('A' for Active; 'I' for Inactive)
REMARK    1  A    between atoms: C_2  and  C_23
REMARK    2  A    between atoms: N_3  and  C_4
REMARK    3  A    between atoms: C_4  and  C_5
REMARK    4  A    between atoms: C_8  and  C_9
REMARK    5  A    between atoms: C_9  and  N_10
REMARK    6  A    between atoms: C_11  and  C_13
REMARK    7  A    between atoms: C_13  and  C_14
REMARK    8  A    between atoms: C_14  and  O_16
REMARK                            x       y       z     vdW  Elec       q    Type
REMARK                         _______ _______ _______ _____ _____    ______ ____
ROOT
ATOM      1  C   UNL     1      47.975   8.466  12.323  0.00  0.00    +0.000 A 
ATOM      2  C   UNL     1      48.826   7.388  12.038  0.00  0.00    +0.000 A 
ATOM      3  C   UNL     1      50.079   7.602  11.452  0.00  0.00    +0.000 A 
ATOM      4  C   UNL     1      50.514   8.899  11.155  0.00  0.00    +0.000 A 
ATOM      5  C   UNL     1      49.675   9.978  11.467  0.00  0.00    +0.000 A 
ATOM      6  C   UNL     1      48.424   9.765  12.054  0.00  0.00    +0.000 A 
ENDROOT
BRANCH   1   7
ATOM      7  C   UNL     1      46.605   8.231  12.902  0.00  0.00    +0.000 C 
BRANCH   7  10
ATOM      8  O   UNL     1      44.411   7.559  11.363  0.00  0.00    +0.000 OA
ATOM      9  C   UNL     1      45.077   6.646  11.845  0.00  0.00    +0.000 C 
ATOM     10  N   UNL     1      46.141   6.884  12.681  0.00  0.00    +0.000 N 
ATOM     11  H   UNL     1      46.785   6.130  12.899  0.00  0.00    +0.000 HD
BRANCH   9  12
ATOM     12  C   UNL     1      44.747   5.241  11.578  0.00  0.00    +0.000 A 
ATOM     13  C   UNL     1      44.041   4.505  12.519  0.00  0.00    +0.000 A 
ATOM     14  S   UNL     1      43.726   2.900  12.036  0.00  0.00    +0.000 S 
ATOM     15  C   UNL     1      44.486   3.147  10.532  0.00  0.00    +0.000 A 
ATOM     16  N   UNL     1      44.526   2.159   9.598  0.00  0.00    +0.000 NA
ATOM     17  C   UNL     1      45.100   2.497   8.490  0.00  0.00    +0.000 A 
ATOM     18  N   UNL     1      45.649   3.727   8.238  0.00  0.00    +0.000 N 
ATOM     19  C   UNL     1      45.672   4.739   9.168  0.00  0.00    +0.000 A 
ATOM     20  O   UNL     1      46.235   5.804   8.937  0.00  0.00    +0.000 OA
ATOM     21  C   UNL     1      45.005   4.423  10.417  0.00  0.00    +0.000 A 
ATOM     22  H   UNL     1      46.105   3.920   7.360  0.00  0.00    +0.000 HD
ENDBRANCH   9  12
ENDBRANCH   7  10
ENDBRANCH   1   7
BRANCH   4  23
ATOM     23  C   UNL     1      51.849   9.141  10.500  0.00  0.00    +0.000 C 
BRANCH  23  24
ATOM     24  N   UNL     1      52.537   7.909  10.180  0.00  0.00    +0.000 N 
ATOM     25  C   UNL     1      53.179   7.732   8.970  0.00  0.00    +0.000 C 
ATOM     26  O   UNL     1      53.191   8.590   8.094  0.00  0.00    +0.000 OA
ATOM     27  H   UNL     1      52.349   7.086  10.739  0.00  0.00    +0.000 HD
BRANCH  25  28
ATOM     28  C   UNL     1      53.928   6.387   8.829  0.00  0.00    +0.000 C 
ATOM     29  C   UNL     1      55.158   6.552   7.943  0.00  0.00    +0.000 C 
ATOM     30  C   UNL     1      55.338   5.189   7.328  0.00  0.00    +0.000 C 
ATOM     31  C   UNL     1      53.916   4.689   7.201  0.00  0.00    +0.000 C 
ATOM     32  O   UNL     1      53.126   5.342   8.213  0.00  0.00    +0.000 OA
BRANCH  28  33
ATOM     33  C   UNL     1      54.328   5.888  10.228  0.00  0.00    +0.000 C 
ATOM     34  O   UNL     1      55.286   6.267  10.880  0.00  0.00    +0.000 OA
BRANCH  33  35
ATOM     35  O   UNL     1      53.491   4.910  10.682  0.00  0.00    +0.000 OA
ATOM     36  H   UNL     1      52.599   5.300  10.834  0.00  0.00    +0.000 HD
ENDBRANCH  33  35
ENDBRANCH  28  33
ENDBRANCH  25  28
ENDBRANCH  23  24
ENDBRANCH   4  23
TORSDOF 8
ENDMDL
MODEL 6
REMARK VINA RESULT:    -6.541      2.972      8.327
REMARK INTER + INTRA:         -10.757
REMARK INTER:                  -9.356
REMARK INTRA:                  -1.402
REMARK UNBOUND:                -1.348
REMARK  Name = 
REMARK  8 active torsions:
REMARK  status: ('A' for Active; 'I' for Inactive)
REMARK    1  A    between atoms: C_2  and  C_23
REMARK    2  A    between atoms: N_3  and  C_4
REMARK    3  A    between atoms: C_4  and  C_5
REMARK    4  A    between atoms: C_8  and  C_9
REMARK    5  A    between atoms: C_9  and  N_10
REMARK    6  A    between atoms: C_11  and  C_13
REMARK    7  A    between atoms: C_13  and  C_14
REMARK    8  A    between atoms: C_14  and  O_16
REMARK                            x       y       z     vdW  Elec       q    Type
REMARK                         _______ _______ _______ _____ _____    ______ ____
ROOT
ATOM      1  C   UNL     1      48.126   8.045  13.076  0.00  0.00    +0.000 A 
ATOM      2  C   UNL     1      47.583   8.565  14.260  0.00  0.00    +0.000 A 
ATOM      3  C   UNL     1      48.344   8.612  15.434  0.00  0.00    +0.000 A 
ATOM      4  C   UNL     1      49.669   8.159  15.444  0.00  0.00    +0.000 A 
ATOM      5  C   UNL     1      50.220   7.668  14.252  0.00  0.00    +0.000 A 
ATOM      6  C   UNL     1      49.461   7.621  13.079  0.00  0.00    +0.000 A 
ENDROOT
BRANCH   1   7
ATOM      7  C   UNL     1      47.290   7.942  11.828  0.00  0.00    +0.000 C 
BRANCH   7  10
ATOM      8  O   UNL     1      44.567   7.484  11.758  0.00  0.00    +0.000 OA
ATOM      9  C   UNL     1      45.315   6.525  11.594  0.00  0.00    +0.000 C 
ATOM     10  N   UNL     1      46.681   6.643  11.684  0.00  0.00    +0.000 N 
ATOM     11  H   UNL     1      47.272   5.888  11.351  0.00  0.00    +0.000 HD
BRANCH   9  12
ATOM     12  C   UNL     1      44.784   5.184  11.325  0.00  0.00    +0.000 A 
ATOM     13  C   UNL     1      43.981   4.556  12.268  0.00  0.00    +0.000 A 
ATOM     14  S   UNL     1      43.435   3.014  11.783  0.00  0.00    +0.000 S 
ATOM     15  C   UNL     1      44.217   3.152  10.276  0.00  0.00    +0.000 A 
ATOM     16  N   UNL     1      44.110   2.172   9.340  0.00  0.00    +0.000 NA
ATOM     17  C   UNL     1      44.722   2.425   8.231  0.00  0.00    +0.000 A 
ATOM     18  N   UNL     1      45.443   3.563   7.979  0.00  0.00    +0.000 N 
ATOM     19  C   UNL     1      45.616   4.559   8.911  0.00  0.00    +0.000 A 
ATOM     20  O   UNL     1      46.327   5.531   8.680  0.00  0.00    +0.000 OA
ATOM     21  C   UNL     1      44.916   4.340  10.162  0.00  0.00    +0.000 A 
ATOM     22  H   UNL     1      45.918   3.690   7.099  0.00  0.00    +0.000 HD
ENDBRANCH   9  12
ENDBRANCH   7  10
ENDBRANCH   1   7
BRANCH   4  23
ATOM     23  C   UNL     1      50.490   8.182  16.707  0.00  0.00    +0.000 C 
BRANCH  23  24
ATOM     24  N   UNL     1      50.058   7.185  17.663  0.00  0.00    +0.000 N 
ATOM     25  C   UNL     1      50.432   5.861  17.546  0.00  0.00    +0.000 C 
ATOM     26  O   UNL     1      51.130   5.447  16.626  0.00  0.00    +0.000 OA
ATOM     27  H   UNL     1      49.288   7.405  18.283  0.00  0.00    +0.000 HD
BRANCH  25  28
ATOM     28  C   UNL     1      49.948   4.951  18.698  0.00  0.00    +0.000 C 
ATOM     29  C   UNL     1      48.705   5.540  19.357  0.00  0.00    +0.000 C 
ATOM     30  C   UNL     1      48.782   5.035  20.774  0.00  0.00    +0.000 C 
ATOM     31  C   UNL     1      50.271   4.977  21.028  0.00  0.00    +0.000 C 
ATOM     32  O   UNL     1      50.930   4.794  19.760  0.00  0.00    +0.000 OA
BRANCH  28  33
ATOM     33  C   UNL     1      49.655   3.548  18.139  0.00  0.00    +0.000 C 
ATOM     34  O   UNL     1      48.569   3.133  17.772  0.00  0.00    +0.000 OA
BRANCH  33  35
ATOM     35  O   UNL     1      50.769   2.760  18.121  0.00  0.00    +0.000 OA
ATOM     36  H   UNL     1      50.665   2.078  17.418  0.00  0.00    +0.000 HD
ENDBRANCH  33  35
ENDBRANCH  28  33
ENDBRANCH  25  28
ENDBRANCH  23  24
ENDBRANCH   4  23
TORSDOF 8
ENDMDL
MODEL 7
REMARK VINA RESULT:    -6.525      3.705      9.083
REMARK INTER + INTRA:         -10.734
REMARK INTER:                  -9.615
REMARK INTRA:                  -1.119
REMARK UNBOUND:                -1.348
REMARK  Name = 
REMARK  8 active torsions:
REMARK  status: ('A' for Active; 'I' for Inactive)
REMARK    1  A    between atoms: C_2  and  C_23
REMARK    2  A    between atoms: N_3  and  C_4
REMARK    3  A    between atoms: C_4  and  C_5
REMARK    4  A    between atoms: C_8  and  C_9
REMARK    5  A    between atoms: C_9  and  N_10
REMARK    6  A    between atoms: C_11  and  C_13
REMARK    7  A    between atoms: C_13  and  C_14
REMARK    8  A    between atoms: C_14  and  O_16
REMARK                            x       y       z     vdW  Elec       q    Type
REMARK                         _______ _______ _______ _____ _____    ______ ____
ROOT
ATOM      1  C   UNL     1      44.882   4.482  12.381  0.00  0.00    +0.000 A 
ATOM      2  C   UNL     1      46.125   4.179  12.955  0.00  0.00    +0.000 A 
ATOM      3  C   UNL     1      46.975   5.199  13.399  0.00  0.00    +0.000 A 
ATOM      4  C   UNL     1      46.591   6.541  13.296  0.00  0.00    +0.000 A 
ATOM      5  C   UNL     1      45.335   6.841  12.750  0.00  0.00    +0.000 A 
ATOM      6  C   UNL     1      44.486   5.823  12.306  0.00  0.00    +0.000 A 
ENDROOT
BRANCH   1   7
ATOM      7  C   UNL     1      43.993   3.388  11.851  0.00  0.00    +0.000 C 
BRANCH   7  10
ATOM      8  O   UNL     1      44.098   3.911   9.141  0.00  0.00    +0.000 OA
ATOM      9  C   UNL     1      44.716   2.938   9.563  0.00  0.00    +0.000 C 
ATOM     10  N   UNL     1      44.664   2.559  10.883  0.00  0.00    +0.000 N 
ATOM     11  H   UNL     1      45.333   1.882  11.236  0.00  0.00    +0.000 HD
BRANCH   9  12
ATOM     12  C   UNL     1      45.523   2.102   8.666  0.00  0.00    +0.000 A 
ATOM     13  C   UNL     1      45.414   0.719   8.725  0.00  0.00    +0.000 A 
ATOM     14  S   UNL     1      46.406  -0.093   7.599  0.00  0.00    +0.000 S 
ATOM     15  C   UNL     1      46.981   1.379   6.964  0.00  0.00    +0.000 A 
ATOM     16  N   UNL     1      47.848   1.397   5.916  0.00  0.00    +0.000 NA
ATOM     17  C   UNL     1      48.172   2.581   5.513  0.00  0.00    +0.000 A 
ATOM     18  N   UNL     1      47.719   3.747   6.072  0.00  0.00    +0.000 N 
ATOM     19  C   UNL     1      46.878   3.777   7.160  0.00  0.00    +0.000 A 
ATOM     20  O   UNL     1      46.548   4.837   7.681  0.00  0.00    +0.000 OA
ATOM     21  C   UNL     1      46.454   2.471   7.627  0.00  0.00    +0.000 A 
ATOM     22  H   UNL     1      48.028   4.642   5.725  0.00  0.00    +0.000 HD
ENDBRANCH   9  12
ENDBRANCH   7  10
ENDBRANCH   1   7
BRANCH   4  23
ATOM     23  C   UNL     1      47.507   7.649  13.748  0.00  0.00    +0.000 C 
BRANCH  23  24
ATOM     24  N   UNL     1      47.876   7.525  15.141  0.00  0.00    +0.000 N 
ATOM     25  C   UNL     1      49.164   7.207  15.524  0.00  0.00    +0.000 C 
ATOM     26  O   UNL     1      50.062   6.992  14.716  0.00  0.00    +0.000 OA
ATOM     27  H   UNL     1      47.142   7.435  15.834  0.00  0.00    +0.000 HD
BRANCH  25  28
ATOM     28  C   UNL     1      49.399   7.195  17.052  0.00  0.00    +0.000 C 
ATOM     29  C   UNL     1      48.800   8.443  17.692  0.00  0.00    +0.000 C 
ATOM     30  C   UNL     1      49.664   8.667  18.906  0.00  0.00    +0.000 C 
ATOM     31  C   UNL     1      51.018   8.174  18.449  0.00  0.00    +0.000 C 
ATOM     32  O   UNL     1      50.807   7.190  17.419  0.00  0.00    +0.000 OA
BRANCH  28  33
ATOM     33  C   UNL     1      48.770   5.923  17.645  0.00  0.00    +0.000 C 
ATOM     34  O   UNL     1      49.328   4.849  17.795  0.00  0.00    +0.000 OA
BRANCH  33  35
ATOM     35  O   UNL     1      47.459   6.104  17.976  0.00  0.00    +0.000 OA
ATOM     36  H   UNL     1      47.305   5.739  18.878  0.00  0.00    +0.000 HD
ENDBRANCH  33  35
ENDBRANCH  28  33
ENDBRANCH  25  28
ENDBRANCH  23  24
ENDBRANCH   4  23
TORSDOF 8
ENDMDL
MODEL 8
REMARK VINA RESULT:    -6.159      1.699      2.075
REMARK INTER + INTRA:         -10.207
REMARK INTER:                  -8.775
REMARK INTRA:                  -1.432
REMARK UNBOUND:                -1.348
REMARK  Name = 
REMARK  8 active torsions:
REMARK  status: ('A' for Active; 'I' for Inactive)
REMARK    1  A    between atoms: C_2  and  C_23
REMARK    2  A    between atoms: N_3  and  C_4
REMARK    3  A    between atoms: C_4  and  C_5
REMARK    4  A    between atoms: C_8  and  C_9
REMARK    5  A    between atoms: C_9  and  N_10
REMARK    6  A    between atoms: C_11  and  C_13
REMARK    7  A    between atoms: C_13  and  C_14
REMARK    8  A    between atoms: C_14  and  O_16
REMARK                            x       y       z     vdW  Elec       q    Type
REMARK                         _______ _______ _______ _____ _____    ______ ____
ROOT
ATOM      1  C   UNL     1      49.455   8.154  13.827  0.00  0.00    +0.000 A 
ATOM      2  C   UNL     1      49.298   7.696  12.511  0.00  0.00    +0.000 A 
ATOM      3  C   UNL     1      48.056   7.777  11.870  0.00  0.00    +0.000 A 
ATOM      4  C   UNL     1      46.951   8.335  12.526  0.00  0.00    +0.000 A 
ATOM      5  C   UNL     1      47.118   8.820  13.831  0.00  0.00    +0.000 A 
ATOM      6  C   UNL     1      48.358   8.740  14.470  0.00  0.00    +0.000 A 
ENDROOT
BRANCH   1   7
ATOM      7  C   UNL     1      50.777   8.016  14.535  0.00  0.00    +0.000 C 
BRANCH   7  10
ATOM      8  O   UNL     1      52.714   6.572  15.875  0.00  0.00    +0.000 OA
ATOM      9  C   UNL     1      51.677   6.838  16.476  0.00  0.00    +0.000 C 
ATOM     10  N   UNL     1      50.630   7.489  15.869  0.00  0.00    +0.000 N 
ATOM     11  H   UNL     1      49.878   7.866  16.436  0.00  0.00    +0.000 HD
BRANCH   9  12
ATOM     12  C   UNL     1      51.486   6.442  17.876  0.00  0.00    +0.000 A 
ATOM     13  C   UNL     1      52.361   6.903  18.851  0.00  0.00    +0.000 A 
ATOM     14  S   UNL     1      51.980   6.362  20.423  0.00  0.00    +0.000 S 
ATOM     15  C   UNL     1      50.605   5.528  19.861  0.00  0.00    +0.000 A 
ATOM     16  N   UNL     1      49.784   4.872  20.723  0.00  0.00    +0.000 NA
ATOM     17  C   UNL     1      48.760   4.316  20.165  0.00  0.00    +0.000 A 
ATOM     18  N   UNL     1      48.492   4.344  18.821  0.00  0.00    +0.000 N 
ATOM     19  C   UNL     1      49.317   4.956  17.907  0.00  0.00    +0.000 A 
ATOM     20  O   UNL     1      49.087   4.902  16.704  0.00  0.00    +0.000 OA
ATOM     21  C   UNL     1      50.463   5.630  18.489  0.00  0.00    +0.000 A 
ATOM     22  H   UNL     1      47.687   3.869  18.444  0.00  0.00    +0.000 HD
ENDBRANCH   9  12
ENDBRANCH   7  10
ENDBRANCH   1   7
BRANCH   4  23
ATOM     23  C   UNL     1      45.603   8.404  11.856  0.00  0.00    +0.000 C 
BRANCH  23  24
ATOM     24  N   UNL     1      44.826   7.200  12.055  0.00  0.00    +0.000 N 
ATOM     25  C   UNL     1      44.943   6.115  11.210  0.00  0.00    +0.000 C 
ATOM     26  O   UNL     1      45.690   6.110  10.237  0.00  0.00    +0.000 OA
ATOM     27  H   UNL     1      44.021   7.236  12.669  0.00  0.00    +0.000 HD
BRANCH  25  28
ATOM     28  C   UNL     1      44.098   4.886  11.618  0.00  0.00    +0.000 C 
ATOM     29  C   UNL     1      44.942   3.902  12.421  0.00  0.00    +0.000 C 
ATOM     30  C   UNL     1      44.307   2.568  12.126  0.00  0.00    +0.000 C 
ATOM     31  C   UNL     1      43.820   2.737  10.705  0.00  0.00    +0.000 C 
ATOM     32  O   UNL     1      43.581   4.139  10.481  0.00  0.00    +0.000 OA
BRANCH  28  33
ATOM     33  C   UNL     1      42.887   5.361  12.438  0.00  0.00    +0.000 C 
ATOM     34  O   UNL     1      42.660   5.095  13.606  0.00  0.00    +0.000 OA
BRANCH  33  35
ATOM     35  O   UNL     1      42.029   6.119  11.695  0.00  0.00    +0.000 OA
ATOM     36  H   UNL     1      41.245   5.572  11.457  0.00  0.00    +0.000 HD
ENDBRANCH  33  35
ENDBRANCH  28  33
ENDBRANCH  25  28
ENDBRANCH  23  24
ENDBRANCH   4  23
TORSDOF 8
ENDMDL
MODEL 9
REMARK VINA RESULT:    -6.155      3.170      4.107
REMARK INTER + INTRA:         -10.202
REMARK INTER:                  -8.749
REMARK INTRA:                  -1.453
REMARK UNBOUND:                -1.348
REMARK  Name = 
REMARK  8 active torsions:
REMARK  status: ('A' for Active; 'I' for Inactive)
REMARK    1  A    between atoms: C_2  and  C_23
REMARK    2  A    between atoms: N_3  and  C_4
REMARK    3  A    between atoms: C_4  and  C_5
REMARK    4  A    between atoms: C_8  and  C_9
REMARK    5  A    between atoms: C_9  and  N_10
REMARK    6  A    between atoms: C_11  and  C_13
REMARK    7  A    between atoms: C_13  and  C_14
REMARK    8  A    between atoms: C_14  and  O_16
REMARK                            x       y       z     vdW  Elec       q    Type
REMARK                         _______ _______ _______ _____ _____    ______ ____
ROOT
ATOM      1  C   UNL     1      49.860   7.882  16.427  0.00  0.00    +0.000 A 
ATOM      2  C   UNL     1      49.859   7.079  15.278  0.00  0.00    +0.000 A 
ATOM      3  C   UNL     1      48.912   7.280  14.267  0.00  0.00    +0.000 A 
ATOM      4  C   UNL     1      47.958   8.299  14.377  0.00  0.00    +0.000 A 
ATOM      5  C   UNL     1      47.980   9.120  15.513  0.00  0.00    +0.000 A 
ATOM      6  C   UNL     1      48.926   8.921  16.522  0.00  0.00    +0.000 A 
ENDROOT
BRANCH   1   7
ATOM      7  C   UNL     1      50.843   7.629  17.540  0.00  0.00    +0.000 C 
BRANCH   7  10
ATOM      8  O   UNL     1      49.846   5.509  19.003  0.00  0.00    +0.000 OA
ATOM      9  C   UNL     1      50.767   5.286  18.223  0.00  0.00    +0.000 C 
ATOM     10  N   UNL     1      51.374   6.290  17.507  0.00  0.00    +0.000 N 
ATOM     11  H   UNL     1      51.988   6.053  16.734  0.00  0.00    +0.000 HD
BRANCH   9  12
ATOM     12  C   UNL     1      51.295   3.930  18.038  0.00  0.00    +0.000 A 
ATOM     13  C   UNL     1      50.476   2.933  17.524  0.00  0.00    +0.000 A 
ATOM     14  S   UNL     1      51.258   1.425  17.357  0.00  0.00    +0.000 S 
ATOM     15  C   UNL     1      52.730   2.065  17.924  0.00  0.00    +0.000 A 
ATOM     16  N   UNL     1      53.849   1.295  17.987  0.00  0.00    +0.000 NA
ATOM     17  C   UNL     1      54.902   1.919  18.400  0.00  0.00    +0.000 A 
ATOM     18  N   UNL     1      54.934   3.238  18.770  0.00  0.00    +0.000 N 
ATOM     19  C   UNL     1      53.819   4.042  18.766  0.00  0.00    +0.000 A 
ATOM     20  O   UNL     1      53.865   5.198  19.171  0.00  0.00    +0.000 OA
ATOM     21  C   UNL     1      52.616   3.398  18.273  0.00  0.00    +0.000 A 
ATOM     22  H   UNL     1      55.785   3.660  19.108  0.00  0.00    +0.000 HD
ENDBRANCH   9  12
ENDBRANCH   7  10
ENDBRANCH   1   7
BRANCH   4  23
ATOM     23  C   UNL     1      46.918   8.509  13.307  0.00  0.00    +0.000 C 
BRANCH  23  24
ATOM     24  N   UNL     1      45.972   7.417  13.236  0.00  0.00    +0.000 N 
ATOM     25  C   UNL     1      46.054   6.451  12.253  0.00  0.00    +0.000 C 
ATOM     26  O   UNL     1      46.911   6.468  11.376  0.00  0.00    +0.000 OA
ATOM     27  H   UNL     1      45.107   7.486  13.759  0.00  0.00    +0.000 HD
BRANCH  25  28
ATOM     28  C   UNL     1      45.012   5.316  12.376  0.00  0.00    +0.000 C 
ATOM     29  C   UNL     1      44.543   4.868  10.996  0.00  0.00    +0.000 C 
ATOM     30  C   UNL     1      43.143   4.371  11.241  0.00  0.00    +0.000 C 
ATOM     31  C   UNL     1      42.660   5.267  12.359  0.00  0.00    +0.000 C 
ATOM     32  O   UNL     1      43.813   5.711  13.100  0.00  0.00    +0.000 OA
BRANCH  28  33
ATOM     33  C   UNL     1      45.639   4.141  13.146  0.00  0.00    +0.000 C 
ATOM     34  O   UNL     1      45.746   2.994  12.745  0.00  0.00    +0.000 OA
BRANCH  33  35
ATOM     35  O   UNL     1      46.058   4.508  14.391  0.00  0.00    +0.000 OA
ATOM     36  H   UNL     1      45.431   4.145  15.058  0.00  0.00    +0.000 HD
ENDBRANCH  33  35
ENDBRANCH  28  33
ENDBRANCH  25  28
ENDBRANCH  23  24
ENDBRANCH   4  23
TORSDOF 8
ENDMDL
