MODEL 1
REMARK VINA RESULT:    -8.195      0.000      0.000
REMARK INTER + INTRA:         -12.215
REMARK INTER:                 -11.069
REMARK INTRA:                  -1.146
REMARK UNBOUND:                -1.146
REMARK  Name = 
REMARK  6 active torsions:
REMARK  status: ('A' for Active; 'I' for Inactive)
REMARK    1  A    between atoms: C_2  and  C_25
REMARK    2  A    between atoms: N_3  and  C_4
REMARK    3  A    between atoms: C_4  and  C_5
REMARK    4  A    between atoms: C_8  and  C_9
REMARK    5  A    between atoms: C_9  and  N_10
REMARK    6  A    between atoms: C_11  and  C_13
REMARK                            x       y       z     vdW  Elec       q    Type
REMARK                         _______ _______ _______ _____ _____    ______ ____
ROOT
ATOM      1  C   UNL     1      44.747   5.768  10.832  0.00  0.00    +0.000 A 
ATOM      2  C   UNL     1      44.146   6.486  11.874  0.00  0.00    +0.000 A 
ATOM      3  C   UNL     1      44.917   7.274  12.735  0.00  0.00    +0.000 A 
ATOM      4  C   UNL     1      46.304   7.374  12.560  0.00  0.00    +0.000 A 
ATOM      5  C   UNL     1      46.907   6.645  11.527  0.00  0.00    +0.000 A 
ATOM      6  C   UNL     1      46.135   5.859  10.666  0.00  0.00    +0.000 A 
ENDROOT
BRANCH   1   7
ATOM      7  C   UNL     1      43.919   4.923   9.900  0.00  0.00    +0.000 C 
BRANCH   7  10
ATOM      8  O   UNL     1      44.502   2.150  10.050  0.00  0.00    +0.000 OA
ATOM      9  C   UNL     1      44.956   2.841   9.150  0.00  0.00    +0.000 C 
ATOM     10  N   UNL     1      44.729   4.185   8.968  0.00  0.00    +0.000 N 
ATOM     11  H   UNL     1      45.170   4.640   8.175  0.00  0.00    +0.000 HD
BRANCH   9  12
ATOM     12  C   UNL     1      45.860   2.219   8.117  0.00  0.00    +0.000 C 
ATOM     13  C   UNL     1      46.357   2.960   6.949  0.00  0.00    +0.000 C 
ATOM     14  C   UNL     1      47.167   1.998   6.273  0.00  0.00    +0.000 C 
ATOM     15  C   UNL     1      47.093   0.884   7.015  0.00  0.00    +0.000 C 
ATOM     16  N   UNL     1      46.300   0.981   8.150  0.00  0.00    +0.000 NA
ENDBRANCH   9  12
ENDBRANCH   7  10
ENDBRANCH   1   7
BRANCH   4  17
ATOM     17  C   UNL     1      47.143   8.223  13.480  0.00  0.00    +0.000 C 
BRANCH  17  18
ATOM     18  N   UNL     1      47.551   7.490  14.651  0.00  0.00    +0.000 N 
ATOM     19  C   UNL     1      48.790   6.905  14.722  0.00  0.00    +0.000 C 
ATOM     20  O   UNL     1      49.615   7.019  13.818  0.00  0.00    +0.000 OA
ATOM     21  H   UNL     1      46.818   7.190  15.287  0.00  0.00    +0.000 HD
BRANCH  19  22
ATOM     22  C   UNL     1      49.109   6.184  15.961  0.00  0.00    +0.000 A 
ATOM     23  C   UNL     1      50.187   6.595  16.735  0.00  0.00    +0.000 A 
ATOM     24  S   UNL     1      50.385   5.691  18.167  0.00  0.00    +0.000 S 
ATOM     25  C   UNL     1      49.070   4.683  17.778  0.00  0.00    +0.000 A 
ATOM     26  N   UNL     1      48.709   3.658  18.595  0.00  0.00    +0.000 NA
ATOM     27  C   UNL     1      47.718   2.954  18.163  0.00  0.00    +0.000 A 
ATOM     28  N   UNL     1      47.051   3.187  16.986  0.00  0.00    +0.000 N 
ATOM     29  C   UNL     1      47.362   4.227  16.143  0.00  0.00    +0.000 A 
ATOM     30  O   UNL     1      46.722   4.427  15.116  0.00  0.00    +0.000 OA
ATOM     31  C   UNL     1      48.478   5.041  16.579  0.00  0.00    +0.000 A 
ATOM     32  H   UNL     1      46.278   2.599  16.705  0.00  0.00    +0.000 HD
ENDBRANCH  19  22
ENDBRANCH  17  18
ENDBRANCH   4  17
TORSDOF 6
ENDMDL
MODEL 2
REMARK VINA RESULT:    -7.857      0.985      0.987
REMARK INTER + INTRA:         -11.759
REMARK INTER:                 -11.059
REMARK INTRA:                  -0.700
REMARK UNBOUND:                -1.146
REMARK  Name = 
REMARK  6 active torsions:
REMARK  status: ('A' for Active; 'I' for Inactive)
REMARK    1  A    between atoms: C_2  and  C_25
REMARK    2  A    between atoms: N_3  and  C_4
REMARK    3  A    between atoms: C_4  and  C_5
REMARK    4  A    between atoms: C_8  and  C_9
REMARK    5  A    between atoms: C_9  and  N_10
REMARK    6  A    between atoms: C_11  and  C_13
REMARK                            x       y       z     vdW  Elec       q    Type
REMARK                         _______ _______ _______ _____ _____    ______ ____
ROOT
ATOM      1  C   UNL     1      44.652   5.117  11.373  0.00  0.00    +0.000 A 
ATOM      2  C   UNL     1      44.381   6.490  11.303  0.00  0.00    +0.000 A 
ATOM      3  C   UNL     1      45.178   7.411  11.991  0.00  0.00    +0.000 A 
ATOM      4  C   UNL     1      46.274   6.979  12.750  0.00  0.00    +0.000 A 
ATOM      5  C   UNL     1      46.537   5.606  12.832  0.00  0.00    +0.000 A 
ATOM      6  C   UNL     1      45.740   4.686  12.142  0.00  0.00    +0.000 A 
ENDROOT
BRANCH   1   7
ATOM      7  C   UNL     1      43.800   4.124  10.629  0.00  0.00    +0.000 C 
BRANCH   7  10
ATOM      8  O   UNL     1      45.265   4.666   8.260  0.00  0.00    +0.000 OA
ATOM      9  C   UNL     1      45.246   3.544   8.746  0.00  0.00    +0.000 C 
ATOM     10  N   UNL     1      44.588   3.172   9.894  0.00  0.00    +0.000 N 
ATOM     11  H   UNL     1      44.654   2.202  10.189  0.00  0.00    +0.000 HD
BRANCH   9  12
ATOM     12  C   UNL     1      45.991   2.424   8.067  0.00  0.00    +0.000 C 
ATOM     13  C   UNL     1      46.791   2.627   6.851  0.00  0.00    +0.000 C 
ATOM     14  C   UNL     1      47.311   1.324   6.581  0.00  0.00    +0.000 C 
ATOM     15  C   UNL     1      46.831   0.540   7.556  0.00  0.00    +0.000 C 
ATOM     16  N   UNL     1      46.018   1.178   8.482  0.00  0.00    +0.000 NA
ENDBRANCH   9  12
ENDBRANCH   7  10
ENDBRANCH   1   7
BRANCH   4  17
ATOM     17  C   UNL     1      47.141   7.964  13.492  0.00  0.00    +0.000 C 
BRANCH  17  18
ATOM     18  N   UNL     1      47.628   7.411  14.730  0.00  0.00    +0.000 N 
ATOM     19  C   UNL     1      48.890   6.882  14.818  0.00  0.00    +0.000 C 
ATOM     20  O   UNL     1      49.670   6.899  13.868  0.00  0.00    +0.000 OA
ATOM     21  H   UNL     1      46.936   7.177  15.435  0.00  0.00    +0.000 HD
BRANCH  19  22
ATOM     22  C   UNL     1      49.292   6.348  16.126  0.00  0.00    +0.000 A 
ATOM     23  C   UNL     1      50.380   6.903  16.789  0.00  0.00    +0.000 A 
ATOM     24  S   UNL     1      50.675   6.208  18.318  0.00  0.00    +0.000 S 
ATOM     25  C   UNL     1      49.394   5.105  18.126  0.00  0.00    +0.000 A 
ATOM     26  N   UNL     1      49.114   4.185  19.088  0.00  0.00    +0.000 NA
ATOM     27  C   UNL     1      48.140   3.390  18.798  0.00  0.00    +0.000 A 
ATOM     28  N   UNL     1      47.417   3.435  17.633  0.00  0.00    +0.000 N 
ATOM     29  C   UNL     1      47.646   4.364  16.646  0.00  0.00    +0.000 A 
ATOM     30  O   UNL     1      46.957   4.398  15.631  0.00  0.00    +0.000 OA
ATOM     31  C   UNL     1      48.740   5.274  16.919  0.00  0.00    +0.000 A 
ATOM     32  H   UNL     1      46.662   2.784  17.468  0.00  0.00    +0.000 HD
ENDBRANCH  19  22
ENDBRANCH  17  18
ENDBRANCH   4  17
TORSDOF 6
ENDMDL
MODEL 3
REMARK VINA RESULT:    -7.477      2.298      2.651
REMARK INTER + INTRA:         -11.245
REMARK INTER:                 -10.295
REMARK INTRA:                  -0.950
REMARK UNBOUND:                -1.146
REMARK  Name = 
REMARK  6 active torsions:
REMARK  status: ('A' for Active; 'I' for Inactive)
REMARK    1  A    between atoms: C_2  and  C_25
REMARK    2  A    between atoms: N_3  and  C_4
REMARK    3  A    between atoms: C_4  and  C_5
REMARK    4  A    between atoms: C_8  and  C_9
REMARK    5  A    between atoms: C_9  and  N_10
REMARK    6  A    between atoms: C_11  and  C_13
REMARK                            x       y       z     vdW  Elec       q    Type
REMARK                         _______ _______ _______ _____ _____    ______ ____
ROOT
ATOM      1  C   UNL     1      45.225   5.360  11.404  0.00  0.00    +0.000 A 
ATOM      2  C   UNL     1      45.885   4.732  12.469  0.00  0.00    +0.000 A 
ATOM      3  C   UNL     1      46.771   5.447  13.281  0.00  0.00    +0.000 A 
ATOM      4  C   UNL     1      47.002   6.811  13.057  0.00  0.00    +0.000 A 
ATOM      5  C   UNL     1      46.353   7.436  11.985  0.00  0.00    +0.000 A 
ATOM      6  C   UNL     1      45.466   6.721  11.174  0.00  0.00    +0.000 A 
ENDROOT
BRANCH   1   7
ATOM      7  C   UNL     1      44.266   4.595  10.532  0.00  0.00    +0.000 C 
BRANCH   7  10
ATOM      8  O   UNL     1      45.849   4.884   8.194  0.00  0.00    +0.000 OA
ATOM      9  C   UNL     1      45.645   3.783   8.684  0.00  0.00    +0.000 C 
ATOM     10  N   UNL     1      44.913   3.526   9.819  0.00  0.00    +0.000 N 
ATOM     11  H   UNL     1      44.821   2.560  10.119  0.00  0.00    +0.000 HD
BRANCH   9  12
ATOM     12  C   UNL     1      46.222   2.556   8.027  0.00  0.00    +0.000 C 
ATOM     13  C   UNL     1      47.088   2.625   6.841  0.00  0.00    +0.000 C 
ATOM     14  C   UNL     1      47.398   1.254   6.584  0.00  0.00    +0.000 C 
ATOM     15  C   UNL     1      46.761   0.560   7.537  0.00  0.00    +0.000 C 
ATOM     16  N   UNL     1      46.030   1.322   8.436  0.00  0.00    +0.000 NA
ENDBRANCH   9  12
ENDBRANCH   7  10
ENDBRANCH   1   7
BRANCH   4  17
ATOM     17  C   UNL     1      47.951   7.591  13.929  0.00  0.00    +0.000 C 
BRANCH  17  18
ATOM     18  N   UNL     1      47.909   7.134  15.295  0.00  0.00    +0.000 N 
ATOM     19  C   UNL     1      49.047   6.711  15.933  0.00  0.00    +0.000 C 
ATOM     20  O   UNL     1      50.148   6.744  15.388  0.00  0.00    +0.000 OA
ATOM     21  H   UNL     1      47.000   6.879  15.670  0.00  0.00    +0.000 HD
BRANCH  19  22
ATOM     22  C   UNL     1      48.897   6.268  17.326  0.00  0.00    +0.000 A 
ATOM     23  C   UNL     1      49.245   4.969  17.674  0.00  0.00    +0.000 A 
ATOM     24  S   UNL     1      49.067   4.635  19.336  0.00  0.00    +0.000 S 
ATOM     25  C   UNL     1      48.468   6.198  19.642  0.00  0.00    +0.000 A 
ATOM     26  N   UNL     1      48.091   6.569  20.895  0.00  0.00    +0.000 NA
ATOM     27  C   UNL     1      47.624   7.769  20.978  0.00  0.00    +0.000 A 
ATOM     28  N   UNL     1      47.504   8.634  19.920  0.00  0.00    +0.000 N 
ATOM     29  C   UNL     1      47.897   8.313  18.643  0.00  0.00    +0.000 A 
ATOM     30  O   UNL     1      47.807   9.123  17.726  0.00  0.00    +0.000 OA
ATOM     31  C   UNL     1      48.419   6.969  18.494  0.00  0.00    +0.000 A 
ATOM     32  H   UNL     1      47.132   9.564  20.053  0.00  0.00    +0.000 HD
ENDBRANCH  19  22
ENDBRANCH  17  18
ENDBRANCH   4  17
TORSDOF 6
ENDMDL
MODEL 4
REMARK VINA RESULT:    -7.341      2.250      2.598
REMARK INTER + INTRA:         -11.062
REMARK INTER:                 -10.204
REMARK INTRA:                  -0.858
REMARK UNBOUND:                -1.146
REMARK  Name = 
REMARK  6 active torsions:
REMARK  status: ('A' for Active; 'I' for Inactive)
REMARK    1  A    between atoms: C_2  and  C_25
REMARK    2  A    between atoms: N_3  and  C_4
REMARK    3  A    between atoms: C_4  and  C_5
REMARK    4  A    between atoms: C_8  and  C_9
REMARK    5  A    between atoms: C_9  and  N_10
REMARK    6  A    between atoms: C_11  and  C_13
REMARK                            x       y       z     vdW  Elec       q    Type
REMARK                         _______ _______ _______ _____ _____    ______ ____
ROOT
ATOM      1  C   UNL     1      45.656   4.362  12.450  0.00  0.00    +0.000 A 
ATOM      2  C   UNL     1      46.007   5.648  12.018  0.00  0.00    +0.000 A 
ATOM      3  C   UNL     1      46.814   6.471  12.810  0.00  0.00    +0.000 A 
ATOM      4  C   UNL     1      47.302   6.018  14.043  0.00  0.00    +0.000 A 
ATOM      5  C   UNL     1      46.941   4.738  14.481  0.00  0.00    +0.000 A 
ATOM      6  C   UNL     1      46.135   3.915  13.688  0.00  0.00    +0.000 A 
ENDROOT
BRANCH   1   7
ATOM      7  C   UNL     1      44.792   3.471  11.597  0.00  0.00    +0.000 C 
BRANCH   7  10
ATOM      8  O   UNL     1      44.230   3.758   8.831  0.00  0.00    +0.000 OA
ATOM      9  C   UNL     1      45.156   3.059   9.216  0.00  0.00    +0.000 C 
ATOM     10  N   UNL     1      45.530   2.861  10.524  0.00  0.00    +0.000 N 
ATOM     11  H   UNL     1      46.322   2.252  10.708  0.00  0.00    +0.000 HD
BRANCH   9  12
ATOM     12  C   UNL     1      45.999   2.318   8.211  0.00  0.00    +0.000 C 
ATOM     13  C   UNL     1      46.683   2.992   7.099  0.00  0.00    +0.000 C 
ATOM     14  C   UNL     1      47.355   1.922   6.432  0.00  0.00    +0.000 C 
ATOM     15  C   UNL     1      47.050   0.819   7.130  0.00  0.00    +0.000 C 
ATOM     16  N   UNL     1      46.220   1.022   8.224  0.00  0.00    +0.000 NA
ENDBRANCH   9  12
ENDBRANCH   7  10
ENDBRANCH   1   7
BRANCH   4  17
ATOM     17  C   UNL     1      48.176   6.896  14.901  0.00  0.00    +0.000 C 
BRANCH  17  18
ATOM     18  N   UNL     1      49.286   6.160  15.451  0.00  0.00    +0.000 N 
ATOM     19  C   UNL     1      49.363   5.897  16.795  0.00  0.00    +0.000 C 
ATOM     20  O   UNL     1      48.475   6.235  17.575  0.00  0.00    +0.000 OA
ATOM     21  H   UNL     1      50.121   6.085  14.877  0.00  0.00    +0.000 HD
BRANCH  19  22
ATOM     22  C   UNL     1      50.533   5.136  17.253  0.00  0.00    +0.000 A 
ATOM     23  C   UNL     1      51.652   5.814  17.720  0.00  0.00    +0.000 A 
ATOM     24  S   UNL     1      52.896   4.785  18.267  0.00  0.00    +0.000 S 
ATOM     25  C   UNL     1      52.006   3.396  17.850  0.00  0.00    +0.000 A 
ATOM     26  N   UNL     1      52.522   2.152  18.041  0.00  0.00    +0.000 NA
ATOM     27  C   UNL     1      51.755   1.191  17.650  0.00  0.00    +0.000 A 
ATOM     28  N   UNL     1      50.514   1.362  17.088  0.00  0.00    +0.000 N 
ATOM     29  C   UNL     1      49.942   2.598  16.902  0.00  0.00    +0.000 A 
ATOM     30  O   UNL     1      48.816   2.713  16.428  0.00  0.00    +0.000 OA
ATOM     31  C   UNL     1      50.770   3.713  17.315  0.00  0.00    +0.000 A 
ATOM     32  H   UNL     1      49.961   0.566  16.805  0.00  0.00    +0.000 HD
ENDBRANCH  19  22
ENDBRANCH  17  18
ENDBRANCH   4  17
TORSDOF 6
ENDMDL
MODEL 5
REMARK VINA RESULT:    -6.636      3.648      5.154
REMARK INTER + INTRA:         -10.110
REMARK INTER:                  -9.348
REMARK INTRA:                  -0.762
REMARK UNBOUND:                -1.146
REMARK  Name = 
REMARK  6 active torsions:
REMARK  status: ('A' for Active; 'I' for Inactive)
REMARK    1  A    between atoms: C_2  and  C_25
REMARK    2  A    between atoms: N_3  and  C_4
REMARK    3  A    between atoms: C_4  and  C_5
REMARK    4  A    between atoms: C_8  and  C_9
REMARK    5  A    between atoms: C_9  and  N_10
REMARK    6  A    between atoms: C_11  and  C_13
REMARK                            x       y       z     vdW  Elec       q    Type
REMARK                         _______ _______ _______ _____ _____    ______ ____
ROOT
ATOM      1  C   UNL     1      44.696   5.523  11.394  0.00  0.00    +0.000 A 
ATOM      2  C   UNL     1      44.551   6.916  11.344  0.00  0.00    +0.000 A 
ATOM      3  C   UNL     1      45.363   7.746  12.125  0.00  0.00    +0.000 A 
ATOM      4  C   UNL     1      46.348   7.200  12.958  0.00  0.00    +0.000 A 
ATOM      5  C   UNL     1      46.484   5.807  13.018  0.00  0.00    +0.000 A 
ATOM      6  C   UNL     1      45.673   4.978  12.236  0.00  0.00    +0.000 A 
ENDROOT
BRANCH   1   7
ATOM      7  C   UNL     1      43.827   4.628  10.551  0.00  0.00    +0.000 C 
BRANCH   7  10
ATOM      8  O   UNL     1      45.564   5.053   8.348  0.00  0.00    +0.000 OA
ATOM      9  C   UNL     1      45.388   3.933   8.803  0.00  0.00    +0.000 C 
ATOM     10  N   UNL     1      44.587   3.612   9.873  0.00  0.00    +0.000 N 
ATOM     11  H   UNL     1      44.529   2.636  10.151  0.00  0.00    +0.000 HD
BRANCH   9  12
ATOM     12  C   UNL     1      46.084   2.754   8.173  0.00  0.00    +0.000 C 
ATOM     13  C   UNL     1      47.014   2.892   7.044  0.00  0.00    +0.000 C 
ATOM     14  C   UNL     1      47.429   1.548   6.796  0.00  0.00    +0.000 C 
ATOM     15  C   UNL     1      46.782   0.802   7.703  0.00  0.00    +0.000 C 
ATOM     16  N   UNL     1      45.948   1.505   8.560  0.00  0.00    +0.000 NA
ENDBRANCH   9  12
ENDBRANCH   7  10
ENDBRANCH   1   7
BRANCH   4  17
ATOM     17  C   UNL     1      47.231   8.086  13.799  0.00  0.00    +0.000 C 
BRANCH  17  18
ATOM     18  N   UNL     1      48.425   8.469  13.089  0.00  0.00    +0.000 N 
ATOM     19  C   UNL     1      48.471   9.630  12.361  0.00  0.00    +0.000 C 
ATOM     20  O   UNL     1      47.521  10.410  12.320  0.00  0.00    +0.000 OA
ATOM     21  H   UNL     1      49.114   7.743  12.920  0.00  0.00    +0.000 HD
BRANCH  19  22
ATOM     22  C   UNL     1      49.736   9.931  11.678  0.00  0.00    +0.000 A 
ATOM     23  C   UNL     1      50.093  11.254  11.446  0.00  0.00    +0.000 A 
ATOM     24  S   UNL     1      51.615  11.431  10.698  0.00  0.00    +0.000 S 
ATOM     25  C   UNL     1      51.828   9.745  10.609  0.00  0.00    +0.000 A 
ATOM     26  N   UNL     1      52.942   9.211  10.040  0.00  0.00    +0.000 NA
ATOM     27  C   UNL     1      52.959   7.921  10.009  0.00  0.00    +0.000 A 
ATOM     28  N   UNL     1      51.962   7.116  10.499  0.00  0.00    +0.000 N 
ATOM     29  C   UNL     1      50.832   7.610  11.105  0.00  0.00    +0.000 A 
ATOM     30  O   UNL     1      49.976   6.861  11.564  0.00  0.00    +0.000 OA
ATOM     31  C   UNL     1      50.760   9.056  11.156  0.00  0.00    +0.000 A 
ATOM     32  H   UNL     1      52.037   6.110  10.446  0.00  0.00    +0.000 HD
ENDBRANCH  19  22
ENDBRANCH  17  18
ENDBRANCH   4  17
TORSDOF 6
ENDMDL
MODEL 6
REMARK VINA RESULT:    -6.563      2.535      3.312
REMARK INTER + INTRA:         -10.011
REMARK INTER:                  -9.219
REMARK INTRA:                  -0.792
REMARK UNBOUND:                -1.146
REMARK  Name = 
REMARK  6 active torsions:
REMARK  status: ('A' for Active; 'I' for Inactive)
REMARK    1  A    between atoms: C_2  and  C_25
REMARK    2  A    between atoms: N_3  and  C_4
REMARK    3  A    between atoms: C_4  and  C_5
REMARK    4  A    between atoms: C_8  and  C_9
REMARK    5  A    between atoms: C_9  and  N_10
REMARK    6  A    between atoms: C_11  and  C_13
REMARK                            x       y       z     vdW  Elec       q    Type
REMARK                         _______ _______ _______ _____ _____    ______ ____
ROOT
ATOM      1  C   UNL     1      45.118   3.941  12.130  0.00  0.00    +0.000 A 
ATOM      2  C   UNL     1      46.027   3.247  12.941  0.00  0.00    +0.000 A 
ATOM      3  C   UNL     1      46.813   3.927  13.876  0.00  0.00    +0.000 A 
ATOM      4  C   UNL     1      46.694   5.315  14.033  0.00  0.00    +0.000 A 
ATOM      5  C   UNL     1      45.796   6.011  13.214  0.00  0.00    +0.000 A 
ATOM      6  C   UNL     1      45.009   5.329  12.280  0.00  0.00    +0.000 A 
ENDROOT
BRANCH   1   7
ATOM      7  C   UNL     1      44.266   3.210  11.126  0.00  0.00    +0.000 C 
BRANCH   7  10
ATOM      8  O   UNL     1      44.899   4.352   8.607  0.00  0.00    +0.000 OA
ATOM      9  C   UNL     1      45.283   3.230   8.904  0.00  0.00    +0.000 C 
ATOM     10  N   UNL     1      45.052   2.586  10.096  0.00  0.00    +0.000 N 
ATOM     11  H   UNL     1      45.430   1.650  10.214  0.00  0.00    +0.000 HD
BRANCH   9  12
ATOM     12  C   UNL     1      46.084   2.429   7.910  0.00  0.00    +0.000 C 
ATOM     13  C   UNL     1      46.591   3.001   6.656  0.00  0.00    +0.000 C 
ATOM     14  C   UNL     1      47.286   1.907   6.056  0.00  0.00    +0.000 C 
ATOM     15  C   UNL     1      47.150   0.885   6.912  0.00  0.00    +0.000 C 
ATOM     16  N   UNL     1      46.419   1.167   8.057  0.00  0.00    +0.000 NA
ENDBRANCH   9  12
ENDBRANCH   7  10
ENDBRANCH   1   7
BRANCH   4  17
ATOM     17  C   UNL     1      47.533   6.056  15.041  0.00  0.00    +0.000 C 
BRANCH  17  18
ATOM     18  N   UNL     1      48.599   5.231  15.550  0.00  0.00    +0.000 N 
ATOM     19  C   UNL     1      48.507   4.642  16.785  0.00  0.00    +0.000 C 
ATOM     20  O   UNL     1      47.503   4.754  17.486  0.00  0.00    +0.000 OA
ATOM     21  H   UNL     1      49.507   5.321  15.105  0.00  0.00    +0.000 HD
BRANCH  19  22
ATOM     22  C   UNL     1      49.646   3.817  17.209  0.00  0.00    +0.000 A 
ATOM     23  C   UNL     1      49.649   2.456  16.928  0.00  0.00    +0.000 A 
ATOM     24  S   UNL     1      51.067   1.656  17.435  0.00  0.00    +0.000 S 
ATOM     25  C   UNL     1      51.705   3.088  18.096  0.00  0.00    +0.000 A 
ATOM     26  N   UNL     1      52.913   3.092  18.720  0.00  0.00    +0.000 NA
ATOM     27  C   UNL     1      53.259   4.237  19.204  0.00  0.00    +0.000 A 
ATOM     28  N   UNL     1      52.507   5.382  19.116  0.00  0.00    +0.000 N 
ATOM     29  C   UNL     1      51.295   5.431  18.471  0.00  0.00    +0.000 A 
ATOM     30  O   UNL     1      50.664   6.479  18.380  0.00  0.00    +0.000 OA
ATOM     31  C   UNL     1      50.854   4.166  17.919  0.00  0.00    +0.000 A 
ATOM     32  H   UNL     1      52.838   6.249  19.514  0.00  0.00    +0.000 HD
ENDBRANCH  19  22
ENDBRANCH  17  18
ENDBRANCH   4  17
TORSDOF 6
ENDMDL
MODEL 7
REMARK VINA RESULT:    -6.561      2.375      2.936
REMARK INTER + INTRA:         -10.008
REMARK INTER:                  -9.035
REMARK INTRA:                  -0.973
REMARK UNBOUND:                -1.146
REMARK  Name = 
REMARK  6 active torsions:
REMARK  status: ('A' for Active; 'I' for Inactive)
REMARK    1  A    between atoms: C_2  and  C_25
REMARK    2  A    between atoms: N_3  and  C_4
REMARK    3  A    between atoms: C_4  and  C_5
REMARK    4  A    between atoms: C_8  and  C_9
REMARK    5  A    between atoms: C_9  and  N_10
REMARK    6  A    between atoms: C_11  and  C_13
REMARK                            x       y       z     vdW  Elec       q    Type
REMARK                         _______ _______ _______ _____ _____    ______ ____
ROOT
ATOM      1  C   UNL     1      44.856   5.297  11.586  0.00  0.00    +0.000 A 
ATOM      2  C   UNL     1      44.531   6.654  11.455  0.00  0.00    +0.000 A 
ATOM      3  C   UNL     1      45.256   7.631  12.146  0.00  0.00    +0.000 A 
ATOM      4  C   UNL     1      46.333   7.272  12.968  0.00  0.00    +0.000 A 
ATOM      5  C   UNL     1      46.649   5.915  13.110  0.00  0.00    +0.000 A 
ATOM      6  C   UNL     1      45.924   4.939  12.418  0.00  0.00    +0.000 A 
ENDROOT
BRANCH   1   7
ATOM      7  C   UNL     1      44.081   4.244  10.839  0.00  0.00    +0.000 C 
BRANCH   7  10
ATOM      8  O   UNL     1      44.763   4.493   8.096  0.00  0.00    +0.000 OA
ATOM      9  C   UNL     1      45.188   3.566   8.769  0.00  0.00    +0.000 C 
ATOM     10  N   UNL     1      44.939   3.354  10.104  0.00  0.00    +0.000 N 
ATOM     11  H   UNL     1      45.357   2.540  10.545  0.00  0.00    +0.000 HD
BRANCH   9  12
ATOM     12  C   UNL     1      46.069   2.523   8.129  0.00  0.00    +0.000 C 
ATOM     13  C   UNL     1      45.856   1.082   8.317  0.00  0.00    +0.000 C 
ATOM     14  C   UNL     1      46.895   0.494   7.532  0.00  0.00    +0.000 C 
ATOM     15  C   UNL     1      47.567   1.524   7.000  0.00  0.00    +0.000 C 
ATOM     16  N   UNL     1      47.092   2.781   7.345  0.00  0.00    +0.000 NA
ENDBRANCH   9  12
ENDBRANCH   7  10
ENDBRANCH   1   7
BRANCH   4  17
ATOM     17  C   UNL     1      47.122   8.318  13.713  0.00  0.00    +0.000 C 
BRANCH  17  18
ATOM     18  N   UNL     1      48.012   7.720  14.676  0.00  0.00    +0.000 N 
ATOM     19  C   UNL     1      48.346   8.378  15.832  0.00  0.00    +0.000 C 
ATOM     20  O   UNL     1      47.870   9.476  16.116  0.00  0.00    +0.000 OA
ATOM     21  H   UNL     1      48.586   6.946  14.357  0.00  0.00    +0.000 HD
BRANCH  19  22
ATOM     22  C   UNL     1      49.257   7.681  16.749  0.00  0.00    +0.000 A 
ATOM     23  C   UNL     1      48.829   7.367  18.034  0.00  0.00    +0.000 A 
ATOM     24  S   UNL     1      49.983   6.508  18.948  0.00  0.00    +0.000 S 
ATOM     25  C   UNL     1      51.116   6.572  17.680  0.00  0.00    +0.000 A 
ATOM     26  N   UNL     1      52.355   6.029  17.822  0.00  0.00    +0.000 NA
ATOM     27  C   UNL     1      53.123   6.178  16.796  0.00  0.00    +0.000 A 
ATOM     28  N   UNL     1      52.762   6.819  15.638  0.00  0.00    +0.000 N 
ATOM     29  C   UNL     1      51.514   7.357  15.439  0.00  0.00    +0.000 A 
ATOM     30  O   UNL     1      51.213   7.893  14.377  0.00  0.00    +0.000 OA
ATOM     31  C   UNL     1      50.615   7.226  16.568  0.00  0.00    +0.000 A 
ATOM     32  H   UNL     1      53.411   6.899  14.868  0.00  0.00    +0.000 HD
ENDBRANCH  19  22
ENDBRANCH  17  18
ENDBRANCH   4  17
TORSDOF 6
ENDMDL
MODEL 8
REMARK VINA RESULT:    -6.259      4.759      7.468
REMARK INTER + INTRA:          -9.600
REMARK INTER:                  -8.693
REMARK INTRA:                  -0.907
REMARK UNBOUND:                -1.146
REMARK  Name = 
REMARK  6 active torsions:
REMARK  status: ('A' for Active; 'I' for Inactive)
REMARK    1  A    between atoms: C_2  and  C_25
REMARK    2  A    between atoms: N_3  and  C_4
REMARK    3  A    between atoms: C_4  and  C_5
REMARK    4  A    between atoms: C_8  and  C_9
REMARK    5  A    between atoms: C_9  and  N_10
REMARK    6  A    between atoms: C_11  and  C_13
REMARK                            x       y       z     vdW  Elec       q    Type
REMARK                         _______ _______ _______ _____ _____    ______ ____
ROOT
ATOM      1  C   UNL     1      50.489   8.892  11.839  0.00  0.00    +0.000 A 
ATOM      2  C   UNL     1      49.787   9.894  12.522  0.00  0.00    +0.000 A 
ATOM      3  C   UNL     1      48.438   9.722  12.851  0.00  0.00    +0.000 A 
ATOM      4  C   UNL     1      47.768   8.537  12.518  0.00  0.00    +0.000 A 
ATOM      5  C   UNL     1      48.466   7.541  11.823  0.00  0.00    +0.000 A 
ATOM      6  C   UNL     1      49.815   7.713  11.496  0.00  0.00    +0.000 A 
ENDROOT
BRANCH   1   7
ATOM      7  C   UNL     1      51.942   9.071  11.489  0.00  0.00    +0.000 C 
BRANCH   7  10
ATOM      8  O   UNL     1      52.680   9.397   8.768  0.00  0.00    +0.000 OA
ATOM      9  C   UNL     1      52.741   8.303   9.310  0.00  0.00    +0.000 C 
ATOM     10  N   UNL     1      52.427   8.032  10.621  0.00  0.00    +0.000 N 
ATOM     11  H   UNL     1      52.522   7.074  10.946  0.00  0.00    +0.000 HD
BRANCH   9  12
ATOM     12  C   UNL     1      53.191   7.103   8.519  0.00  0.00    +0.000 C 
ATOM     13  C   UNL     1      53.903   5.971   9.129  0.00  0.00    +0.000 C 
ATOM     14  C   UNL     1      54.110   5.084   8.029  0.00  0.00    +0.000 C 
ATOM     15  C   UNL     1      53.563   5.696   6.970  0.00  0.00    +0.000 C 
ATOM     16  N   UNL     1      52.993   6.934   7.230  0.00  0.00    +0.000 NA
ENDBRANCH   9  12
ENDBRANCH   7  10
ENDBRANCH   1   7
BRANCH   4  17
ATOM     17  C   UNL     1      46.316   8.341  12.872  0.00  0.00    +0.000 C 
BRANCH  17  18
ATOM     18  N   UNL     1      45.889   6.989  12.616  0.00  0.00    +0.000 N 
ATOM     19  C   UNL     1      44.884   6.724  11.721  0.00  0.00    +0.000 C 
ATOM     20  O   UNL     1      44.341   7.615  11.071  0.00  0.00    +0.000 OA
ATOM     21  H   UNL     1      46.150   6.285  13.299  0.00  0.00    +0.000 HD
BRANCH  19  22
ATOM     22  C   UNL     1      44.526   5.312  11.530  0.00  0.00    +0.000 A 
ATOM     23  C   UNL     1      43.827   4.641  12.526  0.00  0.00    +0.000 A 
ATOM     24  S   UNL     1      43.439   3.031  12.122  0.00  0.00    +0.000 S 
ATOM     25  C   UNL     1      44.237   3.156  10.625  0.00  0.00    +0.000 A 
ATOM     26  N   UNL     1      44.303   2.094   9.777  0.00  0.00    +0.000 NA
ATOM     27  C   UNL     1      44.966   2.317   8.693  0.00  0.00    +0.000 A 
ATOM     28  N   UNL     1      45.568   3.509   8.379  0.00  0.00    +0.000 N 
ATOM     29  C   UNL     1      45.505   4.616   9.191  0.00  0.00    +0.000 A 
ATOM     30  O   UNL     1      46.026   5.677   8.862  0.00  0.00    +0.000 OA
ATOM     31  C   UNL     1      44.779   4.413  10.428  0.00  0.00    +0.000 A 
ATOM     32  H   UNL     1      46.072   3.620   7.510  0.00  0.00    +0.000 HD
ENDBRANCH  19  22
ENDBRANCH  17  18
ENDBRANCH   4  17
TORSDOF 6
ENDMDL
MODEL 9
REMARK VINA RESULT:    -5.984      2.665      3.740
REMARK INTER + INTRA:          -9.228
REMARK INTER:                  -8.601
REMARK INTRA:                  -0.628
REMARK UNBOUND:                -1.146
REMARK  Name = 
REMARK  6 active torsions:
REMARK  status: ('A' for Active; 'I' for Inactive)
REMARK    1  A    between atoms: C_2  and  C_25
REMARK    2  A    between atoms: N_3  and  C_4
REMARK    3  A    between atoms: C_4  and  C_5
REMARK    4  A    between atoms: C_8  and  C_9
REMARK    5  A    between atoms: C_9  and  N_10
REMARK    6  A    between atoms: C_11  and  C_13
REMARK                            x       y       z     vdW  Elec       q    Type
REMARK                         _______ _______ _______ _____ _____    ______ ____
ROOT
ATOM      1  C   UNL     1      44.769   5.088  11.528  0.00  0.00    +0.000 A 
ATOM      2  C   UNL     1      44.064   6.288  11.372  0.00  0.00    +0.000 A 
ATOM      3  C   UNL     1      44.564   7.484  11.898  0.00  0.00    +0.000 A 
ATOM      4  C   UNL     1      45.791   7.506  12.576  0.00  0.00    +0.000 A 
ATOM      5  C   UNL     1      46.489   6.304  12.744  0.00  0.00    +0.000 A 
ATOM      6  C   UNL     1      45.989   5.109  12.216  0.00  0.00    +0.000 A 
ENDROOT
BRANCH   1   7
ATOM      7  C   UNL     1      44.235   3.800  10.958  0.00  0.00    +0.000 C 
BRANCH   7  10
ATOM      8  O   UNL     1      44.522   4.347   8.188  0.00  0.00    +0.000 OA
ATOM      9  C   UNL     1      45.213   3.502   8.738  0.00  0.00    +0.000 C 
ATOM     10  N   UNL     1      45.173   3.167  10.071  0.00  0.00    +0.000 N 
ATOM     11  H   UNL     1      45.805   2.443  10.400  0.00  0.00    +0.000 HD
BRANCH   9  12
ATOM     12  C   UNL     1      46.217   2.719   7.931  0.00  0.00    +0.000 C 
ATOM     13  C   UNL     1      46.332   1.256   8.012  0.00  0.00    +0.000 C 
ATOM     14  C   UNL     1      47.379   0.960   7.086  0.00  0.00    +0.000 C 
ATOM     15  C   UNL     1      47.758   2.144   6.585  0.00  0.00    +0.000 C 
ATOM     16  N   UNL     1      47.071   3.243   7.080  0.00  0.00    +0.000 NA
ENDBRANCH   9  12
ENDBRANCH   7  10
ENDBRANCH   1   7
BRANCH   4  17
ATOM     17  C   UNL     1      46.341   8.790  13.143  0.00  0.00    +0.000 C 
BRANCH  17  18
ATOM     18  N   UNL     1      47.069   8.558  14.364  0.00  0.00    +0.000 N 
ATOM     19  C   UNL     1      48.397   8.885  14.467  0.00  0.00    +0.000 C 
ATOM     20  O   UNL     1      49.006   9.426  13.547  0.00  0.00    +0.000 OA
ATOM     21  H   UNL     1      46.659   7.912  15.032  0.00  0.00    +0.000 HD
BRANCH  19  22
ATOM     22  C   UNL     1      49.046   8.613  15.757  0.00  0.00    +0.000 A 
ATOM     23  C   UNL     1      48.867   7.377  16.366  0.00  0.00    +0.000 A 
ATOM     24  S   UNL     1      49.734   7.202  17.824  0.00  0.00    +0.000 S 
ATOM     25  C   UNL     1      50.336   8.790  17.721  0.00  0.00    +0.000 A 
ATOM     26  N   UNL     1      51.144   9.295  18.691  0.00  0.00    +0.000 NA
ATOM     27  C   UNL     1      51.499  10.522  18.504  0.00  0.00    +0.000 A 
ATOM     28  N   UNL     1      51.122  11.288  17.430  0.00  0.00    +0.000 N 
ATOM     29  C   UNL     1      50.331  10.811  16.413  0.00  0.00    +0.000 A 
ATOM     30  O   UNL     1      50.041  11.513  15.449  0.00  0.00    +0.000 OA
ATOM     31  C   UNL     1      49.894   9.440  16.582  0.00  0.00    +0.000 A 
ATOM     32  H   UNL     1      51.439  12.243  17.340  0.00  0.00    +0.000 HD
ENDBRANCH  19  22
ENDBRANCH  17  18
ENDBRANCH   4  17
TORSDOF 6
ENDMDL
