MODEL 1
REMARK VINA RESULT:    -7.811      0.000      0.000
REMARK INTER + INTRA:         -12.693
REMARK INTER:                 -11.464
REMARK INTRA:                  -1.229
REMARK UNBOUND:                -1.229
REMARK  Name = 
REMARK  9 active torsions:
REMARK  status: ('A' for Active; 'I' for Inactive)
REMARK    1  A    between atoms: C_1  and  O_2
REMARK    2  A    between atoms: O_2  and  C_3
REMARK    3  A    between atoms: C_10  and  C_11
REMARK    4  A    between atoms: N_13  and  C_14
REMARK    5  A    between atoms: C_14  and  C_15
REMARK    6  A    between atoms: C_18  and  C_19
REMARK    7  A    between atoms: C_19  and  N_20
REMARK    8  A    between atoms: N_20  and  C_21
REMARK    9  A    between atoms: C_21  and  C_22
REMARK                            x       y       z     vdW  Elec       q    Type
REMARK                         _______ _______ _______ _____ _____    ______ ____
ROOT
ATOM      1  C   UNL     1      46.549   6.929  12.839  0.00  0.00    +0.000 A 
ATOM      2  C   UNL     1      46.795   5.599  13.206  0.00  0.00    +0.000 A 
ATOM      3  C   UNL     1      45.977   4.566  12.735  0.00  0.00    +0.000 A 
ATOM      4  C   UNL     1      44.895   4.833  11.883  0.00  0.00    +0.000 A 
ATOM      5  C   UNL     1      44.675   6.159  11.485  0.00  0.00    +0.000 A 
ATOM      6  C   UNL     1      45.497   7.194  11.952  0.00  0.00    +0.000 A 
ENDROOT
BRANCH   1   7
ATOM      7  C   UNL     1      47.417   8.048  13.362  0.00  0.00    +0.000 C 
BRANCH   7  10
ATOM      8  C   UNL     1      48.806   7.402  15.292  0.00  0.00    +0.000 C 
ATOM      9  O   UNL     1      49.712   7.013  14.560  0.00  0.00    +0.000 OA
ATOM     10  N   UNL     1      47.646   7.914  14.780  0.00  0.00    +0.000 N 
ATOM     11  H   UNL     1      46.876   8.135  15.394  0.00  0.00    +0.000 HD
BRANCH   8  19
ATOM     12  C   UNL     1      48.782   4.828  17.580  0.00  0.00    +0.000 A 
ATOM     13  N   UNL     1      48.747   4.038  18.670  0.00  0.00    +0.000 NA
ATOM     14  C   UNL     1      48.825   4.618  19.870  0.00  0.00    +0.000 A 
ATOM     15  N   UNL     1      48.945   5.917  20.124  0.00  0.00    +0.000 NA
ATOM     16  C   UNL     1      48.975   6.670  19.011  0.00  0.00    +0.000 A 
ATOM     17  S   UNL     1      49.137   8.354  19.145  0.00  0.00    +0.000 S 
ATOM     18  C   UNL     1      49.076   8.546  17.457  0.00  0.00    +0.000 A 
ATOM     19  C   UNL     1      48.928   7.350  16.762  0.00  0.00    +0.000 A 
ATOM     20  C   UNL     1      48.894   6.226  17.695  0.00  0.00    +0.000 A 
BRANCH  12  22
ATOM     21  C   UNL     1      47.606   3.465  16.082  0.00  0.00    +0.000 C 
ATOM     22  O   UNL     1      48.787   4.220  16.343  0.00  0.00    +0.000 OA
ENDBRANCH  12  22
ENDBRANCH   8  19
ENDBRANCH   7  10
ENDBRANCH   1   7
BRANCH   4  23
ATOM     23  C   UNL     1      43.997   3.713  11.397  0.00  0.00    +0.000 C 
BRANCH  23  24
ATOM     24  N   UNL     1      44.777   2.585  10.882  0.00  0.00    +0.000 NA
ATOM     25  H   UNL     1      44.623   1.779  11.490  0.00  0.00    +0.000 HD
BRANCH  24  26
ATOM     26  C   UNL     1      44.354   2.210   9.525  0.00  0.00    +0.000 C 
BRANCH  26  27
ATOM     27  C   UNL     1      45.531   2.103   8.570  0.00  0.00    +0.000 A 
ATOM     28  N   UNL     1      45.961   0.832   8.304  0.00  0.00    +0.000 NA
ATOM     29  C   UNL     1      47.021   0.684   7.478  0.00  0.00    +0.000 A 
ATOM     30  C   UNL     1      47.700   1.742   6.902  0.00  0.00    +0.000 A 
ATOM     31  C   UNL     1      47.262   3.032   7.181  0.00  0.00    +0.000 A 
ATOM     32  C   UNL     1      46.162   3.224   8.022  0.00  0.00    +0.000 A 
ATOM     33 CL   UNL     1      45.638   4.840   8.313  0.00  0.00    +0.000 Cl
ENDBRANCH  26  27
ENDBRANCH  24  26
ENDBRANCH  23  24
ENDBRANCH   4  23
TORSDOF 8
ENDMDL
MODEL 2
REMARK VINA RESULT:    -7.216      1.896      3.040
REMARK INTER + INTRA:         -11.821
REMARK INTER:                 -10.674
REMARK INTRA:                  -1.146
REMARK UNBOUND:                -1.229
REMARK  Name = 
REMARK  9 active torsions:
REMARK  status: ('A' for Active; 'I' for Inactive)
REMARK    1  A    between atoms: C_1  and  O_2
REMARK    2  A    between atoms: O_2  and  C_3
REMARK    3  A    between atoms: C_10  and  C_11
REMARK    4  A    between atoms: N_13  and  C_14
REMARK    5  A    between atoms: C_14  and  C_15
REMARK    6  A    between atoms: C_18  and  C_19
REMARK    7  A    between atoms: C_19  and  N_20
REMARK    8  A    between atoms: N_20  and  C_21
REMARK    9  A    between atoms: C_21  and  C_22
REMARK                            x       y       z     vdW  Elec       q    Type
REMARK                         _______ _______ _______ _____ _____    ______ ____
ROOT
ATOM      1  C   UNL     1      46.700   4.375  13.923  0.00  0.00    +0.000 A 
ATOM      2  C   UNL     1      46.953   5.710  13.577  0.00  0.00    +0.000 A 
ATOM      3  C   UNL     1      46.423   6.255  12.401  0.00  0.00    +0.000 A 
ATOM      4  C   UNL     1      45.625   5.484  11.544  0.00  0.00    +0.000 A 
ATOM      5  C   UNL     1      45.340   4.162  11.912  0.00  0.00    +0.000 A 
ATOM      6  C   UNL     1      45.866   3.616  13.091  0.00  0.00    +0.000 A 
ENDROOT
BRANCH   1   7
ATOM      7  C   UNL     1      47.287   3.779  15.179  0.00  0.00    +0.000 C 
BRANCH   7  10
ATOM      8  C   UNL     1      47.455   4.626  17.487  0.00  0.00    +0.000 C 
ATOM      9  O   UNL     1      47.003   3.580  17.947  0.00  0.00    +0.000 OA
ATOM     10  N   UNL     1      47.615   4.803  16.141  0.00  0.00    +0.000 N 
ATOM     11  H   UNL     1      47.894   5.703  15.778  0.00  0.00    +0.000 HD
BRANCH   8  19
ATOM     12  C   UNL     1      49.952   6.990  17.308  0.00  0.00    +0.000 A 
ATOM     13  N   UNL     1      50.856   7.966  17.517  0.00  0.00    +0.000 NA
ATOM     14  C   UNL     1      50.773   8.670  18.648  0.00  0.00    +0.000 A 
ATOM     15  N   UNL     1      49.874   8.523  19.617  0.00  0.00    +0.000 NA
ATOM     16  C   UNL     1      48.992   7.539  19.370  0.00  0.00    +0.000 A 
ATOM     17  S   UNL     1      47.762   7.218  20.496  0.00  0.00    +0.000 S 
ATOM     18  C   UNL     1      47.152   5.949  19.543  0.00  0.00    +0.000 A 
ATOM     19  C   UNL     1      47.862   5.740  18.366  0.00  0.00    +0.000 A 
ATOM     20  C   UNL     1      48.948   6.711  18.253  0.00  0.00    +0.000 A 
BRANCH  12  22
ATOM     21  C   UNL     1      50.055   7.198  14.977  0.00  0.00    +0.000 C 
ATOM     22  O   UNL     1      49.990   6.324  16.101  0.00  0.00    +0.000 OA
ENDBRANCH  12  22
ENDBRANCH   8  19
ENDBRANCH   7  10
ENDBRANCH   1   7
BRANCH   4  23
ATOM     23  C   UNL     1      45.076   6.071  10.259  0.00  0.00    +0.000 C 
BRANCH  23  24
ATOM     24  N   UNL     1      45.761   5.527   9.084  0.00  0.00    +0.000 NA
ATOM     25  H   UNL     1      46.666   5.155   9.378  0.00  0.00    +0.000 HD
BRANCH  24  26
ATOM     26  C   UNL     1      44.999   4.426   8.478  0.00  0.00    +0.000 C 
BRANCH  26  27
ATOM     27  C   UNL     1      45.902   3.291   8.023  0.00  0.00    +0.000 A 
ATOM     28  N   UNL     1      46.962   3.657   7.241  0.00  0.00    +0.000 NA
ATOM     29  C   UNL     1      47.783   2.682   6.791  0.00  0.00    +0.000 A 
ATOM     30  C   UNL     1      47.601   1.338   7.065  0.00  0.00    +0.000 A 
ATOM     31  C   UNL     1      46.517   0.970   7.856  0.00  0.00    +0.000 A 
ATOM     32  C   UNL     1      45.654   1.953   8.348  0.00  0.00    +0.000 A 
ATOM     33 CL   UNL     1      44.344   1.452   9.350  0.00  0.00    +0.000 Cl
ENDBRANCH  26  27
ENDBRANCH  24  26
ENDBRANCH  23  24
ENDBRANCH   4  23
TORSDOF 8
ENDMDL
MODEL 3
REMARK VINA RESULT:    -7.215      2.516      2.965
REMARK INTER + INTRA:         -11.818
REMARK INTER:                 -10.625
REMARK INTRA:                  -1.193
REMARK UNBOUND:                -1.229
REMARK  Name = 
REMARK  9 active torsions:
REMARK  status: ('A' for Active; 'I' for Inactive)
REMARK    1  A    between atoms: C_1  and  O_2
REMARK    2  A    between atoms: O_2  and  C_3
REMARK    3  A    between atoms: C_10  and  C_11
REMARK    4  A    between atoms: N_13  and  C_14
REMARK    5  A    between atoms: C_14  and  C_15
REMARK    6  A    between atoms: C_18  and  C_19
REMARK    7  A    between atoms: C_19  and  N_20
REMARK    8  A    between atoms: N_20  and  C_21
REMARK    9  A    between atoms: C_21  and  C_22
REMARK                            x       y       z     vdW  Elec       q    Type
REMARK                         _______ _______ _______ _____ _____    ______ ____
ROOT
ATOM      1  C   UNL     1      47.606   6.546  14.201  0.00  0.00    +0.000 A 
ATOM      2  C   UNL     1      47.216   5.201  14.237  0.00  0.00    +0.000 A 
ATOM      3  C   UNL     1      46.425   4.659  13.217  0.00  0.00    +0.000 A 
ATOM      4  C   UNL     1      46.007   5.445  12.134  0.00  0.00    +0.000 A 
ATOM      5  C   UNL     1      46.432   6.780  12.079  0.00  0.00    +0.000 A 
ATOM      6  C   UNL     1      47.228   7.322  13.097  0.00  0.00    +0.000 A 
ENDROOT
BRANCH   1   7
ATOM      7  C   UNL     1      48.442   7.138  15.310  0.00  0.00    +0.000 C 
BRANCH   7  10
ATOM      8  C   UNL     1      50.066   6.311  16.968  0.00  0.00    +0.000 C 
ATOM      9  O   UNL     1      49.775   7.205  17.759  0.00  0.00    +0.000 OA
ATOM     10  N   UNL     1      49.464   6.216  15.745  0.00  0.00    +0.000 N 
ATOM     11  H   UNL     1      49.786   5.536  15.072  0.00  0.00    +0.000 HD
BRANCH   8  19
ATOM     12  C   UNL     1      50.001   2.868  17.033  0.00  0.00    +0.000 A 
ATOM     13  N   UNL     1      50.230   1.552  17.200  0.00  0.00    +0.000 NA
ATOM     14  C   UNL     1      51.426   1.174  17.656  0.00  0.00    +0.000 A 
ATOM     15  N   UNL     1      52.449   1.964  17.968  0.00  0.00    +0.000 NA
ATOM     16  C   UNL     1      52.180   3.268  17.788  0.00  0.00    +0.000 A 
ATOM     17  S   UNL     1      53.378   4.423  18.124  0.00  0.00    +0.000 S 
ATOM     18  C   UNL     1      52.337   5.700  17.701  0.00  0.00    +0.000 A 
ATOM     19  C   UNL     1      51.071   5.284  17.304  0.00  0.00    +0.000 A 
ATOM     20  C   UNL     1      50.988   3.825  17.334  0.00  0.00    +0.000 A 
BRANCH  12  22
ATOM     21  C   UNL     1      47.682   3.007  17.338  0.00  0.00    +0.000 C 
ATOM     22  O   UNL     1      48.796   3.248  16.481  0.00  0.00    +0.000 OA
ENDBRANCH  12  22
ENDBRANCH   8  19
ENDBRANCH   7  10
ENDBRANCH   1   7
BRANCH   4  23
ATOM     23  C   UNL     1      45.129   4.861  11.045  0.00  0.00    +0.000 C 
BRANCH  23  24
ATOM     24  N   UNL     1      45.550   5.312   9.716  0.00  0.00    +0.000 NA
ATOM     25  H   UNL     1      46.562   5.197   9.640  0.00  0.00    +0.000 HD
BRANCH  24  26
ATOM     26  C   UNL     1      44.926   4.514   8.652  0.00  0.00    +0.000 C 
BRANCH  26  27
ATOM     27  C   UNL     1      45.865   3.446   8.116  0.00  0.00    +0.000 A 
ATOM     28  N   UNL     1      46.882   3.899   7.323  0.00  0.00    +0.000 NA
ATOM     29  C   UNL     1      47.732   2.986   6.802  0.00  0.00    +0.000 A 
ATOM     30  C   UNL     1      47.620   1.624   7.013  0.00  0.00    +0.000 A 
ATOM     31  C   UNL     1      46.579   1.168   7.814  0.00  0.00    +0.000 A 
ATOM     32  C   UNL     1      45.687   2.084   8.380  0.00  0.00    +0.000 A 
ATOM     33 CL   UNL     1      44.432   1.473   9.392  0.00  0.00    +0.000 Cl
ENDBRANCH  26  27
ENDBRANCH  24  26
ENDBRANCH  23  24
ENDBRANCH   4  23
TORSDOF 8
ENDMDL
MODEL 4
REMARK VINA RESULT:    -6.497      3.744      5.366
REMARK INTER + INTRA:         -10.765
REMARK INTER:                  -9.506
REMARK INTRA:                  -1.260
REMARK UNBOUND:                -1.229
REMARK  Name = 
REMARK  9 active torsions:
REMARK  status: ('A' for Active; 'I' for Inactive)
REMARK    1  A    between atoms: C_1  and  O_2
REMARK    2  A    between atoms: O_2  and  C_3
REMARK    3  A    between atoms: C_10  and  C_11
REMARK    4  A    between atoms: N_13  and  C_14
REMARK    5  A    between atoms: C_14  and  C_15
REMARK    6  A    between atoms: C_18  and  C_19
REMARK    7  A    between atoms: C_19  and  N_20
REMARK    8  A    between atoms: N_20  and  C_21
REMARK    9  A    between atoms: C_21  and  C_22
REMARK                            x       y       z     vdW  Elec       q    Type
REMARK                         _______ _______ _______ _____ _____    ______ ____
ROOT
ATOM      1  C   UNL     1      47.791   6.534  13.745  0.00  0.00    +0.000 A 
ATOM      2  C   UNL     1      47.445   7.329  12.644  0.00  0.00    +0.000 A 
ATOM      3  C   UNL     1      46.509   6.879  11.705  0.00  0.00    +0.000 A 
ATOM      4  C   UNL     1      45.893   5.627  11.844  0.00  0.00    +0.000 A 
ATOM      5  C   UNL     1      46.211   4.851  12.968  0.00  0.00    +0.000 A 
ATOM      6  C   UNL     1      47.144   5.303  13.911  0.00  0.00    +0.000 A 
ENDROOT
BRANCH   1   7
ATOM      7  C   UNL     1      48.816   7.008  14.748  0.00  0.00    +0.000 C 
BRANCH   7  10
ATOM      8  C   UNL     1      50.954   8.223  14.604  0.00  0.00    +0.000 C 
ATOM      9  O   UNL     1      50.701   8.871  15.616  0.00  0.00    +0.000 OA
ATOM     10  N   UNL     1      50.077   7.298  14.110  0.00  0.00    +0.000 N 
ATOM     11  H   UNL     1      50.259   6.849  13.225  0.00  0.00    +0.000 HD
BRANCH   8  19
ATOM     12  C   UNL     1      51.738   8.643  11.276  0.00  0.00    +0.000 A 
ATOM     13  N   UNL     1      52.318   8.757  10.066  0.00  0.00    +0.000 NA
ATOM     14  C   UNL     1      53.651   8.792  10.008  0.00  0.00    +0.000 A 
ATOM     15  N   UNL     1      54.498   8.733  11.031  0.00  0.00    +0.000 NA
ATOM     16  C   UNL     1      53.880   8.619  12.219  0.00  0.00    +0.000 A 
ATOM     17  S   UNL     1      54.806   8.543  13.640  0.00  0.00    +0.000 S 
ATOM     18  C   UNL     1      53.411   8.399  14.602  0.00  0.00    +0.000 A 
ATOM     19  C   UNL     1      52.226   8.400  13.876  0.00  0.00    +0.000 A 
ATOM     20  C   UNL     1      52.509   8.558  12.450  0.00  0.00    +0.000 A 
BRANCH  12  22
ATOM     21  C   UNL     1      49.847  10.024  11.366  0.00  0.00    +0.000 C 
ATOM     22  O   UNL     1      50.361   8.694  11.339  0.00  0.00    +0.000 OA
ENDBRANCH  12  22
ENDBRANCH   8  19
ENDBRANCH   7  10
ENDBRANCH   1   7
BRANCH   4  23
ATOM     23  C   UNL     1      44.899   5.133  10.811  0.00  0.00    +0.000 C 
BRANCH  23  24
ATOM     24  N   UNL     1      45.392   5.346   9.448  0.00  0.00    +0.000 NA
ATOM     25  H   UNL     1      46.403   5.202   9.442  0.00  0.00    +0.000 HD
BRANCH  24  26
ATOM     26  C   UNL     1      44.797   4.391   8.504  0.00  0.00    +0.000 C 
BRANCH  26  27
ATOM     27  C   UNL     1      45.813   3.380   7.998  0.00  0.00    +0.000 A 
ATOM     28  N   UNL     1      46.818   3.891   7.225  0.00  0.00    +0.000 NA
ATOM     29  C   UNL     1      47.736   3.029   6.731  0.00  0.00    +0.000 A 
ATOM     30  C   UNL     1      47.705   1.664   6.952  0.00  0.00    +0.000 A 
ATOM     31  C   UNL     1      46.676   1.149   7.734  0.00  0.00    +0.000 A 
ATOM     32  C   UNL     1      45.716   2.012   8.271  0.00  0.00    +0.000 A 
ATOM     33 CL   UNL     1      44.479   1.331   9.260  0.00  0.00    +0.000 Cl
ENDBRANCH  26  27
ENDBRANCH  24  26
ENDBRANCH  23  24
ENDBRANCH   4  23
TORSDOF 8
ENDMDL
MODEL 5
REMARK VINA RESULT:    -6.404      1.979      2.676
REMARK INTER + INTRA:         -10.628
REMARK INTER:                  -9.177
REMARK INTRA:                  -1.451
REMARK UNBOUND:                -1.229
REMARK  Name = 
REMARK  9 active torsions:
REMARK  status: ('A' for Active; 'I' for Inactive)
REMARK    1  A    between atoms: C_1  and  O_2
REMARK    2  A    between atoms: O_2  and  C_3
REMARK    3  A    between atoms: C_10  and  C_11
REMARK    4  A    between atoms: N_13  and  C_14
REMARK    5  A    between atoms: C_14  and  C_15
REMARK    6  A    between atoms: C_18  and  C_19
REMARK    7  A    between atoms: C_19  and  N_20
REMARK    8  A    between atoms: N_20  and  C_21
REMARK    9  A    between atoms: C_21  and  C_22
REMARK                            x       y       z     vdW  Elec       q    Type
REMARK                         _______ _______ _______ _____ _____    ______ ____
ROOT
ATOM      1  C   UNL     1      48.920   7.856  12.937  0.00  0.00    +0.000 A 
ATOM      2  C   UNL     1      48.460   6.593  12.540  0.00  0.00    +0.000 A 
ATOM      3  C   UNL     1      47.135   6.413  12.126  0.00  0.00    +0.000 A 
ATOM      4  C   UNL     1      46.237   7.489  12.094  0.00  0.00    +0.000 A 
ATOM      5  C   UNL     1      46.710   8.760  12.452  0.00  0.00    +0.000 A 
ATOM      6  C   UNL     1      48.038   8.942  12.862  0.00  0.00    +0.000 A 
ENDROOT
BRANCH   1   7
ATOM      7  C   UNL     1      50.343   8.049  13.404  0.00  0.00    +0.000 C 
BRANCH   7  10
ATOM      8  C   UNL     1      50.365   8.289  15.856  0.00  0.00    +0.000 C 
ATOM      9  O   UNL     1      50.057   9.476  15.782  0.00  0.00    +0.000 OA
ATOM     10  N   UNL     1      50.532   7.525  14.735  0.00  0.00    +0.000 N 
ATOM     11  H   UNL     1      50.881   6.581  14.812  0.00  0.00    +0.000 HD
BRANCH   8  19
ATOM     12  C   UNL     1      49.192   5.344  17.202  0.00  0.00    +0.000 A 
ATOM     13  N   UNL     1      48.838   4.302  17.978  0.00  0.00    +0.000 NA
ATOM     14  C   UNL     1      49.296   4.267  19.232  0.00  0.00    +0.000 A 
ATOM     15  N   UNL     1      50.088   5.159  19.819  0.00  0.00    +0.000 NA
ATOM     16  C   UNL     1      50.417   6.182  19.011  0.00  0.00    +0.000 A 
ATOM     17  S   UNL     1      51.434   7.411  19.591  0.00  0.00    +0.000 S 
ATOM     18  C   UNL     1      51.351   8.248  18.113  0.00  0.00    +0.000 A 
ATOM     19  C   UNL     1      50.555   7.623  17.159  0.00  0.00    +0.000 A 
ATOM     20  C   UNL     1      50.017   6.373  17.692  0.00  0.00    +0.000 A 
BRANCH  12  22
ATOM     21  C   UNL     1      47.487   4.778  15.698  0.00  0.00    +0.000 C 
ATOM     22  O   UNL     1      48.788   5.332  15.883  0.00  0.00    +0.000 OA
ENDBRANCH  12  22
ENDBRANCH   8  19
ENDBRANCH   7  10
ENDBRANCH   1   7
BRANCH   4  23
ATOM     23  C   UNL     1      44.797   7.285  11.670  0.00  0.00    +0.000 C 
BRANCH  23  24
ATOM     24  N   UNL     1      44.407   5.875  11.758  0.00  0.00    +0.000 NA
ATOM     25  H   UNL     1      43.805   5.755  12.574  0.00  0.00    +0.000 HD
BRANCH  24  26
ATOM     26  C   UNL     1      43.647   5.450  10.574  0.00  0.00    +0.000 C 
BRANCH  26  27
ATOM     27  C   UNL     1      44.351   4.338   9.814  0.00  0.00    +0.000 A 
ATOM     28  N   UNL     1      45.105   4.739   8.746  0.00  0.00    +0.000 NA
ATOM     29  C   UNL     1      45.733   3.785   8.023  0.00  0.00    +0.000 A 
ATOM     30  C   UNL     1      45.642   2.432   8.293  0.00  0.00    +0.000 A 
ATOM     31  C   UNL     1      44.869   2.029   9.376  0.00  0.00    +0.000 A 
ATOM     32  C   UNL     1      44.214   2.988  10.154  0.00  0.00    +0.000 A 
ATOM     33 CL   UNL     1      43.292   2.443  11.505  0.00  0.00    +0.000 Cl
ENDBRANCH  26  27
ENDBRANCH  24  26
ENDBRANCH  23  24
ENDBRANCH   4  23
TORSDOF 8
ENDMDL
MODEL 6
REMARK VINA RESULT:    -6.293      2.846      4.329
REMARK INTER + INTRA:         -10.465
REMARK INTER:                  -9.429
REMARK INTRA:                  -1.036
REMARK UNBOUND:                -1.229
REMARK  Name = 
REMARK  9 active torsions:
REMARK  status: ('A' for Active; 'I' for Inactive)
REMARK    1  A    between atoms: C_1  and  O_2
REMARK    2  A    between atoms: O_2  and  C_3
REMARK    3  A    between atoms: C_10  and  C_11
REMARK    4  A    between atoms: N_13  and  C_14
REMARK    5  A    between atoms: C_14  and  C_15
REMARK    6  A    between atoms: C_18  and  C_19
REMARK    7  A    between atoms: C_19  and  N_20
REMARK    8  A    between atoms: N_20  and  C_21
REMARK    9  A    between atoms: C_21  and  C_22
REMARK                            x       y       z     vdW  Elec       q    Type
REMARK                         _______ _______ _______ _____ _____    ______ ____
ROOT
ATOM      1  C   UNL     1      49.419   8.164  15.781  0.00  0.00    +0.000 A 
ATOM      2  C   UNL     1      48.210   8.830  15.539  0.00  0.00    +0.000 A 
ATOM      3  C   UNL     1      47.538   8.671  14.321  0.00  0.00    +0.000 A 
ATOM      4  C   UNL     1      48.053   7.839  13.317  0.00  0.00    +0.000 A 
ATOM      5  C   UNL     1      49.241   7.142  13.576  0.00  0.00    +0.000 A 
ATOM      6  C   UNL     1      49.912   7.297  14.797  0.00  0.00    +0.000 A 
ENDROOT
BRANCH   1   7
ATOM      7  C   UNL     1      50.156   8.350  17.085  0.00  0.00    +0.000 C 
BRANCH   7  10
ATOM      8  C   UNL     1      50.576   6.162  18.138  0.00  0.00    +0.000 C 
ATOM      9  O   UNL     1      49.451   6.138  18.629  0.00  0.00    +0.000 OA
ATOM     10  N   UNL     1      50.999   7.216  17.376  0.00  0.00    +0.000 N 
ATOM     11  H   UNL     1      51.958   7.263  17.064  0.00  0.00    +0.000 HD
BRANCH   8  19
ATOM     12  C   UNL     1      50.543   2.840  17.229  0.00  0.00    +0.000 A 
ATOM     13  N   UNL     1      50.758   1.522  17.057  0.00  0.00    +0.000 NA
ATOM     14  C   UNL     1      51.868   0.992  17.577  0.00  0.00    +0.000 A 
ATOM     15  N   UNL     1      52.816   1.629  18.256  0.00  0.00    +0.000 NA
ATOM     16  C   UNL     1      52.564   2.941  18.406  0.00  0.00    +0.000 A 
ATOM     17  S   UNL     1      53.676   3.916  19.238  0.00  0.00    +0.000 S 
ATOM     18  C   UNL     1      52.704   5.295  19.026  0.00  0.00    +0.000 A 
ATOM     19  C   UNL     1      51.525   5.048  18.331  0.00  0.00    +0.000 A 
ATOM     20  C   UNL     1      51.456   3.642  17.939  0.00  0.00    +0.000 A 
BRANCH  12  22
ATOM     21  C   UNL     1      48.204   2.963  17.180  0.00  0.00    +0.000 C 
ATOM     22  O   UNL     1      49.441   3.399  16.619  0.00  0.00    +0.000 OA
ENDBRANCH  12  22
ENDBRANCH   8  19
ENDBRANCH   7  10
ENDBRANCH   1   7
BRANCH   4  23
ATOM     23  C   UNL     1      47.335   7.690  11.990  0.00  0.00    +0.000 C 
BRANCH  23  24
ATOM     24  N   UNL     1      46.809   6.334  11.815  0.00  0.00    +0.000 NA
ATOM     25  H   UNL     1      46.619   5.937  12.737  0.00  0.00    +0.000 HD
BRANCH  24  26
ATOM     26  C   UNL     1      45.548   6.338  11.059  0.00  0.00    +0.000 C 
BRANCH  26  27
ATOM     27  C   UNL     1      45.350   5.051  10.275  0.00  0.00    +0.000 A 
ATOM     28  N   UNL     1      45.705   5.103   8.956  0.00  0.00    +0.000 NA
ATOM     29  C   UNL     1      45.526   3.991   8.209  0.00  0.00    +0.000 A 
ATOM     30  C   UNL     1      44.991   2.814   8.700  0.00  0.00    +0.000 A 
ATOM     31  C   UNL     1      44.625   2.768  10.041  0.00  0.00    +0.000 A 
ATOM     32  C   UNL     1      44.806   3.896  10.847  0.00  0.00    +0.000 A 
ATOM     33 CL   UNL     1      44.367   3.781  12.510  0.00  0.00    +0.000 Cl
ENDBRANCH  26  27
ENDBRANCH  24  26
ENDBRANCH  23  24
ENDBRANCH   4  23
TORSDOF 8
ENDMDL
MODEL 7
REMARK VINA RESULT:    -6.147      3.202      3.883
REMARK INTER + INTRA:         -10.251
REMARK INTER:                  -9.250
REMARK INTRA:                  -1.001
REMARK UNBOUND:                -1.229
REMARK  Name = 
REMARK  9 active torsions:
REMARK  status: ('A' for Active; 'I' for Inactive)
REMARK    1  A    between atoms: C_1  and  O_2
REMARK    2  A    between atoms: O_2  and  C_3
REMARK    3  A    between atoms: C_10  and  C_11
REMARK    4  A    between atoms: N_13  and  C_14
REMARK    5  A    between atoms: C_14  and  C_15
REMARK    6  A    between atoms: C_18  and  C_19
REMARK    7  A    between atoms: C_19  and  N_20
REMARK    8  A    between atoms: N_20  and  C_21
REMARK    9  A    between atoms: C_21  and  C_22
REMARK                            x       y       z     vdW  Elec       q    Type
REMARK                         _______ _______ _______ _____ _____    ______ ____
ROOT
ATOM      1  C   UNL     1      49.607   7.652  13.793  0.00  0.00    +0.000 A 
ATOM      2  C   UNL     1      49.244   7.730  12.442  0.00  0.00    +0.000 A 
ATOM      3  C   UNL     1      48.121   7.045  11.963  0.00  0.00    +0.000 A 
ATOM      4  C   UNL     1      47.329   6.270  12.822  0.00  0.00    +0.000 A 
ATOM      5  C   UNL     1      47.670   6.227  14.181  0.00  0.00    +0.000 A 
ATOM      6  C   UNL     1      48.791   6.915  14.662  0.00  0.00    +0.000 A 
ENDROOT
BRANCH   1   7
ATOM      7  C   UNL     1      50.830   8.372  14.308  0.00  0.00    +0.000 C 
BRANCH   7  10
ATOM      8  C   UNL     1      51.897   7.331  16.270  0.00  0.00    +0.000 C 
ATOM      9  O   UNL     1      51.236   8.018  17.044  0.00  0.00    +0.000 OA
ATOM     10  N   UNL     1      51.762   7.453  14.914  0.00  0.00    +0.000 N 
ATOM     11  H   UNL     1      52.383   6.952  14.296  0.00  0.00    +0.000 HD
BRANCH   8  19
ATOM     12  C   UNL     1      51.565   4.127  17.489  0.00  0.00    +0.000 A 
ATOM     13  N   UNL     1      51.714   2.911  18.047  0.00  0.00    +0.000 NA
ATOM     14  C   UNL     1      52.943   2.528  18.404  0.00  0.00    +0.000 A 
ATOM     15  N   UNL     1      54.068   3.222  18.263  0.00  0.00    +0.000 NA
ATOM     16  C   UNL     1      53.876   4.429  17.705  0.00  0.00    +0.000 A 
ATOM     17  S   UNL     1      55.207   5.447  17.437  0.00  0.00    +0.000 S 
ATOM     18  C   UNL     1      54.211   6.663  16.786  0.00  0.00    +0.000 A 
ATOM     19  C   UNL     1      52.862   6.328  16.762  0.00  0.00    +0.000 A 
ATOM     20  C   UNL     1      52.667   4.979  17.290  0.00  0.00    +0.000 A 
BRANCH  12  22
ATOM     21  C   UNL     1      49.295   3.554  17.418  0.00  0.00    +0.000 C 
ATOM     22  O   UNL     1      50.310   4.484  17.045  0.00  0.00    +0.000 OA
ENDBRANCH  12  22
ENDBRANCH   8  19
ENDBRANCH   7  10
ENDBRANCH   1   7
BRANCH   4  23
ATOM     23  C   UNL     1      46.128   5.510  12.295  0.00  0.00    +0.000 C 
BRANCH  23  24
ATOM     24  N   UNL     1      45.393   6.294  11.298  0.00  0.00    +0.000 NA
ATOM     25  H   UNL     1      46.033   6.538  10.540  0.00  0.00    +0.000 HD
BRANCH  24  26
ATOM     26  C   UNL     1      44.284   5.524  10.717  0.00  0.00    +0.000 C 
BRANCH  26  27
ATOM     27  C   UNL     1      44.778   4.390   9.835  0.00  0.00    +0.000 A 
ATOM     28  N   UNL     1      45.567   4.762   8.783  0.00  0.00    +0.000 NA
ATOM     29  C   UNL     1      46.014   3.792   7.953  0.00  0.00    +0.000 A 
ATOM     30  C   UNL     1      45.704   2.453   8.101  0.00  0.00    +0.000 A 
ATOM     31  C   UNL     1      44.896   2.080   9.170  0.00  0.00    +0.000 A 
ATOM     32  C   UNL     1      44.425   3.054  10.055  0.00  0.00    +0.000 A 
ATOM     33 CL   UNL     1      43.452   2.541  11.381  0.00  0.00    +0.000 Cl
ENDBRANCH  26  27
ENDBRANCH  24  26
ENDBRANCH  23  24
ENDBRANCH   4  23
TORSDOF 8
ENDMDL
MODEL 8
REMARK VINA RESULT:    -6.106      4.038      8.204
REMARK INTER + INTRA:         -10.191
REMARK INTER:                  -8.540
REMARK INTRA:                  -1.651
REMARK UNBOUND:                -1.229
REMARK  Name = 
REMARK  9 active torsions:
REMARK  status: ('A' for Active; 'I' for Inactive)
REMARK    1  A    between atoms: C_1  and  O_2
REMARK    2  A    between atoms: O_2  and  C_3
REMARK    3  A    between atoms: C_10  and  C_11
REMARK    4  A    between atoms: N_13  and  C_14
REMARK    5  A    between atoms: C_14  and  C_15
REMARK    6  A    between atoms: C_18  and  C_19
REMARK    7  A    between atoms: C_19  and  N_20
REMARK    8  A    between atoms: N_20  and  C_21
REMARK    9  A    between atoms: C_21  and  C_22
REMARK                            x       y       z     vdW  Elec       q    Type
REMARK                         _______ _______ _______ _____ _____    ______ ____
ROOT
ATOM      1  C   UNL     1      48.761   8.343  15.045  0.00  0.00    +0.000 A 
ATOM      2  C   UNL     1      49.665   7.291  15.247  0.00  0.00    +0.000 A 
ATOM      3  C   UNL     1      50.100   6.962  16.536  0.00  0.00    +0.000 A 
ATOM      4  C   UNL     1      49.643   7.672  17.655  0.00  0.00    +0.000 A 
ATOM      5  C   UNL     1      48.708   8.697  17.455  0.00  0.00    +0.000 A 
ATOM      6  C   UNL     1      48.267   9.024  16.165  0.00  0.00    +0.000 A 
ENDROOT
BRANCH   1   7
ATOM      7  C   UNL     1      48.305   8.713  13.654  0.00  0.00    +0.000 C 
BRANCH   7  10
ATOM      8  C   UNL     1      46.927   7.272  12.206  0.00  0.00    +0.000 C 
ATOM      9  O   UNL     1      47.857   7.099  11.424  0.00  0.00    +0.000 OA
ATOM     10  N   UNL     1      47.065   8.057  13.318  0.00  0.00    +0.000 N 
ATOM     11  H   UNL     1      46.263   8.266  13.893  0.00  0.00    +0.000 HD
BRANCH   8  19
ATOM     12  C   UNL     1      45.727   4.096  12.783  0.00  0.00    +0.000 A 
ATOM     13  N   UNL     1      45.032   2.944  12.846  0.00  0.00    +0.000 NA
ATOM     14  C   UNL     1      43.779   2.939  12.384  0.00  0.00    +0.000 A 
ATOM     15  N   UNL     1      43.116   3.966  11.861  0.00  0.00    +0.000 NA
ATOM     16  C   UNL     1      43.844   5.094  11.815  0.00  0.00    +0.000 A 
ATOM     17  S   UNL     1      43.151   6.511  11.189  0.00  0.00    +0.000 S 
ATOM     18  C   UNL     1      44.588   7.386  11.441  0.00  0.00    +0.000 A 
ATOM     19  C   UNL     1      45.614   6.630  11.996  0.00  0.00    +0.000 A 
ATOM     20  C   UNL     1      45.158   5.263  12.242  0.00  0.00    +0.000 A 
BRANCH  12  22
ATOM     21  C   UNL     1      47.001   4.572  14.690  0.00  0.00    +0.000 C 
ATOM     22  O   UNL     1      46.989   4.119  13.338  0.00  0.00    +0.000 OA
ENDBRANCH  12  22
ENDBRANCH   8  19
ENDBRANCH   7  10
ENDBRANCH   1   7
BRANCH   4  23
ATOM     23  C   UNL     1      50.137   7.329  19.046  0.00  0.00    +0.000 C 
BRANCH  23  24
ATOM     24  N   UNL     1      49.126   6.591  19.808  0.00  0.00    +0.000 NA
ATOM     25  H   UNL     1      48.298   6.476  19.222  0.00  0.00    +0.000 HD
BRANCH  24  26
ATOM     26  C   UNL     1      49.603   5.251  20.180  0.00  0.00    +0.000 C 
BRANCH  26  27
ATOM     27  C   UNL     1      49.517   4.274  19.020  0.00  0.00    +0.000 A 
ATOM     28  N   UNL     1      48.258   3.851  18.696  0.00  0.00    +0.000 NA
ATOM     29  C   UNL     1      48.129   2.962  17.685  0.00  0.00    +0.000 A 
ATOM     30  C   UNL     1      49.198   2.448  16.975  0.00  0.00    +0.000 A 
ATOM     31  C   UNL     1      50.478   2.877  17.312  0.00  0.00    +0.000 A 
ATOM     32  C   UNL     1      50.648   3.804  18.344  0.00  0.00    +0.000 A 
ATOM     33 CL   UNL     1      52.250   4.328  18.705  0.00  0.00    +0.000 Cl
ENDBRANCH  26  27
ENDBRANCH  24  26
ENDBRANCH  23  24
ENDBRANCH   4  23
TORSDOF 8
ENDMDL
MODEL 9
REMARK VINA RESULT:    -5.976      5.731      7.862
REMARK INTER + INTRA:         -10.000
REMARK INTER:                  -8.815
REMARK INTRA:                  -1.185
REMARK UNBOUND:                -1.229
REMARK  Name = 
REMARK  9 active torsions:
REMARK  status: ('A' for Active; 'I' for Inactive)
REMARK    1  A    between atoms: C_1  and  O_2
REMARK    2  A    between atoms: O_2  and  C_3
REMARK    3  A    between atoms: C_10  and  C_11
REMARK    4  A    between atoms: N_13  and  C_14
REMARK    5  A    between atoms: C_14  and  C_15
REMARK    6  A    between atoms: C_18  and  C_19
REMARK    7  A    between atoms: C_19  and  N_20
REMARK    8  A    between atoms: N_20  and  C_21
REMARK    9  A    between atoms: C_21  and  C_22
REMARK                            x       y       z     vdW  Elec       q    Type
REMARK                         _______ _______ _______ _____ _____    ______ ____
ROOT
ATOM      1  C   UNL     1      49.865   8.055  12.130  0.00  0.00    +0.000 A 
ATOM      2  C   UNL     1      49.426   6.991  12.932  0.00  0.00    +0.000 A 
ATOM      3  C   UNL     1      48.062   6.796  13.175  0.00  0.00    +0.000 A 
ATOM      4  C   UNL     1      47.101   7.654  12.621  0.00  0.00    +0.000 A 
ATOM      5  C   UNL     1      47.539   8.692  11.788  0.00  0.00    +0.000 A 
ATOM      6  C   UNL     1      48.904   8.886  11.540  0.00  0.00    +0.000 A 
ENDROOT
BRANCH   1   7
ATOM      7  C   UNL     1      51.337   8.280  11.884  0.00  0.00    +0.000 C 
BRANCH   7  10
ATOM      8  C   UNL     1      52.610   8.731   9.823  0.00  0.00    +0.000 C 
ATOM      9  O   UNL     1      53.180   9.691  10.337  0.00  0.00    +0.000 OA
ATOM     10  N   UNL     1      51.688   7.995  10.513  0.00  0.00    +0.000 N 
ATOM     11  H   UNL     1      51.160   7.275  10.044  0.00  0.00    +0.000 HD
BRANCH   8  19
ATOM     12  C   UNL     1      53.630   5.760   8.412  0.00  0.00    +0.000 A 
ATOM     13  N   UNL     1      54.076   4.763   7.624  0.00  0.00    +0.000 NA
ATOM     14  C   UNL     1      54.246   5.017   6.324  0.00  0.00    +0.000 A 
ATOM     15  N   UNL     1      54.014   6.166   5.697  0.00  0.00    +0.000 NA
ATOM     16  C   UNL     1      53.572   7.134   6.518  0.00  0.00    +0.000 A 
ATOM     17  S   UNL     1      53.212   8.667   5.886  0.00  0.00    +0.000 S 
ATOM     18  C   UNL     1      52.781   9.256   7.422  0.00  0.00    +0.000 A 
ATOM     19  C   UNL     1      52.904   8.314   8.438  0.00  0.00    +0.000 A 
ATOM     20  C   UNL     1      53.354   7.036   7.889  0.00  0.00    +0.000 A 
BRANCH  12  22
ATOM     21  C   UNL     1      54.558   5.278  10.509  0.00  0.00    +0.000 C 
ATOM     22  O   UNL     1      53.375   5.470   9.736  0.00  0.00    +0.000 OA
ENDBRANCH  12  22
ENDBRANCH   8  19
ENDBRANCH   7  10
ENDBRANCH   1   7
BRANCH   4  23
ATOM     23  C   UNL     1      45.626   7.453  12.908  0.00  0.00    +0.000 C 
BRANCH  23  24
ATOM     24  N   UNL     1      44.924   6.900  11.747  0.00  0.00    +0.000 NA
ATOM     25  H   UNL     1      45.558   6.913  10.947  0.00  0.00    +0.000 HD
BRANCH  24  26
ATOM     26  C   UNL     1      44.519   5.506  11.976  0.00  0.00    +0.000 C 
BRANCH  26  27
ATOM     27  C   UNL     1      44.739   4.640  10.746  0.00  0.00    +0.000 A 
ATOM     28  N   UNL     1      45.480   5.209   9.748  0.00  0.00    +0.000 NA
ATOM     29  C   UNL     1      45.685   4.488   8.623  0.00  0.00    +0.000 A 
ATOM     30  C   UNL     1      45.175   3.219   8.421  0.00  0.00    +0.000 A 
ATOM     31  C   UNL     1      44.417   2.646   9.437  0.00  0.00    +0.000 A 
ATOM     32  C   UNL     1      44.193   3.358  10.619  0.00  0.00    +0.000 A 
ATOM     33 CL   UNL     1      43.274   2.595  11.861  0.00  0.00    +0.000 Cl
ENDBRANCH  26  27
ENDBRANCH  24  26
ENDBRANCH  23  24
ENDBRANCH   4  23
TORSDOF 8
ENDMDL
