MODEL 1
REMARK VINA RESULT:    -7.205      0.000      0.000
REMARK INTER + INTRA:         -10.712
REMARK INTER:                  -9.942
REMARK INTRA:                  -0.770
REMARK UNBOUND:                -0.770
REMARK  Name = 
REMARK  7 active torsions:
REMARK  status: ('A' for Active; 'I' for Inactive)
REMARK    1  A    between atoms: C_2  and  C_15
REMARK    2  A    between atoms: N_3  and  C_4
REMARK    3  A    between atoms: C_4  and  C_5
REMARK    4  A    between atoms: N_8  and  C_9
REMARK    5  A    between atoms: C_9  and  C_10
REMARK    6  A    between atoms: C_10  and  C_11
REMARK    7  A    between atoms: C_11  and  O_12
REMARK                            x       y       z     vdW  Elec       q    Type
REMARK                         _______ _______ _______ _____ _____    ______ ____
ROOT
ATOM      1  O   UNL     1      47.251   3.267  13.988  0.00  0.00    +0.000 OA
ATOM      2  C   UNL     1      46.860   4.379  14.364  0.00  0.00    +0.000 C 
ATOM      3  N   UNL     1      45.628   4.876  14.046  0.00  0.00    +0.000 N 
ATOM      4  H   UNL     1      45.445   5.865  14.194  0.00  0.00    +0.000 HD
ENDROOT
BRANCH   2   5
ATOM      5  C   UNL     1      47.682   5.222  15.225  0.00  0.00    +0.000 A 
ATOM      6  C   UNL     1      48.396   6.307  14.743  0.00  0.00    +0.000 A 
ATOM      7  S   UNL     1      49.270   7.128  15.967  0.00  0.00    +0.000 S 
ATOM      8  C   UNL     1      48.692   6.071  17.169  0.00  0.00    +0.000 A 
ATOM      9  N   UNL     1      49.043   6.214  18.475  0.00  0.00    +0.000 NA
ATOM     10  C   UNL     1      48.503   5.357  19.272  0.00  0.00    +0.000 A 
ATOM     11  N   UNL     1      47.642   4.359  18.888  0.00  0.00    +0.000 N 
ATOM     12  C   UNL     1      47.309   4.134  17.585  0.00  0.00    +0.000 A 
ATOM     13  O   UNL     1      46.640   3.148  17.264  0.00  0.00    +0.000 OA
ATOM     14  C   UNL     1      47.866   5.097  16.647  0.00  0.00    +0.000 A 
ATOM     15  H   UNL     1      47.282   3.690  19.550  0.00  0.00    +0.000 HD
ENDBRANCH   2   5
BRANCH   3  16
ATOM     16  C   UNL     1      44.712   4.179  13.174  0.00  0.00    +0.000 C 
BRANCH  16  17
ATOM     17  C   UNL     1      44.001   5.145  12.214  0.00  0.00    +0.000 C 
ATOM     18  C   UNL     1      43.067   4.420  11.237  0.00  0.00    +0.000 C 
ATOM     19  C   UNL     1      43.808   3.706  10.112  0.00  0.00    +0.000 C 
ATOM     20  N   UNL     1      44.704   4.618   9.383  0.00  0.00    +0.000 NA
ATOM     21  C   UNL     1      45.699   5.193  10.301  0.00  0.00    +0.000 C 
ATOM     22  C   UNL     1      45.015   5.983  11.424  0.00  0.00    +0.000 C 
BRANCH  20  23
ATOM     23  C   UNL     1      45.346   3.916   8.254  0.00  0.00    +0.000 C 
BRANCH  23  24
ATOM     24  C   UNL     1      45.322   2.386   8.402  0.00  0.00    +0.000 C 
BRANCH  24  25
ATOM     25  C   UNL     1      46.590   1.722   7.885  0.00  0.00    +0.000 C 
BRANCH  25  26
ATOM     26  O   UNL     1      46.470   0.307   7.998  0.00  0.00    +0.000 OA
ATOM     27  H   UNL     1      47.368  -0.062   8.029  0.00  0.00    +0.000 HD
ENDBRANCH  25  26
ENDBRANCH  24  25
ENDBRANCH  23  24
ENDBRANCH  20  23
ENDBRANCH  16  17
ENDBRANCH   3  16
TORSDOF 7
ENDMDL
MODEL 2
REMARK VINA RESULT:    -7.116      1.668      1.970
REMARK INTER + INTRA:         -10.589
REMARK INTER:                  -9.633
REMARK INTRA:                  -0.956
REMARK UNBOUND:                -0.770
REMARK  Name = 
REMARK  7 active torsions:
REMARK  status: ('A' for Active; 'I' for Inactive)
REMARK    1  A    between atoms: C_2  and  C_15
REMARK    2  A    between atoms: N_3  and  C_4
REMARK    3  A    between atoms: C_4  and  C_5
REMARK    4  A    between atoms: N_8  and  C_9
REMARK    5  A    between atoms: C_9  and  C_10
REMARK    6  A    between atoms: C_10  and  C_11
REMARK    7  A    between atoms: C_11  and  O_12
REMARK                            x       y       z     vdW  Elec       q    Type
REMARK                         _______ _______ _______ _____ _____    ______ ____
ROOT
ATOM      1  O   UNL     1      48.627   6.273  13.077  0.00  0.00    +0.000 OA
ATOM      2  C   UNL     1      47.865   6.232  14.051  0.00  0.00    +0.000 C 
ATOM      3  N   UNL     1      46.505   6.187  13.924  0.00  0.00    +0.000 N 
ATOM      4  H   UNL     1      45.930   6.372  14.740  0.00  0.00    +0.000 HD
ENDROOT
BRANCH   2   5
ATOM      5  C   UNL     1      48.377   6.178  15.416  0.00  0.00    +0.000 A 
ATOM      6  C   UNL     1      49.038   7.243  16.005  0.00  0.00    +0.000 A 
ATOM      7  S   UNL     1      49.527   6.916  17.615  0.00  0.00    +0.000 S 
ATOM      8  C   UNL     1      48.842   5.359  17.568  0.00  0.00    +0.000 A 
ATOM      9  N   UNL     1      48.891   4.524  18.640  0.00  0.00    +0.000 NA
ATOM     10  C   UNL     1      48.305   3.390  18.464  0.00  0.00    +0.000 A 
ATOM     11  N   UNL     1      47.672   3.003  17.308  0.00  0.00    +0.000 N 
ATOM     12  C   UNL     1      47.651   3.775  16.185  0.00  0.00    +0.000 A 
ATOM     13  O   UNL     1      47.192   3.340  15.126  0.00  0.00    +0.000 OA
ATOM     14  C   UNL     1      48.271   5.082  16.342  0.00  0.00    +0.000 A 
ATOM     15  H   UNL     1      47.266   2.086  17.212  0.00  0.00    +0.000 HD
ENDBRANCH   2   5
BRANCH   3  16
ATOM     16  C   UNL     1      45.843   6.268  12.643  0.00  0.00    +0.000 C 
BRANCH  16  17
ATOM     17  C   UNL     1      44.452   5.616  12.684  0.00  0.00    +0.000 C 
ATOM     18  C   UNL     1      44.520   4.107  12.950  0.00  0.00    +0.000 C 
ATOM     19  C   UNL     1      44.961   3.300  11.734  0.00  0.00    +0.000 C 
ATOM     20  N   UNL     1      44.116   3.576  10.561  0.00  0.00    +0.000 NA
ATOM     21  C   UNL     1      44.179   5.004  10.216  0.00  0.00    +0.000 C 
ATOM     22  C   UNL     1      43.684   5.870  11.381  0.00  0.00    +0.000 C 
BRANCH  20  23
ATOM     23  C   UNL     1      44.520   2.723   9.425  0.00  0.00    +0.000 C 
BRANCH  23  24
ATOM     24  C   UNL     1      44.839   3.524   8.152  0.00  0.00    +0.000 C 
BRANCH  24  25
ATOM     25  C   UNL     1      46.178   3.147   7.537  0.00  0.00    +0.000 C 
BRANCH  25  26
ATOM     26  O   UNL     1      46.810   4.312   7.014  0.00  0.00    +0.000 OA
ATOM     27  H   UNL     1      47.740   4.091   6.842  0.00  0.00    +0.000 HD
ENDBRANCH  25  26
ENDBRANCH  24  25
ENDBRANCH  23  24
ENDBRANCH  20  23
ENDBRANCH  16  17
ENDBRANCH   3  16
TORSDOF 7
ENDMDL
MODEL 3
REMARK VINA RESULT:    -7.107      3.196      7.620
REMARK INTER + INTRA:         -10.578
REMARK INTER:                  -9.623
REMARK INTRA:                  -0.955
REMARK UNBOUND:                -0.770
REMARK  Name = 
REMARK  7 active torsions:
REMARK  status: ('A' for Active; 'I' for Inactive)
REMARK    1  A    between atoms: C_2  and  C_15
REMARK    2  A    between atoms: N_3  and  C_4
REMARK    3  A    between atoms: C_4  and  C_5
REMARK    4  A    between atoms: N_8  and  C_9
REMARK    5  A    between atoms: C_9  and  C_10
REMARK    6  A    between atoms: C_10  and  C_11
REMARK    7  A    between atoms: C_11  and  O_12
REMARK                            x       y       z     vdW  Elec       q    Type
REMARK                         _______ _______ _______ _____ _____    ______ ____
ROOT
ATOM      1  O   UNL     1      48.734   6.252  12.974  0.00  0.00    +0.000 OA
ATOM      2  C   UNL     1      47.642   6.145  13.547  0.00  0.00    +0.000 C 
ATOM      3  N   UNL     1      47.524   6.095  14.907  0.00  0.00    +0.000 N 
ATOM      4  H   UNL     1      46.642   5.792  15.312  0.00  0.00    +0.000 HD
ENDROOT
BRANCH   2   5
ATOM      5  C   UNL     1      46.390   6.115  12.799  0.00  0.00    +0.000 A 
ATOM      6  C   UNL     1      45.834   7.251  12.234  0.00  0.00    +0.000 A 
ATOM      7  S   UNL     1      44.368   6.935  11.405  0.00  0.00    +0.000 S 
ATOM      8  C   UNL     1      44.460   5.272  11.759  0.00  0.00    +0.000 A 
ATOM      9  N   UNL     1      43.513   4.397  11.329  0.00  0.00    +0.000 NA
ATOM     10  C   UNL     1      43.733   3.168  11.650  0.00  0.00    +0.000 A 
ATOM     11  N   UNL     1      44.817   2.725  12.368  0.00  0.00    +0.000 N 
ATOM     12  C   UNL     1      45.760   3.568  12.876  0.00  0.00    +0.000 A 
ATOM     13  O   UNL     1      46.643   3.150  13.627  0.00  0.00    +0.000 OA
ATOM     14  C   UNL     1      45.575   4.965  12.513  0.00  0.00    +0.000 A 
ATOM     15  H   UNL     1      44.917   1.756  12.626  0.00  0.00    +0.000 HD
ENDBRANCH   2   5
BRANCH   3  16
ATOM     16  C   UNL     1      48.670   6.079  15.786  0.00  0.00    +0.000 C 
BRANCH  16  17
ATOM     17  C   UNL     1      48.328   5.455  17.148  0.00  0.00    +0.000 C 
ATOM     18  C   UNL     1      49.562   5.294  18.046  0.00  0.00    +0.000 C 
ATOM     19  C   UNL     1      50.456   4.129  17.636  0.00  0.00    +0.000 C 
ATOM     20  N   UNL     1      49.706   2.865  17.564  0.00  0.00    +0.000 NA
ATOM     21  C   UNL     1      48.616   2.977  16.584  0.00  0.00    +0.000 C 
ATOM     22  C   UNL     1      47.641   4.095  16.976  0.00  0.00    +0.000 C 
BRANCH  20  23
ATOM     23  C   UNL     1      50.614   1.746  17.242  0.00  0.00    +0.000 C 
BRANCH  23  24
ATOM     24  C   UNL     1      52.068   2.005  17.669  0.00  0.00    +0.000 C 
BRANCH  24  25
ATOM     25  C   UNL     1      52.906   0.736  17.715  0.00  0.00    +0.000 C 
BRANCH  25  26
ATOM     26  O   UNL     1      52.185  -0.290  18.391  0.00  0.00    +0.000 OA
ATOM     27  H   UNL     1      52.692  -0.533  19.183  0.00  0.00    +0.000 HD
ENDBRANCH  25  26
ENDBRANCH  24  25
ENDBRANCH  23  24
ENDBRANCH  20  23
ENDBRANCH  16  17
ENDBRANCH   3  16
TORSDOF 7
ENDMDL
MODEL 4
REMARK VINA RESULT:    -7.101      1.769      2.427
REMARK INTER + INTRA:         -10.568
REMARK INTER:                  -9.681
REMARK INTRA:                  -0.887
REMARK UNBOUND:                -0.770
REMARK  Name = 
REMARK  7 active torsions:
REMARK  status: ('A' for Active; 'I' for Inactive)
REMARK    1  A    between atoms: C_2  and  C_15
REMARK    2  A    between atoms: N_3  and  C_4
REMARK    3  A    between atoms: C_4  and  C_5
REMARK    4  A    between atoms: N_8  and  C_9
REMARK    5  A    between atoms: C_9  and  C_10
REMARK    6  A    between atoms: C_10  and  C_11
REMARK    7  A    between atoms: C_11  and  O_12
REMARK                            x       y       z     vdW  Elec       q    Type
REMARK                         _______ _______ _______ _____ _____    ______ ____
ROOT
ATOM      1  O   UNL     1      47.759   2.888  14.970  0.00  0.00    +0.000 OA
ATOM      2  C   UNL     1      47.306   4.017  15.197  0.00  0.00    +0.000 C 
ATOM      3  N   UNL     1      46.390   4.623  14.384  0.00  0.00    +0.000 N 
ATOM      4  H   UNL     1      46.219   5.618  14.495  0.00  0.00    +0.000 HD
ENDROOT
BRANCH   2   5
ATOM      5  C   UNL     1      47.688   4.764  16.391  0.00  0.00    +0.000 A 
ATOM      6  C   UNL     1      47.300   4.380  17.664  0.00  0.00    +0.000 A 
ATOM      7  S   UNL     1      47.891   5.427  18.885  0.00  0.00    +0.000 S 
ATOM      8  C   UNL     1      48.700   6.397  17.743  0.00  0.00    +0.000 A 
ATOM      9  N   UNL     1      49.429   7.481  18.116  0.00  0.00    +0.000 NA
ATOM     10  C   UNL     1      50.007   8.099  17.143  0.00  0.00    +0.000 A 
ATOM     11  N   UNL     1      49.922   7.737  15.821  0.00  0.00    +0.000 N 
ATOM     12  C   UNL     1      49.153   6.698  15.389  0.00  0.00    +0.000 A 
ATOM     13  O   UNL     1      48.995   6.486  14.184  0.00  0.00    +0.000 OA
ATOM     14  C   UNL     1      48.506   5.946  16.453  0.00  0.00    +0.000 A 
ATOM     15  H   UNL     1      50.362   8.283  15.097  0.00  0.00    +0.000 HD
ENDBRANCH   2   5
BRANCH   3  16
ATOM     16  C   UNL     1      45.939   4.030  13.147  0.00  0.00    +0.000 C 
BRANCH  16  17
ATOM     17  C   UNL     1      44.641   4.683  12.649  0.00  0.00    +0.000 C 
ATOM     18  C   UNL     1      43.668   3.666  12.039  0.00  0.00    +0.000 C 
ATOM     19  C   UNL     1      44.076   3.203  10.645  0.00  0.00    +0.000 C 
ATOM     20  N   UNL     1      44.271   4.338   9.729  0.00  0.00    +0.000 NA
ATOM     21  C   UNL     1      45.318   5.232  10.244  0.00  0.00    +0.000 C 
ATOM     22  C   UNL     1      44.936   5.785  11.623  0.00  0.00    +0.000 C 
BRANCH  20  23
ATOM     23  C   UNL     1      44.588   3.854   8.370  0.00  0.00    +0.000 C 
BRANCH  23  24
ATOM     24  C   UNL     1      45.648   2.741   8.357  0.00  0.00    +0.000 C 
BRANCH  24  25
ATOM     25  C   UNL     1      46.704   2.943   7.280  0.00  0.00    +0.000 C 
BRANCH  25  26
ATOM     26  O   UNL     1      46.871   4.335   7.028  0.00  0.00    +0.000 OA
ATOM     27  H   UNL     1      47.513   4.427   6.304  0.00  0.00    +0.000 HD
ENDBRANCH  25  26
ENDBRANCH  24  25
ENDBRANCH  23  24
ENDBRANCH  20  23
ENDBRANCH  16  17
ENDBRANCH   3  16
TORSDOF 7
ENDMDL
MODEL 5
REMARK VINA RESULT:    -6.742      3.342      4.230
REMARK INTER + INTRA:         -10.074
REMARK INTER:                  -9.644
REMARK INTRA:                  -0.430
REMARK UNBOUND:                -0.770
REMARK  Name = 
REMARK  7 active torsions:
REMARK  status: ('A' for Active; 'I' for Inactive)
REMARK    1  A    between atoms: C_2  and  C_15
REMARK    2  A    between atoms: N_3  and  C_4
REMARK    3  A    between atoms: C_4  and  C_5
REMARK    4  A    between atoms: N_8  and  C_9
REMARK    5  A    between atoms: C_9  and  C_10
REMARK    6  A    between atoms: C_10  and  C_11
REMARK    7  A    between atoms: C_11  and  O_12
REMARK                            x       y       z     vdW  Elec       q    Type
REMARK                         _______ _______ _______ _____ _____    ______ ____
ROOT
ATOM      1  O   UNL     1      46.822   4.044  14.004  0.00  0.00    +0.000 OA
ATOM      2  C   UNL     1      46.549   4.795  13.060  0.00  0.00    +0.000 C 
ATOM      3  N   UNL     1      45.651   4.462  12.086  0.00  0.00    +0.000 N 
ATOM      4  H   UNL     1      45.627   5.012  11.232  0.00  0.00    +0.000 HD
ENDROOT
BRANCH   2   5
ATOM      5  C   UNL     1      47.140   6.125  12.951  0.00  0.00    +0.000 A 
ATOM      6  C   UNL     1      48.500   6.349  13.091  0.00  0.00    +0.000 A 
ATOM      7  S   UNL     1      48.927   7.998  12.910  0.00  0.00    +0.000 S 
ATOM      8  C   UNL     1      47.311   8.443  12.613  0.00  0.00    +0.000 A 
ATOM      9  N   UNL     1      46.960   9.732  12.361  0.00  0.00    +0.000 NA
ATOM     10  C   UNL     1      45.705   9.910  12.126  0.00  0.00    +0.000 A 
ATOM     11  N   UNL     1      44.757   8.916  12.123  0.00  0.00    +0.000 N 
ATOM     12  C   UNL     1      45.046   7.620  12.432  0.00  0.00    +0.000 A 
ATOM     13  O   UNL     1      44.148   6.783  12.550  0.00  0.00    +0.000 OA
ATOM     14  C   UNL     1      46.457   7.360  12.672  0.00  0.00    +0.000 A 
ATOM     15  H   UNL     1      43.781   9.120  11.974  0.00  0.00    +0.000 HD
ENDBRANCH   2   5
BRANCH   3  16
ATOM     16  C   UNL     1      45.008   3.170  12.033  0.00  0.00    +0.000 C 
BRANCH  16  17
ATOM     17  C   UNL     1      43.945   3.114  10.925  0.00  0.00    +0.000 C 
ATOM     18  C   UNL     1      44.211   1.991   9.913  0.00  0.00    +0.000 C 
ATOM     19  C   UNL     1      45.339   2.313   8.939  0.00  0.00    +0.000 C 
ATOM     20  N   UNL     1      45.110   3.588   8.241  0.00  0.00    +0.000 NA
ATOM     21  C   UNL     1      45.010   4.688   9.213  0.00  0.00    +0.000 C 
ATOM     22  C   UNL     1      43.847   4.454  10.185  0.00  0.00    +0.000 C 
BRANCH  20  23
ATOM     23  C   UNL     1      46.178   3.833   7.251  0.00  0.00    +0.000 C 
BRANCH  23  24
ATOM     24  C   UNL     1      47.159   2.657   7.118  0.00  0.00    +0.000 C 
BRANCH  24  25
ATOM     25  C   UNL     1      47.386   2.238   5.673  0.00  0.00    +0.000 C 
BRANCH  25  26
ATOM     26  O   UNL     1      48.709   1.729   5.524  0.00  0.00    +0.000 OA
ATOM     27  H   UNL     1      49.259   2.443   5.163  0.00  0.00    +0.000 HD
ENDBRANCH  25  26
ENDBRANCH  24  25
ENDBRANCH  23  24
ENDBRANCH  20  23
ENDBRANCH  16  17
ENDBRANCH   3  16
TORSDOF 7
ENDMDL
MODEL 6
REMARK VINA RESULT:    -6.304      2.783      8.281
REMARK INTER + INTRA:          -9.470
REMARK INTER:                  -8.378
REMARK INTRA:                  -1.091
REMARK UNBOUND:                -0.770
REMARK  Name = 
REMARK  7 active torsions:
REMARK  status: ('A' for Active; 'I' for Inactive)
REMARK    1  A    between atoms: C_2  and  C_15
REMARK    2  A    between atoms: N_3  and  C_4
REMARK    3  A    between atoms: C_4  and  C_5
REMARK    4  A    between atoms: N_8  and  C_9
REMARK    5  A    between atoms: C_9  and  C_10
REMARK    6  A    between atoms: C_10  and  C_11
REMARK    7  A    between atoms: C_11  and  O_12
REMARK                            x       y       z     vdW  Elec       q    Type
REMARK                         _______ _______ _______ _____ _____    ______ ____
ROOT
ATOM      1  O   UNL     1      48.801   6.268  13.081  0.00  0.00    +0.000 OA
ATOM      2  C   UNL     1      47.708   6.069  13.626  0.00  0.00    +0.000 C 
ATOM      3  N   UNL     1      47.571   5.924  14.977  0.00  0.00    +0.000 N 
ATOM      4  H   UNL     1      46.701   5.552  15.345  0.00  0.00    +0.000 HD
ENDROOT
BRANCH   2   5
ATOM      5  C   UNL     1      46.470   6.025  12.854  0.00  0.00    +0.000 A 
ATOM      6  C   UNL     1      45.905   7.156  12.289  0.00  0.00    +0.000 A 
ATOM      7  S   UNL     1      44.460   6.822  11.431  0.00  0.00    +0.000 S 
ATOM      8  C   UNL     1      44.574   5.158  11.772  0.00  0.00    +0.000 A 
ATOM      9  N   UNL     1      43.649   4.271  11.318  0.00  0.00    +0.000 NA
ATOM     10  C   UNL     1      43.884   3.043  11.632  0.00  0.00    +0.000 A 
ATOM     11  N   UNL     1      44.962   2.612  12.366  0.00  0.00    +0.000 N 
ATOM     12  C   UNL     1      45.881   3.467  12.898  0.00  0.00    +0.000 A 
ATOM     13  O   UNL     1      46.758   3.057  13.663  0.00  0.00    +0.000 OA
ATOM     14  C   UNL     1      45.680   4.864  12.544  0.00  0.00    +0.000 A 
ATOM     15  H   UNL     1      45.074   1.643  12.618  0.00  0.00    +0.000 HD
ENDBRANCH   2   5
BRANCH   3  16
ATOM     16  C   UNL     1      48.704   5.909  15.874  0.00  0.00    +0.000 C 
BRANCH  16  17
ATOM     17  C   UNL     1      48.690   4.667  16.779  0.00  0.00    +0.000 C 
ATOM     18  C   UNL     1      47.318   4.425  17.421  0.00  0.00    +0.000 C 
ATOM     19  C   UNL     1      47.015   5.378  18.572  0.00  0.00    +0.000 C 
ATOM     20  N   UNL     1      48.071   5.350  19.596  0.00  0.00    +0.000 NA
ATOM     21  C   UNL     1      49.361   5.736  19.004  0.00  0.00    +0.000 C 
ATOM     22  C   UNL     1      49.755   4.772  17.877  0.00  0.00    +0.000 C 
BRANCH  20  23
ATOM     23  C   UNL     1      47.711   6.223  20.731  0.00  0.00    +0.000 C 
BRANCH  23  24
ATOM     24  C   UNL     1      48.381   7.606  20.666  0.00  0.00    +0.000 C 
BRANCH  24  25
ATOM     25  C   UNL     1      47.413   8.714  20.279  0.00  0.00    +0.000 C 
BRANCH  25  26
ATOM     26  O   UNL     1      47.437   8.900  18.867  0.00  0.00    +0.000 OA
ATOM     27  H   UNL     1      46.756   8.324  18.483  0.00  0.00    +0.000 HD
ENDBRANCH  25  26
ENDBRANCH  24  25
ENDBRANCH  23  24
ENDBRANCH  20  23
ENDBRANCH  16  17
ENDBRANCH   3  16
TORSDOF 7
ENDMDL
MODEL 7
REMARK VINA RESULT:    -6.235      3.078      8.069
REMARK INTER + INTRA:          -9.374
REMARK INTER:                  -8.527
REMARK INTRA:                  -0.846
REMARK UNBOUND:                -0.770
REMARK  Name = 
REMARK  7 active torsions:
REMARK  status: ('A' for Active; 'I' for Inactive)
REMARK    1  A    between atoms: C_2  and  C_15
REMARK    2  A    between atoms: N_3  and  C_4
REMARK    3  A    between atoms: C_4  and  C_5
REMARK    4  A    between atoms: N_8  and  C_9
REMARK    5  A    between atoms: C_9  and  C_10
REMARK    6  A    between atoms: C_10  and  C_11
REMARK    7  A    between atoms: C_11  and  O_12
REMARK                            x       y       z     vdW  Elec       q    Type
REMARK                         _______ _______ _______ _____ _____    ______ ____
ROOT
ATOM      1  O   UNL     1      47.218   3.261  13.771  0.00  0.00    +0.000 OA
ATOM      2  C   UNL     1      46.747   4.296  14.259  0.00  0.00    +0.000 C 
ATOM      3  N   UNL     1      46.743   4.543  15.602  0.00  0.00    +0.000 N 
ATOM      4  H   UNL     1      46.159   5.293  15.961  0.00  0.00    +0.000 HD
ENDROOT
BRANCH   2   5
ATOM      5  C   UNL     1      46.205   5.356  13.416  0.00  0.00    +0.000 A 
ATOM      6  C   UNL     1      46.931   6.488  13.085  0.00  0.00    +0.000 A 
ATOM      7  S   UNL     1      46.061   7.568  12.079  0.00  0.00    +0.000 S 
ATOM      8  C   UNL     1      44.709   6.534  12.040  0.00  0.00    +0.000 A 
ATOM      9  N   UNL     1      43.590   6.848  11.335  0.00  0.00    +0.000 NA
ATOM     10  C   UNL     1      42.662   5.954  11.377  0.00  0.00    +0.000 A 
ATOM     11  N   UNL     1      42.743   4.768  12.065  0.00  0.00    +0.000 N 
ATOM     12  C   UNL     1      43.815   4.436  12.838  0.00  0.00    +0.000 A 
ATOM     13  O   UNL     1      43.796   3.427  13.547  0.00  0.00    +0.000 OA
ATOM     14  C   UNL     1      44.907   5.397  12.797  0.00  0.00    +0.000 A 
ATOM     15  H   UNL     1      41.968   4.125  12.097  0.00  0.00    +0.000 HD
ENDBRANCH   2   5
BRANCH   3  16
ATOM     16  C   UNL     1      47.211   3.579  16.570  0.00  0.00    +0.000 C 
BRANCH  16  17
ATOM     17  C   UNL     1      47.645   4.257  17.879  0.00  0.00    +0.000 C 
ATOM     18  C   UNL     1      48.232   5.656  17.648  0.00  0.00    +0.000 C 
ATOM     19  C   UNL     1      49.648   5.630  17.086  0.00  0.00    +0.000 C 
ATOM     20  N   UNL     1      50.553   4.828  17.925  0.00  0.00    +0.000 NA
ATOM     21  C   UNL     1      50.066   3.443  18.016  0.00  0.00    +0.000 C 
ATOM     22  C   UNL     1      48.664   3.396  18.636  0.00  0.00    +0.000 C 
BRANCH  20  23
ATOM     23  C   UNL     1      51.931   4.886  17.398  0.00  0.00    +0.000 C 
BRANCH  23  24
ATOM     24  C   UNL     1      52.877   3.875  18.066  0.00  0.00    +0.000 C 
BRANCH  24  25
ATOM     25  C   UNL     1      53.381   4.343  19.422  0.00  0.00    +0.000 C 
BRANCH  25  26
ATOM     26  O   UNL     1      52.429   4.009  20.429  0.00  0.00    +0.000 OA
ATOM     27  H   UNL     1      51.555   4.287  20.111  0.00  0.00    +0.000 HD
ENDBRANCH  25  26
ENDBRANCH  24  25
ENDBRANCH  23  24
ENDBRANCH  20  23
ENDBRANCH  16  17
ENDBRANCH   3  16
TORSDOF 7
ENDMDL
MODEL 8
REMARK VINA RESULT:    -6.071      2.927      8.156
REMARK INTER + INTRA:          -9.147
REMARK INTER:                  -8.388
REMARK INTRA:                  -0.759
REMARK UNBOUND:                -0.770
REMARK  Name = 
REMARK  7 active torsions:
REMARK  status: ('A' for Active; 'I' for Inactive)
REMARK    1  A    between atoms: C_2  and  C_15
REMARK    2  A    between atoms: N_3  and  C_4
REMARK    3  A    between atoms: C_4  and  C_5
REMARK    4  A    between atoms: N_8  and  C_9
REMARK    5  A    between atoms: C_9  and  C_10
REMARK    6  A    between atoms: C_10  and  C_11
REMARK    7  A    between atoms: C_11  and  O_12
REMARK                            x       y       z     vdW  Elec       q    Type
REMARK                         _______ _______ _______ _____ _____    ______ ____
ROOT
ATOM      1  O   UNL     1      44.309   7.482  11.264  0.00  0.00    +0.000 OA
ATOM      2  C   UNL     1      44.909   6.541  11.798  0.00  0.00    +0.000 C 
ATOM      3  N   UNL     1      45.921   6.724  12.697  0.00  0.00    +0.000 N 
ATOM      4  H   UNL     1      46.514   5.935  12.935  0.00  0.00    +0.000 HD
ENDROOT
BRANCH   2   5
ATOM      5  C   UNL     1      44.535   5.155  11.537  0.00  0.00    +0.000 A 
ATOM      6  C   UNL     1      43.786   4.406  12.430  0.00  0.00    +0.000 A 
ATOM      7  S   UNL     1      43.482   2.813  11.874  0.00  0.00    +0.000 S 
ATOM      8  C   UNL     1      44.319   3.100  10.420  0.00  0.00    +0.000 A 
ATOM      9  N   UNL     1      44.436   2.142   9.462  0.00  0.00    +0.000 NA
ATOM     10  C   UNL     1      45.072   2.515   8.405  0.00  0.00    +0.000 A 
ATOM     11  N   UNL     1      45.611   3.763   8.211  0.00  0.00    +0.000 N 
ATOM     12  C   UNL     1      45.577   4.737   9.165  0.00  0.00    +0.000 A 
ATOM     13  O   UNL     1      46.187   5.798   9.008  0.00  0.00    +0.000 OA
ATOM     14  C   UNL     1      44.840   4.377  10.366  0.00  0.00    +0.000 A 
ATOM     15  H   UNL     1      46.135   3.987   7.380  0.00  0.00    +0.000 HD
ENDBRANCH   2   5
BRANCH   3  16
ATOM     16  C   UNL     1      46.431   8.033  13.034  0.00  0.00    +0.000 C 
BRANCH  16  17
ATOM     17  C   UNL     1      47.967   8.047  13.072  0.00  0.00    +0.000 C 
ATOM     18  C   UNL     1      48.553   6.731  13.598  0.00  0.00    +0.000 C 
ATOM     19  C   UNL     1      48.427   6.578  15.110  0.00  0.00    +0.000 C 
ATOM     20  N   UNL     1      49.015   7.722  15.825  0.00  0.00    +0.000 NA
ATOM     21  C   UNL     1      48.341   8.968  15.429  0.00  0.00    +0.000 C 
ATOM     22  C   UNL     1      48.487   9.213  13.922  0.00  0.00    +0.000 C 
BRANCH  20  23
ATOM     23  C   UNL     1      48.947   7.507  17.284  0.00  0.00    +0.000 C 
BRANCH  23  24
ATOM     24  C   UNL     1      48.627   6.053  17.667  0.00  0.00    +0.000 C 
BRANCH  24  25
ATOM     25  C   UNL     1      47.626   5.948  18.807  0.00  0.00    +0.000 C 
BRANCH  25  26
ATOM     26  O   UNL     1      46.497   5.188  18.386  0.00  0.00    +0.000 OA
ATOM     27  H   UNL     1      46.784   4.266  18.287  0.00  0.00    +0.000 HD
ENDBRANCH  25  26
ENDBRANCH  24  25
ENDBRANCH  23  24
ENDBRANCH  20  23
ENDBRANCH  16  17
ENDBRANCH   3  16
TORSDOF 7
ENDMDL
MODEL 9
REMARK VINA RESULT:    -5.962      4.059      8.361
REMARK INTER + INTRA:          -8.997
REMARK INTER:                  -8.077
REMARK INTRA:                  -0.920
REMARK UNBOUND:                -0.770
REMARK  Name = 
REMARK  7 active torsions:
REMARK  status: ('A' for Active; 'I' for Inactive)
REMARK    1  A    between atoms: C_2  and  C_15
REMARK    2  A    between atoms: N_3  and  C_4
REMARK    3  A    between atoms: C_4  and  C_5
REMARK    4  A    between atoms: N_8  and  C_9
REMARK    5  A    between atoms: C_9  and  C_10
REMARK    6  A    between atoms: C_10  and  C_11
REMARK    7  A    between atoms: C_11  and  O_12
REMARK                            x       y       z     vdW  Elec       q    Type
REMARK                         _______ _______ _______ _____ _____    ______ ____
ROOT
ATOM      1  O   UNL     1      44.319   7.533  11.397  0.00  0.00    +0.000 OA
ATOM      2  C   UNL     1      45.092   6.579  11.549  0.00  0.00    +0.000 C 
ATOM      3  N   UNL     1      46.395   6.737  11.928  0.00  0.00    +0.000 N 
ATOM      4  H   UNL     1      47.033   5.953  11.828  0.00  0.00    +0.000 HD
ENDROOT
BRANCH   2   5
ATOM      5  C   UNL     1      44.642   5.201  11.381  0.00  0.00    +0.000 A 
ATOM      6  C   UNL     1      43.869   4.550  12.328  0.00  0.00    +0.000 A 
ATOM      7  S   UNL     1      43.474   2.945  11.877  0.00  0.00    +0.000 S 
ATOM      8  C   UNL     1      44.302   3.095  10.398  0.00  0.00    +0.000 A 
ATOM      9  N   UNL     1      44.353   2.075   9.501  0.00  0.00    +0.000 NA
ATOM     10  C   UNL     1      44.992   2.347   8.415  0.00  0.00    +0.000 A 
ATOM     11  N   UNL     1      45.592   3.550   8.136  0.00  0.00    +0.000 N 
ATOM     12  C   UNL     1      45.624   4.582   9.027  0.00  0.00    +0.000 A 
ATOM     13  O   UNL     1      46.286   5.597   8.796  0.00  0.00    +0.000 OA
ATOM     14  C   UNL     1      44.887   4.337  10.257  0.00  0.00    +0.000 A 
ATOM     15  H   UNL     1      46.114   3.694   7.286  0.00  0.00    +0.000 HD
ENDBRANCH   2   5
BRANCH   3  16
ATOM     16  C   UNL     1      47.000   8.037  12.100  0.00  0.00    +0.000 C 
BRANCH  16  17
ATOM     17  C   UNL     1      48.465   8.043  11.636  0.00  0.00    +0.000 C 
ATOM     18  C   UNL     1      49.349   7.109  12.473  0.00  0.00    +0.000 C 
ATOM     19  C   UNL     1      49.688   7.674  13.848  0.00  0.00    +0.000 C 
ATOM     20  N   UNL     1      50.298   9.009  13.755  0.00  0.00    +0.000 NA
ATOM     21  C   UNL     1      49.378   9.942  13.086  0.00  0.00    +0.000 C 
ATOM     22  C   UNL     1      49.048   9.461  11.668  0.00  0.00    +0.000 C 
BRANCH  20  23
ATOM     23  C   UNL     1      50.685   9.494  15.095  0.00  0.00    +0.000 C 
BRANCH  23  24
ATOM     24  C   UNL     1      49.606  10.364  15.758  0.00  0.00    +0.000 C 
BRANCH  24  25
ATOM     25  C   UNL     1      48.746   9.590  16.746  0.00  0.00    +0.000 C 
BRANCH  25  26
ATOM     26  O   UNL     1      47.480   9.305  16.159  0.00  0.00    +0.000 OA
ATOM     27  H   UNL     1      47.632   8.713  15.404  0.00  0.00    +0.000 HD
ENDBRANCH  25  26
ENDBRANCH  24  25
ENDBRANCH  23  24
ENDBRANCH  20  23
ENDBRANCH  16  17
ENDBRANCH   3  16
TORSDOF 7
ENDMDL
