MODEL 1
REMARK VINA RESULT:    -9.125      0.000      0.000
REMARK INTER + INTRA:         -12.109
REMARK INTER:                 -11.259
REMARK INTRA:                  -0.850
REMARK UNBOUND:                -0.850
REMARK  Name = 
REMARK  4 active torsions:
REMARK  status: ('A' for Active; 'I' for Inactive)
REMARK    1  A    between atoms: C_2  and  C_4
REMARK    2  A    between atoms: N_8  and  C_9
REMARK    3  A    between atoms: C_9  and  C_10
REMARK    4  A    between atoms: C_15  and  C_16
REMARK                            x       y       z     vdW  Elec       q    Type
REMARK                         _______ _______ _______ _____ _____    ______ ____
ROOT
ATOM      1  C   UNL     1      43.483   4.881  10.995  0.00  0.00    +0.000 C 
ENDROOT
BRANCH   1   6
ATOM      2  C   UNL     1      46.369   2.265   7.641  0.00  0.00    +0.000 A 
ATOM      3  C   UNL     1      45.702   1.801   8.770  0.00  0.00    +0.000 A 
ATOM      4  C   UNL     1      44.857   2.666   9.464  0.00  0.00    +0.000 A 
ATOM      5  C   UNL     1      44.702   3.978   9.030  0.00  0.00    +0.000 A 
ATOM      6  N   UNL     1      43.813   4.868   9.587  0.00  0.00    +0.000 N 
ATOM      7  N   UNL     1      45.364   4.445   7.952  0.00  0.00    +0.000 NA
ATOM      8  C   UNL     1      46.187   3.591   7.287  0.00  0.00    +0.000 A 
ATOM      9  H   UNL     1      43.959   5.773   9.152  0.00  0.00    +0.000 HD
BRANCH   2  11
ATOM     10  N   UNL     1      48.282   2.009   6.172  0.00  0.00    +0.000 N 
ATOM     11  C   UNL     1      47.238   1.404   6.815  0.00  0.00    +0.000 C 
ATOM     12  O   UNL     1      47.059   0.197   6.742  0.00  0.00    +0.000 OA
ATOM     13  H   UNL     1      48.936   1.395   5.703  0.00  0.00    +0.000 HD
ATOM     14  H   UNL     1      48.611   2.931   6.419  0.00  0.00    +0.000 HD
ENDBRANCH   2  11
ENDBRANCH   1   6
BRANCH   1  15
ATOM     15  C   UNL     1      44.681   5.162  11.871  0.00  0.00    +0.000 A 
ATOM     16  C   UNL     1      44.977   4.337  12.960  0.00  0.00    +0.000 A 
ATOM     17  C   UNL     1      46.023   4.665  13.820  0.00  0.00    +0.000 A 
ATOM     18  C   UNL     1      46.776   5.818  13.593  0.00  0.00    +0.000 A 
ATOM     19  F   UNL     1      47.734   6.109  14.487  0.00  0.00    +0.000 F 
ATOM     20  C   UNL     1      46.538   6.667  12.499  0.00  0.00    +0.000 A 
ATOM     21  C   UNL     1      45.479   6.302  11.642  0.00  0.00    +0.000 A 
BRANCH  20  22
ATOM     22  C   UNL     1      47.333   7.893  12.258  0.00  0.00    +0.000 A 
ATOM     23  C   UNL     1      46.830   9.180  12.499  0.00  0.00    +0.000 A 
ATOM     24  N   UNL     1      47.507  10.342  12.295  0.00  0.00    +0.000 NA
ATOM     25  C   UNL     1      48.768  10.230  11.829  0.00  0.00    +0.000 A 
ATOM     26  C   UNL     1      49.369   9.016  11.562  0.00  0.00    +0.000 A 
ATOM     27  F   UNL     1      50.626   8.961  11.104  0.00  0.00    +0.000 F 
ATOM     28  C   UNL     1      48.650   7.845  11.771  0.00  0.00    +0.000 A 
ENDBRANCH  20  22
ENDBRANCH   1  15
TORSDOF 4
ENDMDL
MODEL 2
REMARK VINA RESULT:    -8.875      2.225      4.014
REMARK INTER + INTRA:         -11.800
REMARK INTER:                 -11.005
REMARK INTRA:                  -0.795
REMARK UNBOUND:                -0.850
REMARK  Name = 
REMARK  4 active torsions:
REMARK  status: ('A' for Active; 'I' for Inactive)
REMARK    1  A    between atoms: C_2  and  C_4
REMARK    2  A    between atoms: N_8  and  C_9
REMARK    3  A    between atoms: C_9  and  C_10
REMARK    4  A    between atoms: C_15  and  C_16
REMARK                            x       y       z     vdW  Elec       q    Type
REMARK                         _______ _______ _______ _____ _____    ______ ____
ROOT
ATOM      1  C   UNL     1      43.523   4.802  11.117  0.00  0.00    +0.000 C 
ENDROOT
BRANCH   1   6
ATOM      2  C   UNL     1      46.389   2.295   7.666  0.00  0.00    +0.000 A 
ATOM      3  C   UNL     1      45.732   1.795   8.785  0.00  0.00    +0.000 A 
ATOM      4  C   UNL     1      44.890   2.638   9.511  0.00  0.00    +0.000 A 
ATOM      5  C   UNL     1      44.729   3.962   9.117  0.00  0.00    +0.000 A 
ATOM      6  N   UNL     1      43.843   4.832   9.707  0.00  0.00    +0.000 N 
ATOM      7  N   UNL     1      45.383   4.462   8.049  0.00  0.00    +0.000 NA
ATOM      8  C   UNL     1      46.202   3.630   7.352  0.00  0.00    +0.000 A 
ATOM      9  H   UNL     1      43.983   5.749   9.298  0.00  0.00    +0.000 HD
BRANCH   2  11
ATOM     10  N   UNL     1      48.316   2.078   6.208  0.00  0.00    +0.000 N 
ATOM     11  C   UNL     1      47.254   1.460   6.808  0.00  0.00    +0.000 C 
ATOM     12  O   UNL     1      47.055   0.262   6.671  0.00  0.00    +0.000 OA
ATOM     13  H   UNL     1      48.966   1.477   5.717  0.00  0.00    +0.000 HD
ATOM     14  H   UNL     1      48.658   2.981   6.506  0.00  0.00    +0.000 HD
ENDBRANCH   2  11
ENDBRANCH   1   6
BRANCH   1  15
ATOM     15  C   UNL     1      44.587   5.454  11.969  0.00  0.00    +0.000 A 
ATOM     16  C   UNL     1      45.013   6.759  11.701  0.00  0.00    +0.000 A 
ATOM     17  C   UNL     1      46.065   7.311  12.428  0.00  0.00    +0.000 A 
ATOM     18  C   UNL     1      46.694   6.562  13.424  0.00  0.00    +0.000 A 
ATOM     19  F   UNL     1      47.736   7.129  14.051  0.00  0.00    +0.000 F 
ATOM     20  C   UNL     1      46.288   5.257  13.751  0.00  0.00    +0.000 A 
ATOM     21  C   UNL     1      45.213   4.730  13.003  0.00  0.00    +0.000 A 
BRANCH  20  22
ATOM     22  C   UNL     1      46.955   4.459  14.804  0.00  0.00    +0.000 A 
ATOM     23  C   UNL     1      47.506   3.192  14.559  0.00  0.00    +0.000 A 
ATOM     24  N   UNL     1      48.127   2.411  15.482  0.00  0.00    +0.000 NA
ATOM     25  C   UNL     1      48.218   2.911  16.731  0.00  0.00    +0.000 A 
ATOM     26  C   UNL     1      47.718   4.148  17.087  0.00  0.00    +0.000 A 
ATOM     27  F   UNL     1      47.839   4.600  18.341  0.00  0.00    +0.000 F 
ATOM     28  C   UNL     1      47.080   4.922  16.125  0.00  0.00    +0.000 A 
ENDBRANCH  20  22
ENDBRANCH   1  15
TORSDOF 4
ENDMDL
MODEL 3
REMARK VINA RESULT:    -7.690      1.891      2.480
REMARK INTER + INTRA:         -10.338
REMARK INTER:                  -9.723
REMARK INTRA:                  -0.615
REMARK UNBOUND:                -0.850
REMARK  Name = 
REMARK  4 active torsions:
REMARK  status: ('A' for Active; 'I' for Inactive)
REMARK    1  A    between atoms: C_2  and  C_4
REMARK    2  A    between atoms: N_8  and  C_9
REMARK    3  A    between atoms: C_9  and  C_10
REMARK    4  A    between atoms: C_15  and  C_16
REMARK                            x       y       z     vdW  Elec       q    Type
REMARK                         _______ _______ _______ _____ _____    ______ ____
ROOT
ATOM      1  C   UNL     1      43.303   4.698  10.992  0.00  0.00    +0.000 C 
ENDROOT
BRANCH   1   6
ATOM      2  C   UNL     1      46.424   2.691   7.437  0.00  0.00    +0.000 A 
ATOM      3  C   UNL     1      46.036   4.015   7.614  0.00  0.00    +0.000 A 
ATOM      4  C   UNL     1      45.286   4.360   8.737  0.00  0.00    +0.000 A 
ATOM      5  C   UNL     1      44.925   3.379   9.655  0.00  0.00    +0.000 A 
ATOM      6  N   UNL     1      44.279   3.642  10.840  0.00  0.00    +0.000 N 
ATOM      7  N   UNL     1      45.274   2.089   9.479  0.00  0.00    +0.000 NA
ATOM      8  C   UNL     1      46.003   1.767   8.378  0.00  0.00    +0.000 A 
ATOM      9  H   UNL     1      44.053   2.756  11.279  0.00  0.00    +0.000 HD
BRANCH   2  11
ATOM     10  N   UNL     1      47.305   3.060   5.207  0.00  0.00    +0.000 N 
ATOM     11  C   UNL     1      47.266   2.249   6.307  0.00  0.00    +0.000 C 
ATOM     12  O   UNL     1      47.931   1.225   6.367  0.00  0.00    +0.000 OA
ATOM     13  H   UNL     1      47.971   2.807   4.488  0.00  0.00    +0.000 HD
ATOM     14  H   UNL     1      46.991   4.020   5.228  0.00  0.00    +0.000 HD
ENDBRANCH   2  11
ENDBRANCH   1   6
BRANCH   1  15
ATOM     15  C   UNL     1      43.932   6.029  11.333  0.00  0.00    +0.000 A 
ATOM     16  C   UNL     1      43.249   7.224  11.089  0.00  0.00    +0.000 A 
ATOM     17  C   UNL     1      43.881   8.445  11.312  0.00  0.00    +0.000 A 
ATOM     18  C   UNL     1      45.195   8.476  11.780  0.00  0.00    +0.000 A 
ATOM     19  F   UNL     1      45.767   9.682  11.923  0.00  0.00    +0.000 F 
ATOM     20  C   UNL     1      45.917   7.305  12.067  0.00  0.00    +0.000 A 
ATOM     21  C   UNL     1      45.247   6.085  11.840  0.00  0.00    +0.000 A 
BRANCH  20  22
ATOM     22  C   UNL     1      47.313   7.334  12.561  0.00  0.00    +0.000 A 
ATOM     23  C   UNL     1      47.692   6.782  13.793  0.00  0.00    +0.000 A 
ATOM     24  N   UNL     1      48.953   6.779  14.302  0.00  0.00    +0.000 NA
ATOM     25  C   UNL     1      49.909   7.355  13.543  0.00  0.00    +0.000 A 
ATOM     26  C   UNL     1      49.654   7.924  12.312  0.00  0.00    +0.000 A 
ATOM     27  F   UNL     1      50.641   8.478  11.597  0.00  0.00    +0.000 F 
ATOM     28  C   UNL     1      48.354   7.920  11.820  0.00  0.00    +0.000 A 
ENDBRANCH  20  22
ENDBRANCH   1  15
TORSDOF 4
ENDMDL
MODEL 4
REMARK VINA RESULT:    -7.601      3.876      7.376
REMARK INTER + INTRA:         -10.228
REMARK INTER:                 -10.002
REMARK INTRA:                  -0.226
REMARK UNBOUND:                -0.850
REMARK  Name = 
REMARK  4 active torsions:
REMARK  status: ('A' for Active; 'I' for Inactive)
REMARK    1  A    between atoms: C_2  and  C_4
REMARK    2  A    between atoms: N_8  and  C_9
REMARK    3  A    between atoms: C_9  and  C_10
REMARK    4  A    between atoms: C_15  and  C_16
REMARK                            x       y       z     vdW  Elec       q    Type
REMARK                         _______ _______ _______ _____ _____    ______ ____
ROOT
ATOM      1  C   UNL     1      45.153   6.802  11.253  0.00  0.00    +0.000 C 
ENDROOT
BRANCH   1   6
ATOM      2  C   UNL     1      47.909   5.374  15.349  0.00  0.00    +0.000 A 
ATOM      3  C   UNL     1      46.817   4.741  14.766  0.00  0.00    +0.000 A 
ATOM      4  C   UNL     1      46.305   5.236  13.567  0.00  0.00    +0.000 A 
ATOM      5  C   UNL     1      46.879   6.357  12.980  0.00  0.00    +0.000 A 
ATOM      6  N   UNL     1      46.510   6.851  11.751  0.00  0.00    +0.000 N 
ATOM      7  N   UNL     1      47.922   6.993  13.552  0.00  0.00    +0.000 NA
ATOM      8  C   UNL     1      48.410   6.501  14.721  0.00  0.00    +0.000 A 
ATOM      9  H   UNL     1      47.014   7.717  11.595  0.00  0.00    +0.000 HD
BRANCH   2  11
ATOM     10  N   UNL     1      48.207   5.510  17.753  0.00  0.00    +0.000 N 
ATOM     11  C   UNL     1      48.550   4.885  16.586  0.00  0.00    +0.000 C 
ATOM     12  O   UNL     1      49.322   3.937  16.576  0.00  0.00    +0.000 OA
ATOM     13  H   UNL     1      48.562   5.095  18.605  0.00  0.00    +0.000 HD
ATOM     14  H   UNL     1      47.391   6.102  17.833  0.00  0.00    +0.000 HD
ENDBRANCH   2  11
ENDBRANCH   1   6
BRANCH   1  15
ATOM     15  C   UNL     1      44.747   5.417  10.804  0.00  0.00    +0.000 A 
ATOM     16  C   UNL     1      43.773   4.699  11.503  0.00  0.00    +0.000 A 
ATOM     17  C   UNL     1      43.482   3.385  11.141  0.00  0.00    +0.000 A 
ATOM     18  C   UNL     1      44.163   2.787  10.080  0.00  0.00    +0.000 A 
ATOM     19  F   UNL     1      43.877   1.503   9.814  0.00  0.00    +0.000 F 
ATOM     20  C   UNL     1      45.131   3.473   9.328  0.00  0.00    +0.000 A 
ATOM     21  C   UNL     1      45.397   4.804   9.713  0.00  0.00    +0.000 A 
BRANCH  20  22
ATOM     22  C   UNL     1      45.859   2.840   8.203  0.00  0.00    +0.000 A 
ATOM     23  C   UNL     1      46.319   1.516   8.250  0.00  0.00    +0.000 A 
ATOM     24  N   UNL     1      46.993   0.880   7.255  0.00  0.00    +0.000 NA
ATOM     25  C   UNL     1      47.226   1.594   6.134  0.00  0.00    +0.000 A 
ATOM     26  C   UNL     1      46.814   2.902   5.974  0.00  0.00    +0.000 A 
ATOM     27  F   UNL     1      47.067   3.564   4.837  0.00  0.00    +0.000 F 
ATOM     28  C   UNL     1      46.134   3.530   7.010  0.00  0.00    +0.000 A 
ENDBRANCH  20  22
ENDBRANCH   1  15
TORSDOF 4
ENDMDL
MODEL 5
REMARK VINA RESULT:    -7.431      3.787      7.022
REMARK INTER + INTRA:         -10.019
REMARK INTER:                  -9.535
REMARK INTRA:                  -0.485
REMARK UNBOUND:                -0.850
REMARK  Name = 
REMARK  4 active torsions:
REMARK  status: ('A' for Active; 'I' for Inactive)
REMARK    1  A    between atoms: C_2  and  C_4
REMARK    2  A    between atoms: N_8  and  C_9
REMARK    3  A    between atoms: C_9  and  C_10
REMARK    4  A    between atoms: C_15  and  C_16
REMARK                            x       y       z     vdW  Elec       q    Type
REMARK                         _______ _______ _______ _____ _____    ______ ____
ROOT
ATOM      1  C   UNL     1      44.612   6.372  12.543  0.00  0.00    +0.000 C 
ENDROOT
BRANCH   1   6
ATOM      2  C   UNL     1      49.470   8.030  12.294  0.00  0.00    +0.000 A 
ATOM      3  C   UNL     1      48.312   8.642  11.825  0.00  0.00    +0.000 A 
ATOM      4  C   UNL     1      47.074   8.074  12.126  0.00  0.00    +0.000 A 
ATOM      5  C   UNL     1      47.014   6.903  12.875  0.00  0.00    +0.000 A 
ATOM      6  N   UNL     1      45.840   6.333  13.307  0.00  0.00    +0.000 N 
ATOM      7  N   UNL     1      48.132   6.290  13.311  0.00  0.00    +0.000 NA
ATOM      8  C   UNL     1      49.332   6.853  13.009  0.00  0.00    +0.000 A 
ATOM      9  H   UNL     1      46.064   5.448  13.750  0.00  0.00    +0.000 HD
BRANCH   2  11
ATOM     10  N   UNL     1      51.832   8.100  12.845  0.00  0.00    +0.000 N 
ATOM     11  C   UNL     1      50.817   8.592  12.071  0.00  0.00    +0.000 C 
ATOM     12  O   UNL     1      51.026   9.430  11.205  0.00  0.00    +0.000 OA
ATOM     13  H   UNL     1      52.766   8.408  12.607  0.00  0.00    +0.000 HD
ATOM     14  H   UNL     1      51.748   7.240  13.368  0.00  0.00    +0.000 HD
ENDBRANCH   2  11
ENDBRANCH   1   6
BRANCH   1  15
ATOM     15  C   UNL     1      44.331   5.072  11.827  0.00  0.00    +0.000 A 
ATOM     16  C   UNL     1      43.453   4.132  12.376  0.00  0.00    +0.000 A 
ATOM     17  C   UNL     1      43.282   2.895  11.758  0.00  0.00    +0.000 A 
ATOM     18  C   UNL     1      43.985   2.595  10.590  0.00  0.00    +0.000 A 
ATOM     19  F   UNL     1      43.819   1.368  10.073  0.00  0.00    +0.000 F 
ATOM     20  C   UNL     1      44.859   3.513   9.983  0.00  0.00    +0.000 A 
ATOM     21  C   UNL     1      45.004   4.760  10.628  0.00  0.00    +0.000 A 
BRANCH  20  22
ATOM     22  C   UNL     1      45.610   3.196   8.747  0.00  0.00    +0.000 A 
ATOM     23  C   UNL     1      45.949   4.171   7.797  0.00  0.00    +0.000 A 
ATOM     24  N   UNL     1      46.634   3.943   6.644  0.00  0.00    +0.000 NA
ATOM     25  C   UNL     1      47.015   2.670   6.412  0.00  0.00    +0.000 A 
ATOM     26  C   UNL     1      46.743   1.631   7.279  0.00  0.00    +0.000 A 
ATOM     27  F   UNL     1      47.149   0.385   7.002  0.00  0.00    +0.000 F 
ATOM     28  C   UNL     1      46.034   1.890   8.446  0.00  0.00    +0.000 A 
ENDBRANCH  20  22
ENDBRANCH   1  15
TORSDOF 4
ENDMDL
MODEL 6
REMARK VINA RESULT:    -6.982      5.700      8.343
REMARK INTER + INTRA:          -9.465
REMARK INTER:                  -8.713
REMARK INTRA:                  -0.752
REMARK UNBOUND:                -0.850
REMARK  Name = 
REMARK  4 active torsions:
REMARK  status: ('A' for Active; 'I' for Inactive)
REMARK    1  A    between atoms: C_2  and  C_4
REMARK    2  A    between atoms: N_8  and  C_9
REMARK    3  A    between atoms: C_9  and  C_10
REMARK    4  A    between atoms: C_15  and  C_16
REMARK                            x       y       z     vdW  Elec       q    Type
REMARK                         _______ _______ _______ _____ _____    ______ ____
ROOT
ATOM      1  C   UNL     1      49.023   6.757  16.175  0.00  0.00    +0.000 C 
ENDROOT
BRANCH   1   6
ATOM      2  C   UNL     1      51.610   2.572  17.659  0.00  0.00    +0.000 A 
ATOM      3  C   UNL     1      52.064   3.880  17.526  0.00  0.00    +0.000 A 
ATOM      4  C   UNL     1      51.148   4.892  17.240  0.00  0.00    +0.000 A 
ATOM      5  C   UNL     1      49.803   4.581  17.079  0.00  0.00    +0.000 A 
ATOM      6  N   UNL     1      48.817   5.523  16.900  0.00  0.00    +0.000 N 
ATOM      7  N   UNL     1      49.357   3.313  17.179  0.00  0.00    +0.000 NA
ATOM      8  C   UNL     1      50.261   2.336  17.457  0.00  0.00    +0.000 A 
ATOM      9  H   UNL     1      47.945   5.037  16.720  0.00  0.00    +0.000 HD
BRANCH   2  11
ATOM     10  N   UNL     1      51.920   0.220  18.164  0.00  0.00    +0.000 N 
ATOM     11  C   UNL     1      52.500   1.449  18.016  0.00  0.00    +0.000 C 
ATOM     12  O   UNL     1      53.707   1.601  18.134  0.00  0.00    +0.000 OA
ATOM     13  H   UNL     1      52.551  -0.561  18.294  0.00  0.00    +0.000 HD
ATOM     14  H   UNL     1      50.994   0.011  17.818  0.00  0.00    +0.000 HD
ENDBRANCH   2  11
ENDBRANCH   1   6
BRANCH   1  15
ATOM     15  C   UNL     1      48.539   6.679  14.745  0.00  0.00    +0.000 A 
ATOM     16  C   UNL     1      49.174   7.411  13.737  0.00  0.00    +0.000 A 
ATOM     17  C   UNL     1      48.655   7.411  12.444  0.00  0.00    +0.000 A 
ATOM     18  C   UNL     1      47.503   6.679  12.155  0.00  0.00    +0.000 A 
ATOM     19  F   UNL     1      47.022   6.762  10.905  0.00  0.00    +0.000 F 
ATOM     20  C   UNL     1      46.841   5.906  13.124  0.00  0.00    +0.000 A 
ATOM     21  C   UNL     1      47.396   5.919  14.421  0.00  0.00    +0.000 A 
BRANCH  20  22
ATOM     22  C   UNL     1      45.616   5.131  12.821  0.00  0.00    +0.000 A 
ATOM     23  C   UNL     1      45.612   3.733  12.711  0.00  0.00    +0.000 A 
ATOM     24  N   UNL     1      44.523   2.967  12.433  0.00  0.00    +0.000 NA
ATOM     25  C   UNL     1      43.357   3.621  12.257  0.00  0.00    +0.000 A 
ATOM     26  C   UNL     1      43.240   4.993  12.347  0.00  0.00    +0.000 A 
ATOM     27  F   UNL     1      42.056   5.592  12.168  0.00  0.00    +0.000 F 
ATOM     28  C   UNL     1      44.371   5.752  12.624  0.00  0.00    +0.000 A 
ENDBRANCH  20  22
ENDBRANCH   1  15
TORSDOF 4
ENDMDL
MODEL 7
REMARK VINA RESULT:    -6.915      3.876      7.298
REMARK INTER + INTRA:          -9.382
REMARK INTER:                  -8.900
REMARK INTRA:                  -0.483
REMARK UNBOUND:                -0.850
REMARK  Name = 
REMARK  4 active torsions:
REMARK  status: ('A' for Active; 'I' for Inactive)
REMARK    1  A    between atoms: C_2  and  C_4
REMARK    2  A    between atoms: N_8  and  C_9
REMARK    3  A    between atoms: C_9  and  C_10
REMARK    4  A    between atoms: C_15  and  C_16
REMARK                            x       y       z     vdW  Elec       q    Type
REMARK                         _______ _______ _______ _____ _____    ______ ____
ROOT
ATOM      1  C   UNL     1      44.917   7.425  12.381  0.00  0.00    +0.000 C 
ENDROOT
BRANCH   1   6
ATOM      2  C   UNL     1      49.799   7.940  13.901  0.00  0.00    +0.000 A 
ATOM      3  C   UNL     1      48.840   7.029  14.332  0.00  0.00    +0.000 A 
ATOM      4  C   UNL     1      47.609   6.978  13.679  0.00  0.00    +0.000 A 
ATOM      5  C   UNL     1      47.351   7.841  12.620  0.00  0.00    +0.000 A 
ATOM      6  N   UNL     1      46.212   7.791  11.852  0.00  0.00    +0.000 N 
ATOM      7  N   UNL     1      48.265   8.745  12.211  0.00  0.00    +0.000 NA
ATOM      8  C   UNL     1      49.460   8.786  12.859  0.00  0.00    +0.000 A 
ATOM      9  H   UNL     1      46.228   8.577  11.211  0.00  0.00    +0.000 HD
BRANCH   2  11
ATOM     10  N   UNL     1      51.495   7.045  15.386  0.00  0.00    +0.000 N 
ATOM     11  C   UNL     1      51.147   8.024  14.497  0.00  0.00    +0.000 C 
ATOM     12  O   UNL     1      51.934   8.904  14.180  0.00  0.00    +0.000 OA
ATOM     13  H   UNL     1      52.457   7.046  15.701  0.00  0.00    +0.000 HD
ATOM     14  H   UNL     1      50.985   6.176  15.465  0.00  0.00    +0.000 HD
ENDBRANCH   2  11
ENDBRANCH   1   6
BRANCH   1  15
ATOM     15  C   UNL     1      44.461   6.062  11.913  0.00  0.00    +0.000 A 
ATOM     16  C   UNL     1      43.513   5.339  12.643  0.00  0.00    +0.000 A 
ATOM     17  C   UNL     1      43.178   4.043  12.257  0.00  0.00    +0.000 A 
ATOM     18  C   UNL     1      43.787   3.467  11.141  0.00  0.00    +0.000 A 
ATOM     19  F   UNL     1      43.463   2.197  10.852  0.00  0.00    +0.000 F 
ATOM     20  C   UNL     1      44.726   4.160  10.358  0.00  0.00    +0.000 A 
ATOM     21  C   UNL     1      45.037   5.473  10.769  0.00  0.00    +0.000 A 
BRANCH  20  22
ATOM     22  C   UNL     1      45.378   3.551   9.175  0.00  0.00    +0.000 A 
ATOM     23  C   UNL     1      45.797   4.306   8.070  0.00  0.00    +0.000 A 
ATOM     24  N   UNL     1      46.397   3.806   6.957  0.00  0.00    +0.000 NA
ATOM     25  C   UNL     1      46.604   2.473   6.931  0.00  0.00    +0.000 A 
ATOM     26  C   UNL     1      46.239   1.633   7.964  0.00  0.00    +0.000 A 
ATOM     27  F   UNL     1      46.472   0.317   7.889  0.00  0.00    +0.000 F 
ATOM     28  C   UNL     1      45.620   2.169   9.086  0.00  0.00    +0.000 A 
ENDBRANCH  20  22
ENDBRANCH   1  15
TORSDOF 4
ENDMDL
MODEL 8
REMARK VINA RESULT:    -6.834      5.321      8.225
REMARK INTER + INTRA:          -9.283
REMARK INTER:                  -8.714
REMARK INTRA:                  -0.569
REMARK UNBOUND:                -0.850
REMARK  Name = 
REMARK  4 active torsions:
REMARK  status: ('A' for Active; 'I' for Inactive)
REMARK    1  A    between atoms: C_2  and  C_4
REMARK    2  A    between atoms: N_8  and  C_9
REMARK    3  A    between atoms: C_9  and  C_10
REMARK    4  A    between atoms: C_15  and  C_16
REMARK                            x       y       z     vdW  Elec       q    Type
REMARK                         _______ _______ _______ _____ _____    ______ ____
ROOT
ATOM      1  C   UNL     1      48.399   7.230  14.125  0.00  0.00    +0.000 C 
ENDROOT
BRANCH   1   6
ATOM      2  C   UNL     1      50.884   4.674  17.826  0.00  0.00    +0.000 A 
ATOM      3  C   UNL     1      51.247   5.852  17.181  0.00  0.00    +0.000 A 
ATOM      4  C   UNL     1      50.348   6.448  16.297  0.00  0.00    +0.000 A 
ATOM      5  C   UNL     1      49.112   5.855  16.063  0.00  0.00    +0.000 A 
ATOM      6  N   UNL     1      48.125   6.424  15.294  0.00  0.00    +0.000 N 
ATOM      7  N   UNL     1      48.762   4.700  16.664  0.00  0.00    +0.000 NA
ATOM      8  C   UNL     1      49.649   4.128  17.522  0.00  0.00    +0.000 A 
ATOM      9  H   UNL     1      47.367   5.755  15.209  0.00  0.00    +0.000 HD
BRANCH   2  11
ATOM     10  N   UNL     1      52.249   2.778  18.481  0.00  0.00    +0.000 N 
ATOM     11  C   UNL     1      51.750   4.006  18.818  0.00  0.00    +0.000 C 
ATOM     12  O   UNL     1      52.044   4.544  19.876  0.00  0.00    +0.000 OA
ATOM     13  H   UNL     1      52.930   2.381  19.116  0.00  0.00    +0.000 HD
ATOM     14  H   UNL     1      52.247   2.433  17.531  0.00  0.00    +0.000 HD
ENDBRANCH   2  11
ENDBRANCH   1   6
BRANCH   1  15
ATOM     15  C   UNL     1      47.198   7.365  13.217  0.00  0.00    +0.000 A 
ATOM     16  C   UNL     1      46.411   8.520  13.243  0.00  0.00    +0.000 A 
ATOM     17  C   UNL     1      45.250   8.589  12.476  0.00  0.00    +0.000 A 
ATOM     18  C   UNL     1      44.873   7.506  11.682  0.00  0.00    +0.000 A 
ATOM     19  F   UNL     1      43.717   7.612  11.009  0.00  0.00    +0.000 F 
ATOM     20  C   UNL     1      45.641   6.332  11.599  0.00  0.00    +0.000 A 
ATOM     21  C   UNL     1      46.816   6.296  12.379  0.00  0.00    +0.000 A 
BRANCH  20  22
ATOM     22  C   UNL     1      45.242   5.179  10.760  0.00  0.00    +0.000 A 
ATOM     23  C   UNL     1      44.472   4.115  11.254  0.00  0.00    +0.000 A 
ATOM     24  N   UNL     1      44.076   3.029  10.537  0.00  0.00    +0.000 NA
ATOM     25  C   UNL     1      44.459   2.990   9.243  0.00  0.00    +0.000 A 
ATOM     26  C   UNL     1      45.212   3.983   8.649  0.00  0.00    +0.000 A 
ATOM     27  F   UNL     1      45.561   3.896   7.359  0.00  0.00    +0.000 F 
ATOM     28  C   UNL     1      45.610   5.077   9.408  0.00  0.00    +0.000 A 
ENDBRANCH  20  22
ENDBRANCH   1  15
TORSDOF 4
ENDMDL
MODEL 9
REMARK VINA RESULT:    -6.282      3.113      5.328
REMARK INTER + INTRA:          -8.601
REMARK INTER:                  -7.763
REMARK INTRA:                  -0.838
REMARK UNBOUND:                -0.850
REMARK  Name = 
REMARK  4 active torsions:
REMARK  status: ('A' for Active; 'I' for Inactive)
REMARK    1  A    between atoms: C_2  and  C_4
REMARK    2  A    between atoms: N_8  and  C_9
REMARK    3  A    between atoms: C_9  and  C_10
REMARK    4  A    between atoms: C_15  and  C_16
REMARK                            x       y       z     vdW  Elec       q    Type
REMARK                         _______ _______ _______ _____ _____    ______ ____
ROOT
ATOM      1  C   UNL     1      46.665   8.512  13.502  0.00  0.00    +0.000 C 
ENDROOT
BRANCH   1   6
ATOM      2  C   UNL     1      44.841   4.110  11.577  0.00  0.00    +0.000 A 
ATOM      3  C   UNL     1      44.937   5.357  10.969  0.00  0.00    +0.000 A 
ATOM      4  C   UNL     1      45.598   6.389  11.635  0.00  0.00    +0.000 A 
ATOM      5  C   UNL     1      46.138   6.164  12.897  0.00  0.00    +0.000 A 
ATOM      6  N   UNL     1      46.895   7.086  13.579  0.00  0.00    +0.000 N 
ATOM      7  N   UNL     1      46.028   4.966  13.505  0.00  0.00    +0.000 NA
ATOM      8  C   UNL     1      45.379   3.969  12.845  0.00  0.00    +0.000 A 
ATOM      9  H   UNL     1      47.090   6.713  14.502  0.00  0.00    +0.000 HD
BRANCH   2  11
ATOM     10  N   UNL     1      44.928   2.320   9.942  0.00  0.00    +0.000 N 
ATOM     11  C   UNL     1      44.209   2.947  10.922  0.00  0.00    +0.000 C 
ATOM     12  O   UNL     1      43.111   2.537  11.267  0.00  0.00    +0.000 OA
ATOM     13  H   UNL     1      44.537   1.460   9.580  0.00  0.00    +0.000 HD
ATOM     14  H   UNL     1      45.921   2.462   9.822  0.00  0.00    +0.000 HD
ENDBRANCH   2  11
ENDBRANCH   1   6
BRANCH   1  15
ATOM     15  C   UNL     1      47.691   9.221  12.649  0.00  0.00    +0.000 A 
ATOM     16  C   UNL     1      47.364  10.402  11.976  0.00  0.00    +0.000 A 
ATOM     17  C   UNL     1      48.286  10.990  11.112  0.00  0.00    +0.000 A 
ATOM     18  C   UNL     1      49.536  10.400  10.919  0.00  0.00    +0.000 A 
ATOM     19  F   UNL     1      50.358  10.983  10.033  0.00  0.00    +0.000 F 
ATOM     20  C   UNL     1      49.925   9.229  11.590  0.00  0.00    +0.000 A 
ATOM     21  C   UNL     1      48.973   8.663  12.466  0.00  0.00    +0.000 A 
BRANCH  20  22
ATOM     22  C   UNL     1      51.249   8.598  11.385  0.00  0.00    +0.000 A 
ATOM     23  C   UNL     1      52.380   8.951  12.136  0.00  0.00    +0.000 A 
ATOM     24  N   UNL     1      53.620   8.412  11.993  0.00  0.00    +0.000 NA
ATOM     25  C   UNL     1      53.757   7.456  11.051  0.00  0.00    +0.000 A 
ATOM     26  C   UNL     1      52.713   7.025  10.258  0.00  0.00    +0.000 A 
ATOM     27  F   UNL     1      52.902   6.068   9.340  0.00  0.00    +0.000 F 
ATOM     28  C   UNL     1      51.457   7.599  10.419  0.00  0.00    +0.000 A 
ENDBRANCH  20  22
ENDBRANCH   1  15
TORSDOF 4
ENDMDL
