MODEL 1
REMARK VINA RESULT:    -7.900      0.000      0.000
REMARK INTER + INTRA:         -11.023
REMARK INTER:                 -10.209
REMARK INTRA:                  -0.814
REMARK UNBOUND:                -0.814
REMARK  Name = 
REMARK  6 active torsions:
REMARK  status: ('A' for Active; 'I' for Inactive)
REMARK    1  A    between atoms: C_1  and  C_2
REMARK    2  A    between atoms: C_2  and  C_3
REMARK    3  A    between atoms: C_2  and  C_14
REMARK    4  A    between atoms: C_3  and  N_4
REMARK    5  A    between atoms: C_8  and  C_9
REMARK    6  A    between atoms: C_18  and  C_19
REMARK                            x       y       z     vdW  Elec       q    Type
REMARK                         _______ _______ _______ _____ _____    ______ ____
ROOT
ATOM      1  C   UNL     1      43.562   4.760  10.556  0.00  0.00    +0.000 C 
ENDROOT
BRANCH   1   2
ATOM      2  N   UNL     1      43.896   3.352  10.371  0.00  0.00    +0.000 N 
ATOM      3  C   UNL     1      44.821   3.122   9.340  0.00  0.00    +0.000 A 
ATOM      4  C   UNL     1      45.231   1.812   9.049  0.00  0.00    +0.000 A 
ATOM      5  N   UNL     1      46.124   1.487   8.074  0.00  0.00    +0.000 NA
ATOM      6  C   UNL     1      46.614   2.556   7.391  0.00  0.00    +0.000 A 
ATOM      7  C   UNL     1      46.233   3.856   7.673  0.00  0.00    +0.000 A 
ATOM      8  N   UNL     1      45.340   4.160   8.650  0.00  0.00    +0.000 NA
ATOM      9  H   UNL     1      43.061   2.799  10.201  0.00  0.00    +0.000 HD
BRANCH   6  10
ATOM     10  C   UNL     1      47.595   2.304   6.304  0.00  0.00    +0.000 C 
ATOM     11  N   UNL     1      47.546   3.163   5.240  0.00  0.00    +0.000 N 
ATOM     12  O   UNL     1      48.403   1.385   6.351  0.00  0.00    +0.000 OA
ATOM     13  H   UNL     1      46.863   3.913   5.220  0.00  0.00    +0.000 HD
ATOM     14  H   UNL     1      48.185   3.035   4.470  0.00  0.00    +0.000 HD
ENDBRANCH   6  10
ENDBRANCH   1   2
BRANCH   1  16
ATOM     15  C   UNL     1      42.601   5.487  12.832  0.00  0.00    +0.000 C 
ATOM     16  C   UNL     1      43.776   5.073  12.005  0.00  0.00    +0.000 C 
BRANCH  16  17
ATOM     17  C   UNL     1      45.136   5.325  12.495  0.00  0.00    +0.000 A 
ATOM     18  C   UNL     1      45.971   6.216  11.811  0.00  0.00    +0.000 A 
ATOM     19  C   UNL     1      47.268   6.458  12.256  0.00  0.00    +0.000 A 
ATOM     20  C   UNL     1      47.737   5.833  13.409  0.00  0.00    +0.000 A 
ATOM     21  C   UNL     1      46.912   4.955  14.128  0.00  0.00    +0.000 A 
ATOM     22  C   UNL     1      45.616   4.691  13.647  0.00  0.00    +0.000 A 
BRANCH  21  23
ATOM     23  C   UNL     1      47.386   4.317  15.411  0.00  0.00    +0.000 C 
ATOM     24  F   UNL     1      48.442   4.963  15.981  0.00  0.00    +0.000 F 
ATOM     25  F   UNL     1      46.413   4.286  16.364  0.00  0.00    +0.000 F 
ATOM     26  F   UNL     1      47.786   3.028  15.240  0.00  0.00    +0.000 F 
ENDBRANCH  21  23
ENDBRANCH  16  17
ENDBRANCH   1  16
TORSDOF 5
ENDMDL
MODEL 2
REMARK VINA RESULT:    -7.600      2.020      2.597
REMARK INTER + INTRA:         -10.635
REMARK INTER:                  -9.860
REMARK INTRA:                  -0.775
REMARK UNBOUND:                -0.814
REMARK  Name = 
REMARK  6 active torsions:
REMARK  status: ('A' for Active; 'I' for Inactive)
REMARK    1  A    between atoms: C_1  and  C_2
REMARK    2  A    between atoms: C_2  and  C_3
REMARK    3  A    between atoms: C_2  and  C_14
REMARK    4  A    between atoms: C_3  and  N_4
REMARK    5  A    between atoms: C_8  and  C_9
REMARK    6  A    between atoms: C_18  and  C_19
REMARK                            x       y       z     vdW  Elec       q    Type
REMARK                         _______ _______ _______ _____ _____    ______ ____
ROOT
ATOM      1  C   UNL     1      43.557   5.131  10.440  0.00  0.00    +0.000 C 
ENDROOT
BRANCH   1   2
ATOM      2  N   UNL     1      43.852   3.705  10.344  0.00  0.00    +0.000 N 
ATOM      3  C   UNL     1      44.793   3.389   9.351  0.00  0.00    +0.000 A 
ATOM      4  C   UNL     1      45.169   2.053   9.146  0.00  0.00    +0.000 A 
ATOM      5  N   UNL     1      46.073   1.646   8.213  0.00  0.00    +0.000 NA
ATOM      6  C   UNL     1      46.612   2.660   7.483  0.00  0.00    +0.000 A 
ATOM      7  C   UNL     1      46.265   3.984   7.681  0.00  0.00    +0.000 A 
ATOM      8  N   UNL     1      45.359   4.370   8.617  0.00  0.00    +0.000 NA
ATOM      9  H   UNL     1      43.004   3.168  10.185  0.00  0.00    +0.000 HD
BRANCH   6  10
ATOM     10  C   UNL     1      47.610   2.317   6.437  0.00  0.00    +0.000 C 
ATOM     11  N   UNL     1      47.588   3.092   5.309  0.00  0.00    +0.000 N 
ATOM     12  O   UNL     1      48.408   1.397   6.569  0.00  0.00    +0.000 OA
ATOM     13  H   UNL     1      46.913   3.844   5.220  0.00  0.00    +0.000 HD
ATOM     14  H   UNL     1      48.239   2.900   4.563  0.00  0.00    +0.000 HD
ENDBRANCH   6  10
ENDBRANCH   1   2
BRANCH   1  16
ATOM     15  C   UNL     1      43.298   5.134  13.003  0.00  0.00    +0.000 C 
ATOM     16  C   UNL     1      44.038   5.586  11.784  0.00  0.00    +0.000 C 
BRANCH  16  17
ATOM     17  C   UNL     1      44.960   6.724  11.872  0.00  0.00    +0.000 A 
ATOM     18  C   UNL     1      44.460   8.031  11.865  0.00  0.00    +0.000 A 
ATOM     19  C   UNL     1      45.322   9.122  11.936  0.00  0.00    +0.000 A 
ATOM     20  C   UNL     1      46.696   8.918  12.044  0.00  0.00    +0.000 A 
ATOM     21  C   UNL     1      47.221   7.619  12.079  0.00  0.00    +0.000 A 
ATOM     22  C   UNL     1      46.343   6.525  11.969  0.00  0.00    +0.000 A 
BRANCH  21  23
ATOM     23  C   UNL     1      48.702   7.383  12.255  0.00  0.00    +0.000 C 
ATOM     24  F   UNL     1      49.280   8.214  13.167  0.00  0.00    +0.000 F 
ATOM     25  F   UNL     1      48.978   6.118  12.682  0.00  0.00    +0.000 F 
ATOM     26  F   UNL     1      49.402   7.550  11.101  0.00  0.00    +0.000 F 
ENDBRANCH  21  23
ENDBRANCH  16  17
ENDBRANCH   1  16
TORSDOF 5
ENDMDL
MODEL 3
REMARK VINA RESULT:    -7.582      2.139      2.722
REMARK INTER + INTRA:         -10.612
REMARK INTER:                  -9.880
REMARK INTRA:                  -0.732
REMARK UNBOUND:                -0.814
REMARK  Name = 
REMARK  6 active torsions:
REMARK  status: ('A' for Active; 'I' for Inactive)
REMARK    1  A    between atoms: C_1  and  C_2
REMARK    2  A    between atoms: C_2  and  C_3
REMARK    3  A    between atoms: C_2  and  C_14
REMARK    4  A    between atoms: C_3  and  N_4
REMARK    5  A    between atoms: C_8  and  C_9
REMARK    6  A    between atoms: C_18  and  C_19
REMARK                            x       y       z     vdW  Elec       q    Type
REMARK                         _______ _______ _______ _____ _____    ______ ____
ROOT
ATOM      1  C   UNL     1      43.741   4.872  10.564  0.00  0.00    +0.000 C 
ENDROOT
BRANCH   1   2
ATOM      2  N   UNL     1      44.014   3.453  10.358  0.00  0.00    +0.000 N 
ATOM      3  C   UNL     1      44.909   3.197   9.308  0.00  0.00    +0.000 A 
ATOM      4  C   UNL     1      45.260   1.875   8.996  0.00  0.00    +0.000 A 
ATOM      5  N   UNL     1      46.121   1.525   8.001  0.00  0.00    +0.000 NA
ATOM      6  C   UNL     1      46.641   2.581   7.320  0.00  0.00    +0.000 A 
ATOM      7  C   UNL     1      46.319   3.892   7.622  0.00  0.00    +0.000 A 
ATOM      8  N   UNL     1      45.457   4.221   8.619  0.00  0.00    +0.000 NA
ATOM      9  H   UNL     1      43.154   2.937  10.198  0.00  0.00    +0.000 HD
BRANCH   6  10
ATOM     10  C   UNL     1      47.592   2.302   6.211  0.00  0.00    +0.000 C 
ATOM     11  N   UNL     1      47.548   3.166   5.151  0.00  0.00    +0.000 N 
ATOM     12  O   UNL     1      48.370   1.357   6.239  0.00  0.00    +0.000 OA
ATOM     13  H   UNL     1      46.889   3.937   5.148  0.00  0.00    +0.000 HD
ATOM     14  H   UNL     1      48.166   3.020   4.367  0.00  0.00    +0.000 HD
ENDBRANCH   6  10
ENDBRANCH   1   2
BRANCH   1  16
ATOM     15  C   UNL     1      42.706   5.394  12.864  0.00  0.00    +0.000 C 
ATOM     16  C   UNL     1      43.920   5.142  12.027  0.00  0.00    +0.000 C 
BRANCH  16  17
ATOM     17  C   UNL     1      45.245   5.516  12.534  0.00  0.00    +0.000 A 
ATOM     18  C   UNL     1      45.942   4.646  13.378  0.00  0.00    +0.000 A 
ATOM     19  C   UNL     1      47.196   4.991  13.877  0.00  0.00    +0.000 A 
ATOM     20  C   UNL     1      47.781   6.202  13.513  0.00  0.00    +0.000 A 
ATOM     21  C   UNL     1      47.115   7.081  12.648  0.00  0.00    +0.000 A 
ATOM     22  C   UNL     1      45.833   6.737  12.180  0.00  0.00    +0.000 A 
BRANCH  21  23
ATOM     23  C   UNL     1      47.762   8.368  12.198  0.00  0.00    +0.000 C 
ATOM     24  F   UNL     1      48.679   8.198  11.205  0.00  0.00    +0.000 F 
ATOM     25  F   UNL     1      46.855   9.263  11.714  0.00  0.00    +0.000 F 
ATOM     26  F   UNL     1      48.418   9.007  13.205  0.00  0.00    +0.000 F 
ENDBRANCH  21  23
ENDBRANCH  16  17
ENDBRANCH   1  16
TORSDOF 5
ENDMDL
MODEL 4
REMARK VINA RESULT:    -7.501      4.659      6.767
REMARK INTER + INTRA:         -10.507
REMARK INTER:                  -9.723
REMARK INTRA:                  -0.783
REMARK UNBOUND:                -0.814
REMARK  Name = 
REMARK  6 active torsions:
REMARK  status: ('A' for Active; 'I' for Inactive)
REMARK    1  A    between atoms: C_1  and  C_2
REMARK    2  A    between atoms: C_2  and  C_3
REMARK    3  A    between atoms: C_2  and  C_14
REMARK    4  A    between atoms: C_3  and  N_4
REMARK    5  A    between atoms: C_8  and  C_9
REMARK    6  A    between atoms: C_18  and  C_19
REMARK                            x       y       z     vdW  Elec       q    Type
REMARK                         _______ _______ _______ _____ _____    ______ ____
ROOT
ATOM      1  C   UNL     1      44.033   4.588  11.867  0.00  0.00    +0.000 C 
ENDROOT
BRANCH   1   2
ATOM      2  N   UNL     1      44.774   4.167  13.051  0.00  0.00    +0.000 N 
ATOM      3  C   UNL     1      45.923   4.934  13.300  0.00  0.00    +0.000 A 
ATOM      4  C   UNL     1      46.734   4.637  14.407  0.00  0.00    +0.000 A 
ATOM      5  N   UNL     1      47.863   5.324  14.734  0.00  0.00    +0.000 NA
ATOM      6  C   UNL     1      48.150   6.355  13.895  0.00  0.00    +0.000 A 
ATOM      7  C   UNL     1      47.354   6.672  12.808  0.00  0.00    +0.000 A 
ATOM      8  N   UNL     1      46.231   5.975  12.498  0.00  0.00    +0.000 NA
ATOM      9  H   UNL     1      45.033   3.186  12.988  0.00  0.00    +0.000 HD
BRANCH   6  10
ATOM     10  C   UNL     1      49.366   7.165  14.168  0.00  0.00    +0.000 C 
ATOM     11  N   UNL     1      50.102   7.530  13.074  0.00  0.00    +0.000 N 
ATOM     12  O   UNL     1      49.695   7.491  15.302  0.00  0.00    +0.000 OA
ATOM     13  H   UNL     1      49.813   7.242  12.145  0.00  0.00    +0.000 HD
ATOM     14  H   UNL     1      50.942   8.074  13.201  0.00  0.00    +0.000 HD
ENDBRANCH   6  10
ENDBRANCH   1   2
BRANCH   1  16
ATOM     15  C   UNL     1      43.458   2.125  11.379  0.00  0.00    +0.000 C 
ATOM     16  C   UNL     1      44.031   3.428  10.919  0.00  0.00    +0.000 C 
BRANCH  16  17
ATOM     17  C   UNL     1      44.892   3.467   9.732  0.00  0.00    +0.000 A 
ATOM     18  C   UNL     1      45.262   4.696   9.176  0.00  0.00    +0.000 A 
ATOM     19  C   UNL     1      46.070   4.749   8.042  0.00  0.00    +0.000 A 
ATOM     20  C   UNL     1      46.542   3.572   7.468  0.00  0.00    +0.000 A 
ATOM     21  C   UNL     1      46.207   2.327   8.020  0.00  0.00    +0.000 A 
ATOM     22  C   UNL     1      45.360   2.285   9.143  0.00  0.00    +0.000 A 
BRANCH  21  23
ATOM     23  C   UNL     1      46.759   1.046   7.443  0.00  0.00    +0.000 C 
ATOM     24  F   UNL     1      48.101   0.899   7.630  0.00  0.00    +0.000 F 
ATOM     25  F   UNL     1      46.186  -0.060   7.995  0.00  0.00    +0.000 F 
ATOM     26  F   UNL     1      46.556   0.944   6.101  0.00  0.00    +0.000 F 
ENDBRANCH  21  23
ENDBRANCH  16  17
ENDBRANCH   1  16
TORSDOF 5
ENDMDL
MODEL 5
REMARK VINA RESULT:    -6.874      5.057      7.495
REMARK INTER + INTRA:          -9.697
REMARK INTER:                  -9.106
REMARK INTRA:                  -0.591
REMARK UNBOUND:                -0.814
REMARK  Name = 
REMARK  6 active torsions:
REMARK  status: ('A' for Active; 'I' for Inactive)
REMARK    1  A    between atoms: C_1  and  C_2
REMARK    2  A    between atoms: C_2  and  C_3
REMARK    3  A    between atoms: C_2  and  C_14
REMARK    4  A    between atoms: C_3  and  N_4
REMARK    5  A    between atoms: C_8  and  C_9
REMARK    6  A    between atoms: C_18  and  C_19
REMARK                            x       y       z     vdW  Elec       q    Type
REMARK                         _______ _______ _______ _____ _____    ______ ____
ROOT
ATOM      1  C   UNL     1      45.601   5.857  11.542  0.00  0.00    +0.000 C 
ENDROOT
BRANCH   1   2
ATOM      2  N   UNL     1      45.776   4.968  12.686  0.00  0.00    +0.000 N 
ATOM      3  C   UNL     1      46.776   5.387  13.579  0.00  0.00    +0.000 A 
ATOM      4  C   UNL     1      47.054   4.624  14.723  0.00  0.00    +0.000 A 
ATOM      5  N   UNL     1      47.998   4.948  15.649  0.00  0.00    +0.000 NA
ATOM      6  C   UNL     1      48.664   6.104  15.382  0.00  0.00    +0.000 A 
ATOM      7  C   UNL     1      48.394   6.876  14.266  0.00  0.00    +0.000 A 
ATOM      8  N   UNL     1      47.447   6.536  13.355  0.00  0.00    +0.000 NA
ATOM      9  H   UNL     1      45.975   4.019  12.382  0.00  0.00    +0.000 HD
BRANCH   6  10
ATOM     10  C   UNL     1      49.718   6.542  16.334  0.00  0.00    +0.000 C 
ATOM     11  N   UNL     1      49.456   7.688  17.034  0.00  0.00    +0.000 N 
ATOM     12  O   UNL     1      50.761   5.918  16.488  0.00  0.00    +0.000 OA
ATOM     13  H   UNL     1      48.588   8.191  16.884  0.00  0.00    +0.000 HD
ATOM     14  H   UNL     1      50.140   8.036  17.689  0.00  0.00    +0.000 HD
ENDBRANCH   6  10
ENDBRANCH   1   2
BRANCH   1  16
ATOM     15  C   UNL     1      43.086   5.674  11.021  0.00  0.00    +0.000 C 
ATOM     16  C   UNL     1      44.496   5.283  10.710  0.00  0.00    +0.000 C 
BRANCH  16  17
ATOM     17  C   UNL     1      44.758   4.104   9.877  0.00  0.00    +0.000 A 
ATOM     18  C   UNL     1      44.137   2.886  10.175  0.00  0.00    +0.000 A 
ATOM     19  C   UNL     1      44.384   1.755   9.401  0.00  0.00    +0.000 A 
ATOM     20  C   UNL     1      45.236   1.835   8.301  0.00  0.00    +0.000 A 
ATOM     21  C   UNL     1      45.851   3.050   7.966  0.00  0.00    +0.000 A 
ATOM     22  C   UNL     1      45.622   4.177   8.777  0.00  0.00    +0.000 A 
BRANCH  21  23
ATOM     23  C   UNL     1      46.728   3.166   6.744  0.00  0.00    +0.000 C 
ATOM     24  F   UNL     1      46.731   4.412   6.192  0.00  0.00    +0.000 F 
ATOM     25  F   UNL     1      48.033   2.878   7.013  0.00  0.00    +0.000 F 
ATOM     26  F   UNL     1      46.355   2.318   5.747  0.00  0.00    +0.000 F 
ENDBRANCH  21  23
ENDBRANCH  16  17
ENDBRANCH   1  16
TORSDOF 5
ENDMDL
MODEL 6
REMARK VINA RESULT:    -6.813      5.383      7.986
REMARK INTER + INTRA:          -9.618
REMARK INTER:                  -9.065
REMARK INTRA:                  -0.553
REMARK UNBOUND:                -0.814
REMARK  Name = 
REMARK  6 active torsions:
REMARK  status: ('A' for Active; 'I' for Inactive)
REMARK    1  A    between atoms: C_1  and  C_2
REMARK    2  A    between atoms: C_2  and  C_3
REMARK    3  A    between atoms: C_2  and  C_14
REMARK    4  A    between atoms: C_3  and  N_4
REMARK    5  A    between atoms: C_8  and  C_9
REMARK    6  A    between atoms: C_18  and  C_19
REMARK                            x       y       z     vdW  Elec       q    Type
REMARK                         _______ _______ _______ _____ _____    ______ ____
ROOT
ATOM      1  C   UNL     1      47.401   6.394  13.425  0.00  0.00    +0.000 C 
ENDROOT
BRANCH   1   2
ATOM      2  N   UNL     1      46.869   5.268  14.185  0.00  0.00    +0.000 N 
ATOM      3  C   UNL     1      47.509   5.065  15.417  0.00  0.00    +0.000 A 
ATOM      4  C   UNL     1      47.100   4.014  16.252  0.00  0.00    +0.000 A 
ATOM      5  N   UNL     1      47.655   3.739  17.465  0.00  0.00    +0.000 NA
ATOM      6  C   UNL     1      48.654   4.589  17.825  0.00  0.00    +0.000 A 
ATOM      7  C   UNL     1      49.061   5.639  17.022  0.00  0.00    +0.000 A 
ATOM      8  N   UNL     1      48.495   5.898  15.814  0.00  0.00    +0.000 NA
ATOM      9  H   UNL     1      46.909   4.411  13.641  0.00  0.00    +0.000 HD
BRANCH   6  10
ATOM     10  C   UNL     1      49.325   4.369  19.133  0.00  0.00    +0.000 C 
ATOM     11  N   UNL     1      48.602   3.683  20.070  0.00  0.00    +0.000 N 
ATOM     12  O   UNL     1      50.457   4.775  19.364  0.00  0.00    +0.000 OA
ATOM     13  H   UNL     1      47.663   3.363  19.857  0.00  0.00    +0.000 HD
ATOM     14  H   UNL     1      49.005   3.511  20.978  0.00  0.00    +0.000 HD
ENDBRANCH   6  10
ENDBRANCH   1   2
BRANCH   1  16
ATOM     15  C   UNL     1      45.839   8.398  13.001  0.00  0.00    +0.000 C 
ATOM     16  C   UNL     1      46.252   6.997  12.676  0.00  0.00    +0.000 C 
BRANCH  16  17
ATOM     17  C   UNL     1      45.340   6.123  11.930  0.00  0.00    +0.000 A 
ATOM     18  C   UNL     1      44.029   5.934  12.381  0.00  0.00    +0.000 A 
ATOM     19  C   UNL     1      43.154   5.098  11.691  0.00  0.00    +0.000 A 
ATOM     20  C   UNL     1      43.573   4.463  10.523  0.00  0.00    +0.000 A 
ATOM     21  C   UNL     1      44.874   4.656  10.036  0.00  0.00    +0.000 A 
ATOM     22  C   UNL     1      45.759   5.473  10.763  0.00  0.00    +0.000 A 
BRANCH  21  23
ATOM     23  C   UNL     1      45.321   4.021   8.742  0.00  0.00    +0.000 C 
ATOM     24  F   UNL     1      46.390   4.644   8.172  0.00  0.00    +0.000 F 
ATOM     25  F   UNL     1      45.693   2.720   8.904  0.00  0.00    +0.000 F 
ATOM     26  F   UNL     1      44.344   4.016   7.794  0.00  0.00    +0.000 F 
ENDBRANCH  21  23
ENDBRANCH  16  17
ENDBRANCH   1  16
TORSDOF 5
ENDMDL
MODEL 7
REMARK VINA RESULT:    -6.783      4.951      7.486
REMARK INTER + INTRA:          -9.579
REMARK INTER:                  -9.004
REMARK INTRA:                  -0.575
REMARK UNBOUND:                -0.814
REMARK  Name = 
REMARK  6 active torsions:
REMARK  status: ('A' for Active; 'I' for Inactive)
REMARK    1  A    between atoms: C_1  and  C_2
REMARK    2  A    between atoms: C_2  and  C_3
REMARK    3  A    between atoms: C_2  and  C_14
REMARK    4  A    between atoms: C_3  and  N_4
REMARK    5  A    between atoms: C_8  and  C_9
REMARK    6  A    between atoms: C_18  and  C_19
REMARK                            x       y       z     vdW  Elec       q    Type
REMARK                         _______ _______ _______ _____ _____    ______ ____
ROOT
ATOM      1  C   UNL     1      47.974   6.744  12.443  0.00  0.00    +0.000 C 
ENDROOT
BRANCH   1   2
ATOM      2  N   UNL     1      48.437   7.121  13.775  0.00  0.00    +0.000 N 
ATOM      3  C   UNL     1      48.199   6.144  14.754  0.00  0.00    +0.000 A 
ATOM      4  C   UNL     1      48.590   6.376  16.081  0.00  0.00    +0.000 A 
ATOM      5  N   UNL     1      48.407   5.491  17.099  0.00  0.00    +0.000 NA
ATOM      6  C   UNL     1      47.811   4.327  16.723  0.00  0.00    +0.000 A 
ATOM      7  C   UNL     1      47.431   4.075  15.417  0.00  0.00    +0.000 A 
ATOM      8  N   UNL     1      47.623   4.971  14.415  0.00  0.00    +0.000 NA
ATOM      9  H   UNL     1      48.020   8.000  14.070  0.00  0.00    +0.000 HD
BRANCH   6  10
ATOM     10  C   UNL     1      47.565   3.296  17.765  0.00  0.00    +0.000 C 
ATOM     11  N   UNL     1      48.388   3.338  18.857  0.00  0.00    +0.000 N 
ATOM     12  O   UNL     1      46.679   2.456  17.659  0.00  0.00    +0.000 OA
ATOM     13  H   UNL     1      49.119   4.038  18.919  0.00  0.00    +0.000 HD
ATOM     14  H   UNL     1      48.271   2.658  19.593  0.00  0.00    +0.000 HD
ENDBRANCH   6  10
ENDBRANCH   1   2
BRANCH   1  16
ATOM     15  C   UNL     1      46.167   8.517  12.918  0.00  0.00    +0.000 C 
ATOM     16  C   UNL     1      46.549   7.194  12.334  0.00  0.00    +0.000 C 
BRANCH  16  17
ATOM     17  C   UNL     1      45.508   6.215  12.006  0.00  0.00    +0.000 A 
ATOM     18  C   UNL     1      44.420   6.036  12.868  0.00  0.00    +0.000 A 
ATOM     19  C   UNL     1      43.429   5.101  12.576  0.00  0.00    +0.000 A 
ATOM     20  C   UNL     1      43.499   4.355  11.402  0.00  0.00    +0.000 A 
ATOM     21  C   UNL     1      44.565   4.533  10.509  0.00  0.00    +0.000 A 
ATOM     22  C   UNL     1      45.579   5.453  10.833  0.00  0.00    +0.000 A 
BRANCH  21  23
ATOM     23  C   UNL     1      44.622   3.774   9.206  0.00  0.00    +0.000 C 
ATOM     24  F   UNL     1      45.887   3.608   8.728  0.00  0.00    +0.000 F 
ATOM     25  F   UNL     1      44.101   2.519   9.314  0.00  0.00    +0.000 F 
ATOM     26  F   UNL     1      43.924   4.385   8.210  0.00  0.00    +0.000 F 
ENDBRANCH  21  23
ENDBRANCH  16  17
ENDBRANCH   1  16
TORSDOF 5
ENDMDL
MODEL 8
REMARK VINA RESULT:    -6.686      5.205      7.718
REMARK INTER + INTRA:          -9.454
REMARK INTER:                  -8.910
REMARK INTRA:                  -0.545
REMARK UNBOUND:                -0.814
REMARK  Name = 
REMARK  6 active torsions:
REMARK  status: ('A' for Active; 'I' for Inactive)
REMARK    1  A    between atoms: C_1  and  C_2
REMARK    2  A    between atoms: C_2  and  C_3
REMARK    3  A    between atoms: C_2  and  C_14
REMARK    4  A    between atoms: C_3  and  N_4
REMARK    5  A    between atoms: C_8  and  C_9
REMARK    6  A    between atoms: C_18  and  C_19
REMARK                            x       y       z     vdW  Elec       q    Type
REMARK                         _______ _______ _______ _____ _____    ______ ____
ROOT
ATOM      1  C   UNL     1      45.241   5.157  13.271  0.00  0.00    +0.000 C 
ENDROOT
BRANCH   1   2
ATOM      2  N   UNL     1      46.399   5.959  13.652  0.00  0.00    +0.000 N 
ATOM      3  C   UNL     1      47.147   5.407  14.704  0.00  0.00    +0.000 A 
ATOM      4  C   UNL     1      48.288   6.075  15.175  0.00  0.00    +0.000 A 
ATOM      5  N   UNL     1      49.079   5.620  16.185  0.00  0.00    +0.000 NA
ATOM      6  C   UNL     1      48.680   4.431  16.711  0.00  0.00    +0.000 A 
ATOM      7  C   UNL     1      47.567   3.751  16.250  0.00  0.00    +0.000 A 
ATOM      8  N   UNL     1      46.790   4.221  15.240  0.00  0.00    +0.000 NA
ATOM      9  H   UNL     1      46.121   6.905  13.899  0.00  0.00    +0.000 HD
BRANCH   6  10
ATOM     10  C   UNL     1      49.480   3.852  17.822  0.00  0.00    +0.000 C 
ATOM     11  N   UNL     1      49.738   2.511  17.740  0.00  0.00    +0.000 N 
ATOM     12  O   UNL     1      49.887   4.529  18.758  0.00  0.00    +0.000 OA
ATOM     13  H   UNL     1      49.385   1.970  16.958  0.00  0.00    +0.000 HD
ATOM     14  H   UNL     1      50.271   2.063  18.470  0.00  0.00    +0.000 HD
ENDBRANCH   6  10
ENDBRANCH   1   2
BRANCH   1  16
ATOM     15  C   UNL     1      44.377   6.788  11.475  0.00  0.00    +0.000 C 
ATOM     16  C   UNL     1      44.958   5.456  11.831  0.00  0.00    +0.000 C 
BRANCH  16  17
ATOM     17  C   UNL     1      44.899   4.355  10.864  0.00  0.00    +0.000 A 
ATOM     18  C   UNL     1      44.057   3.263  11.098  0.00  0.00    +0.000 A 
ATOM     19  C   UNL     1      43.999   2.203  10.195  0.00  0.00    +0.000 A 
ATOM     20  C   UNL     1      44.763   2.237   9.031  0.00  0.00    +0.000 A 
ATOM     21  C   UNL     1      45.597   3.332   8.760  0.00  0.00    +0.000 A 
ATOM     22  C   UNL     1      45.674   4.378   9.697  0.00  0.00    +0.000 A 
BRANCH  21  23
ATOM     23  C   UNL     1      46.384   3.410   7.475  0.00  0.00    +0.000 C 
ATOM     24  F   UNL     1      47.109   4.556   7.349  0.00  0.00    +0.000 F 
ATOM     25  F   UNL     1      47.282   2.390   7.355  0.00  0.00    +0.000 F 
ATOM     26  F   UNL     1      45.594   3.345   6.369  0.00  0.00    +0.000 F 
ENDBRANCH  21  23
ENDBRANCH  16  17
ENDBRANCH   1  16
TORSDOF 5
ENDMDL
MODEL 9
REMARK VINA RESULT:    -6.524      4.096      6.256
REMARK INTER + INTRA:          -9.245
REMARK INTER:                  -8.684
REMARK INTRA:                  -0.560
REMARK UNBOUND:                -0.814
REMARK  Name = 
REMARK  6 active torsions:
REMARK  status: ('A' for Active; 'I' for Inactive)
REMARK    1  A    between atoms: C_1  and  C_2
REMARK    2  A    between atoms: C_2  and  C_3
REMARK    3  A    between atoms: C_2  and  C_14
REMARK    4  A    between atoms: C_3  and  N_4
REMARK    5  A    between atoms: C_8  and  C_9
REMARK    6  A    between atoms: C_18  and  C_19
REMARK                            x       y       z     vdW  Elec       q    Type
REMARK                         _______ _______ _______ _____ _____    ______ ____
ROOT
ATOM      1  C   UNL     1      47.586   3.685  15.863  0.00  0.00    +0.000 C 
ENDROOT
BRANCH   1   2
ATOM      2  N   UNL     1      47.091   4.891  15.207  0.00  0.00    +0.000 N 
ATOM      3  C   UNL     1      46.369   4.638  14.030  0.00  0.00    +0.000 A 
ATOM      4  C   UNL     1      45.837   5.708  13.293  0.00  0.00    +0.000 A 
ATOM      5  N   UNL     1      45.121   5.566  12.144  0.00  0.00    +0.000 NA
ATOM      6  C   UNL     1      44.943   4.274  11.757  0.00  0.00    +0.000 A 
ATOM      7  C   UNL     1      45.447   3.206  12.478  0.00  0.00    +0.000 A 
ATOM      8  N   UNL     1      46.159   3.369  13.622  0.00  0.00    +0.000 NA
ATOM      9  H   UNL     1      47.852   5.532  15.002  0.00  0.00    +0.000 HD
BRANCH   6  10
ATOM     10  C   UNL     1      44.174   4.015  10.512  0.00  0.00    +0.000 C 
ATOM     11  N   UNL     1      43.746   5.121   9.829  0.00  0.00    +0.000 N 
ATOM     12  O   UNL     1      43.935   2.881  10.113  0.00  0.00    +0.000 OA
ATOM     13  H   UNL     1      43.951   6.049  10.182  0.00  0.00    +0.000 HD
ATOM     14  H   UNL     1      43.215   5.004   8.980  0.00  0.00    +0.000 HD
ENDBRANCH   6  10
ENDBRANCH   1   2
BRANCH   1  16
ATOM     15  C   UNL     1      47.443   5.027  18.056  0.00  0.00    +0.000 C 
ATOM     16  C   UNL     1      48.213   4.116  17.153  0.00  0.00    +0.000 C 
BRANCH  16  17
ATOM     17  C   UNL     1      49.659   3.957  17.340  0.00  0.00    +0.000 A 
ATOM     18  C   UNL     1      50.477   5.085  17.460  0.00  0.00    +0.000 A 
ATOM     19  C   UNL     1      51.854   4.950  17.626  0.00  0.00    +0.000 A 
ATOM     20  C   UNL     1      52.425   3.682  17.704  0.00  0.00    +0.000 A 
ATOM     21  C   UNL     1      51.624   2.535  17.612  0.00  0.00    +0.000 A 
ATOM     22  C   UNL     1      50.240   2.684  17.407  0.00  0.00    +0.000 A 
BRANCH  21  23
ATOM     23  C   UNL     1      52.222   1.156  17.754  0.00  0.00    +0.000 C 
ATOM     24  F   UNL     1      52.723   0.658  16.589  0.00  0.00    +0.000 F 
ATOM     25  F   UNL     1      53.255   1.129  18.643  0.00  0.00    +0.000 F 
ATOM     26  F   UNL     1      51.322   0.236  18.196  0.00  0.00    +0.000 F 
ENDBRANCH  21  23
ENDBRANCH  16  17
ENDBRANCH   1  16
TORSDOF 5
ENDMDL
