MODEL 1
REMARK VINA RESULT:    -6.953      0.000      0.000
REMARK INTER + INTRA:          -8.651
REMARK INTER:                  -8.173
REMARK INTRA:                  -0.478
REMARK UNBOUND:                -0.478
REMARK  Name = 
REMARK  6 active torsions:
REMARK  status: ('A' for Active; 'I' for Inactive)
REMARK    1  A    between atoms: C_1  and  C_2
REMARK    2  A    between atoms: C_2  and  C_3
REMARK    3  A    between atoms: C_2  and  C_4
REMARK    4  A    between atoms: C_2  and  C_5
REMARK    5  A    between atoms: N_7  and  C_8
REMARK    6  A    between atoms: C_8  and  C_9
REMARK                            x       y       z     vdW  Elec       q    Type
REMARK                         _______ _______ _______ _____ _____    ______ ____
ROOT
ATOM      1  C   UNL     1      46.086   5.930  11.479  0.00  0.00    +0.000 A 
ATOM      2  C   UNL     1      46.138   5.803  10.098  0.00  0.00    +0.000 A 
ATOM      3  N   UNL     1      45.312   4.790   9.701  0.00  0.00    +0.000 N 
ATOM      4  C   UNL     1      44.695   4.227  10.797  0.00  0.00    +0.000 A 
ATOM      5  C   UNL     1      43.756   3.185  10.881  0.00  0.00    +0.000 A 
ATOM      6  C   UNL     1      43.284   2.810  12.139  0.00  0.00    +0.000 A 
ATOM      7  C   UNL     1      43.741   3.450  13.281  0.00  0.00    +0.000 A 
ATOM      8  C   UNL     1      44.672   4.491  13.188  0.00  0.00    +0.000 A 
ATOM      9  C   UNL     1      45.168   4.909  11.929  0.00  0.00    +0.000 A 
ENDROOT
BRANCH   1  11
ATOM     10  C   UNL     1      47.647   6.328  13.406  0.00  0.00    +0.000 C 
ATOM     11  C   UNL     1      46.870   6.998  12.250  0.00  0.00    +0.000 C 
ATOM     12  C   UNL     1      45.894   8.038  12.847  0.00  0.00    +0.000 C 
ATOM     13  C   UNL     1      47.889   7.774  11.401  0.00  0.00    +0.000 C 
ENDBRANCH   1  11
BRANCH   3  14
ATOM     14  C   UNL     1      45.127   4.387   8.310  0.00  0.00    +0.000 C 
BRANCH  14  15
ATOM     15  C   UNL     1      45.990   3.218   7.964  0.00  0.00    +0.000 A 
ATOM     16  C   UNL     1      47.148   3.339   7.220  0.00  0.00    +0.000 A 
ATOM     17  N   UNL     1      47.921   2.295   6.858  0.00  0.00    +0.000 NA
ATOM     18  C   UNL     1      47.498   1.092   7.264  0.00  0.00    +0.000 A 
ATOM     19  N   UNL     1      46.412   0.850   8.014  0.00  0.00    +0.000 NA
ATOM     20  C   UNL     1      45.680   1.930   8.348  0.00  0.00    +0.000 A 
ENDBRANCH  14  15
ENDBRANCH   3  14
TORSDOF 3
ENDMDL
MODEL 2
REMARK VINA RESULT:    -6.125      1.515      2.759
REMARK INTER + INTRA:          -7.678
REMARK INTER:                  -7.122
REMARK INTRA:                  -0.556
REMARK UNBOUND:                -0.478
REMARK  Name = 
REMARK  6 active torsions:
REMARK  status: ('A' for Active; 'I' for Inactive)
REMARK    1  A    between atoms: C_1  and  C_2
REMARK    2  A    between atoms: C_2  and  C_3
REMARK    3  A    between atoms: C_2  and  C_4
REMARK    4  A    between atoms: C_2  and  C_5
REMARK    5  A    between atoms: N_7  and  C_8
REMARK    6  A    between atoms: C_8  and  C_9
REMARK                            x       y       z     vdW  Elec       q    Type
REMARK                         _______ _______ _______ _____ _____    ______ ____
ROOT
ATOM      1  C   UNL     1      46.311   7.233  12.259  0.00  0.00    +0.000 A 
ATOM      2  C   UNL     1      45.395   6.884  11.276  0.00  0.00    +0.000 A 
ATOM      3  N   UNL     1      45.117   5.549  11.365  0.00  0.00    +0.000 N 
ATOM      4  C   UNL     1      45.831   4.986  12.399  0.00  0.00    +0.000 A 
ATOM      5  C   UNL     1      45.854   3.665  12.880  0.00  0.00    +0.000 A 
ATOM      6  C   UNL     1      46.680   3.362  13.962  0.00  0.00    +0.000 A 
ATOM      7  C   UNL     1      47.467   4.345  14.543  0.00  0.00    +0.000 A 
ATOM      8  C   UNL     1      47.434   5.659  14.061  0.00  0.00    +0.000 A 
ATOM      9  C   UNL     1      46.601   6.011  12.971  0.00  0.00    +0.000 A 
ENDROOT
BRANCH   1  11
ATOM     10  C   UNL     1      45.754   9.660  11.931  0.00  0.00    +0.000 C 
ATOM     11  C   UNL     1      46.813   8.667  12.460  0.00  0.00    +0.000 C 
ATOM     12  C   UNL     1      48.127   8.878  11.673  0.00  0.00    +0.000 C 
ATOM     13  C   UNL     1      47.102   9.039  13.923  0.00  0.00    +0.000 C 
ENDBRANCH   1  11
BRANCH   3  14
ATOM     14  C   UNL     1      44.189   4.850  10.480  0.00  0.00    +0.000 C 
BRANCH  14  15
ATOM     15  C   UNL     1      44.918   4.040   9.459  0.00  0.00    +0.000 A 
ATOM     16  C   UNL     1      44.931   2.658   9.472  0.00  0.00    +0.000 A 
ATOM     17  N   UNL     1      45.615   1.905   8.588  0.00  0.00    +0.000 NA
ATOM     18  C   UNL     1      46.311   2.581   7.665  0.00  0.00    +0.000 A 
ATOM     19  N   UNL     1      46.353   3.914   7.531  0.00  0.00    +0.000 NA
ATOM     20  C   UNL     1      45.648   4.616   8.440  0.00  0.00    +0.000 A 
ENDBRANCH  14  15
ENDBRANCH   3  14
TORSDOF 3
ENDMDL
MODEL 3
REMARK VINA RESULT:    -5.906      3.237      5.707
REMARK INTER + INTRA:          -7.419
REMARK INTER:                  -6.775
REMARK INTRA:                  -0.644
REMARK UNBOUND:                -0.478
REMARK  Name = 
REMARK  6 active torsions:
REMARK  status: ('A' for Active; 'I' for Inactive)
REMARK    1  A    between atoms: C_1  and  C_2
REMARK    2  A    between atoms: C_2  and  C_3
REMARK    3  A    between atoms: C_2  and  C_4
REMARK    4  A    between atoms: C_2  and  C_5
REMARK    5  A    between atoms: N_7  and  C_8
REMARK    6  A    between atoms: C_8  and  C_9
REMARK                            x       y       z     vdW  Elec       q    Type
REMARK                         _______ _______ _______ _____ _____    ______ ____
ROOT
ATOM      1  C   UNL     1      47.636   4.629  15.665  0.00  0.00    +0.000 A 
ATOM      2  C   UNL     1      46.918   3.716  14.904  0.00  0.00    +0.000 A 
ATOM      3  N   UNL     1      46.733   4.217  13.646  0.00  0.00    +0.000 N 
ATOM      4  C   UNL     1      47.318   5.459  13.542  0.00  0.00    +0.000 A 
ATOM      5  C   UNL     1      47.406   6.338  12.448  0.00  0.00    +0.000 A 
ATOM      6  C   UNL     1      48.070   7.552  12.618  0.00  0.00    +0.000 A 
ATOM      7  C   UNL     1      48.624   7.885  13.845  0.00  0.00    +0.000 A 
ATOM      8  C   UNL     1      48.538   7.002  14.927  0.00  0.00    +0.000 A 
ATOM      9  C   UNL     1      47.881   5.754  14.793  0.00  0.00    +0.000 A 
ENDROOT
BRANCH   1  11
ATOM     10  C   UNL     1      47.576   2.953  17.535  0.00  0.00    +0.000 C 
ATOM     11  C   UNL     1      48.046   4.365  17.118  0.00  0.00    +0.000 C 
ATOM     12  C   UNL     1      47.379   5.404  18.049  0.00  0.00    +0.000 C 
ATOM     13  C   UNL     1      49.559   4.439  17.374  0.00  0.00    +0.000 C 
ENDBRANCH   1  11
BRANCH   3  14
ATOM     14  C   UNL     1      46.017   3.512  12.587  0.00  0.00    +0.000 C 
BRANCH  14  15
ATOM     15  C   UNL     1      44.718   4.178  12.273  0.00  0.00    +0.000 A 
ATOM     16  C   UNL     1      44.372   4.577  10.996  0.00  0.00    +0.000 A 
ATOM     17  N   UNL     1      43.225   5.217  10.694  0.00  0.00    +0.000 NA
ATOM     18  C   UNL     1      42.407   5.462  11.725  0.00  0.00    +0.000 A 
ATOM     19  N   UNL     1      42.616   5.098  12.999  0.00  0.00    +0.000 NA
ATOM     20  C   UNL     1      43.777   4.459  13.242  0.00  0.00    +0.000 A 
ENDBRANCH  14  15
ENDBRANCH   3  14
TORSDOF 3
ENDMDL
MODEL 4
REMARK VINA RESULT:    -5.856      2.298      4.489
REMARK INTER + INTRA:          -7.361
REMARK INTER:                  -6.843
REMARK INTRA:                  -0.518
REMARK UNBOUND:                -0.478
REMARK  Name = 
REMARK  6 active torsions:
REMARK  status: ('A' for Active; 'I' for Inactive)
REMARK    1  A    between atoms: C_1  and  C_2
REMARK    2  A    between atoms: C_2  and  C_3
REMARK    3  A    between atoms: C_2  and  C_4
REMARK    4  A    between atoms: C_2  and  C_5
REMARK    5  A    between atoms: N_7  and  C_8
REMARK    6  A    between atoms: C_8  and  C_9
REMARK                            x       y       z     vdW  Elec       q    Type
REMARK                         _______ _______ _______ _____ _____    ______ ____
ROOT
ATOM      1  C   UNL     1      46.332   7.565  12.601  0.00  0.00    +0.000 A 
ATOM      2  C   UNL     1      45.412   6.552  12.369  0.00  0.00    +0.000 A 
ATOM      3  N   UNL     1      44.338   7.057  11.692  0.00  0.00    +0.000 N 
ATOM      4  C   UNL     1      44.517   8.403  11.460  0.00  0.00    +0.000 A 
ATOM      5  C   UNL     1      43.700   9.330  10.789  0.00  0.00    +0.000 A 
ATOM      6  C   UNL     1      44.131  10.653  10.694  0.00  0.00    +0.000 A 
ATOM      7  C   UNL     1      45.335  11.044  11.258  0.00  0.00    +0.000 A 
ATOM      8  C   UNL     1      46.145  10.113  11.919  0.00  0.00    +0.000 A 
ATOM      9  C   UNL     1      45.750   8.757  12.029  0.00  0.00    +0.000 A 
ENDROOT
BRANCH   1  11
ATOM     10  C   UNL     1      48.815   7.380  12.272  0.00  0.00    +0.000 C 
ATOM     11  C   UNL     1      47.670   7.331  13.310  0.00  0.00    +0.000 C 
ATOM     12  C   UNL     1      47.672   5.939  13.983  0.00  0.00    +0.000 C 
ATOM     13  C   UNL     1      47.998   8.360  14.404  0.00  0.00    +0.000 C 
ENDBRANCH   1  11
BRANCH   3  14
ATOM     14  C   UNL     1      43.184   6.261  11.285  0.00  0.00    +0.000 C 
BRANCH  14  15
ATOM     15  C   UNL     1      43.598   4.907  10.810  0.00  0.00    +0.000 A 
ATOM     16  C   UNL     1      44.382   4.717   9.687  0.00  0.00    +0.000 A 
ATOM     17  N   UNL     1      44.735   3.506   9.214  0.00  0.00    +0.000 NA
ATOM     18  C   UNL     1      44.271   2.456   9.902  0.00  0.00    +0.000 A 
ATOM     19  N   UNL     1      43.532   2.511  11.020  0.00  0.00    +0.000 NA
ATOM     20  C   UNL     1      43.212   3.747  11.449  0.00  0.00    +0.000 A 
ENDBRANCH  14  15
ENDBRANCH   3  14
TORSDOF 3
ENDMDL
MODEL 5
REMARK VINA RESULT:    -5.824      3.142      5.184
REMARK INTER + INTRA:          -7.323
REMARK INTER:                  -6.593
REMARK INTRA:                  -0.730
REMARK UNBOUND:                -0.478
REMARK  Name = 
REMARK  6 active torsions:
REMARK  status: ('A' for Active; 'I' for Inactive)
REMARK    1  A    between atoms: C_1  and  C_2
REMARK    2  A    between atoms: C_2  and  C_3
REMARK    3  A    between atoms: C_2  and  C_4
REMARK    4  A    between atoms: C_2  and  C_5
REMARK    5  A    between atoms: N_7  and  C_8
REMARK    6  A    between atoms: C_8  and  C_9
REMARK                            x       y       z     vdW  Elec       q    Type
REMARK                         _______ _______ _______ _____ _____    ______ ____
ROOT
ATOM      1  C   UNL     1      48.208   6.669  13.745  0.00  0.00    +0.000 A 
ATOM      2  C   UNL     1      47.473   5.843  12.906  0.00  0.00    +0.000 A 
ATOM      3  N   UNL     1      47.004   4.773  13.616  0.00  0.00    +0.000 N 
ATOM      4  C   UNL     1      47.411   4.863  14.929  0.00  0.00    +0.000 A 
ATOM      5  C   UNL     1      47.156   4.018  16.023  0.00  0.00    +0.000 A 
ATOM      6  C   UNL     1      47.696   4.352  17.265  0.00  0.00    +0.000 A 
ATOM      7  C   UNL     1      48.474   5.490  17.411  0.00  0.00    +0.000 A 
ATOM      8  C   UNL     1      48.717   6.329  16.317  0.00  0.00    +0.000 A 
ATOM      9  C   UNL     1      48.179   6.032  15.041  0.00  0.00    +0.000 A 
ENDROOT
BRANCH   1  11
ATOM     10  C   UNL     1      48.138   9.171  13.957  0.00  0.00    +0.000 C 
ATOM     11  C   UNL     1      48.848   7.980  13.275  0.00  0.00    +0.000 C 
ATOM     12  C   UNL     1      48.691   8.121  11.743  0.00  0.00    +0.000 C 
ATOM     13  C   UNL     1      50.348   8.101  13.585  0.00  0.00    +0.000 C 
ENDBRANCH   1  11
BRANCH   3  14
ATOM     14  C   UNL     1      46.190   3.707  13.039  0.00  0.00    +0.000 C 
BRANCH  14  15
ATOM     15  C   UNL     1      44.906   4.239  12.492  0.00  0.00    +0.000 A 
ATOM     16  C   UNL     1      44.645   4.316  11.137  0.00  0.00    +0.000 A 
ATOM     17  N   UNL     1      43.513   4.830  10.618  0.00  0.00    +0.000 NA
ATOM     18  C   UNL     1      42.621   5.284  11.507  0.00  0.00    +0.000 A 
ATOM     19  N   UNL     1      42.744   5.237  12.841  0.00  0.00    +0.000 NA
ATOM     20  C   UNL     1      43.895   4.711  13.303  0.00  0.00    +0.000 A 
ENDBRANCH  14  15
ENDBRANCH   3  14
TORSDOF 3
ENDMDL
MODEL 6
REMARK VINA RESULT:    -5.720      4.314      7.210
REMARK INTER + INTRA:          -7.201
REMARK INTER:                  -6.789
REMARK INTRA:                  -0.412
REMARK UNBOUND:                -0.478
REMARK  Name = 
REMARK  6 active torsions:
REMARK  status: ('A' for Active; 'I' for Inactive)
REMARK    1  A    between atoms: C_1  and  C_2
REMARK    2  A    between atoms: C_2  and  C_3
REMARK    3  A    between atoms: C_2  and  C_4
REMARK    4  A    between atoms: C_2  and  C_5
REMARK    5  A    between atoms: N_7  and  C_8
REMARK    6  A    between atoms: C_8  and  C_9
REMARK                            x       y       z     vdW  Elec       q    Type
REMARK                         _______ _______ _______ _____ _____    ______ ____
ROOT
ATOM      1  C   UNL     1      46.427   5.227  13.445  0.00  0.00    +0.000 A 
ATOM      2  C   UNL     1      46.433   4.650  14.707  0.00  0.00    +0.000 A 
ATOM      3  N   UNL     1      47.467   5.164  15.439  0.00  0.00    +0.000 N 
ATOM      4  C   UNL     1      48.163   6.086  14.689  0.00  0.00    +0.000 A 
ATOM      5  C   UNL     1      49.275   6.880  15.021  0.00  0.00    +0.000 A 
ATOM      6  C   UNL     1      49.788   7.748  14.056  0.00  0.00    +0.000 A 
ATOM      7  C   UNL     1      49.215   7.816  12.796  0.00  0.00    +0.000 A 
ATOM      8  C   UNL     1      48.105   7.025  12.475  0.00  0.00    +0.000 A 
ATOM      9  C   UNL     1      47.547   6.140  13.429  0.00  0.00    +0.000 A 
ENDROOT
BRANCH   1  11
ATOM     10  C   UNL     1      43.996   5.419  12.846  0.00  0.00    +0.000 C 
ATOM     11  C   UNL     1      45.374   4.897  12.381  0.00  0.00    +0.000 C 
ATOM     12  C   UNL     1      45.285   3.365  12.188  0.00  0.00    +0.000 C 
ATOM     13  C   UNL     1      45.655   5.508  10.999  0.00  0.00    +0.000 C 
ENDBRANCH   1  11
BRANCH   3  14
ATOM     14  C   UNL     1      47.763   4.775  16.815  0.00  0.00    +0.000 C 
BRANCH  14  15
ATOM     15  C   UNL     1      48.864   3.768  16.870  0.00  0.00    +0.000 A 
ATOM     16  C   UNL     1      48.761   2.516  16.294  0.00  0.00    +0.000 A 
ATOM     17  N   UNL     1      49.723   1.575  16.366  0.00  0.00    +0.000 NA
ATOM     18  C   UNL     1      50.823   1.919  17.048  0.00  0.00    +0.000 A 
ATOM     19  N   UNL     1      51.053   3.109  17.622  0.00  0.00    +0.000 NA
ATOM     20  C   UNL     1      50.059   4.011  17.516  0.00  0.00    +0.000 A 
ENDBRANCH  14  15
ENDBRANCH   3  14
TORSDOF 3
ENDMDL
MODEL 7
REMARK VINA RESULT:    -5.556      4.194      6.402
REMARK INTER + INTRA:          -7.009
REMARK INTER:                  -6.309
REMARK INTRA:                  -0.700
REMARK UNBOUND:                -0.478
REMARK  Name = 
REMARK  6 active torsions:
REMARK  status: ('A' for Active; 'I' for Inactive)
REMARK    1  A    between atoms: C_1  and  C_2
REMARK    2  A    between atoms: C_2  and  C_3
REMARK    3  A    between atoms: C_2  and  C_4
REMARK    4  A    between atoms: C_2  and  C_5
REMARK    5  A    between atoms: N_7  and  C_8
REMARK    6  A    between atoms: C_8  and  C_9
REMARK                            x       y       z     vdW  Elec       q    Type
REMARK                         _______ _______ _______ _____ _____    ______ ____
ROOT
ATOM      1  C   UNL     1      48.397   6.973  13.668  0.00  0.00    +0.000 A 
ATOM      2  C   UNL     1      48.485   6.457  14.953  0.00  0.00    +0.000 A 
ATOM      3  N   UNL     1      47.549   5.474  15.116  0.00  0.00    +0.000 N 
ATOM      4  C   UNL     1      46.827   5.314  13.954  0.00  0.00    +0.000 A 
ATOM      5  C   UNL     1      45.788   4.420  13.641  0.00  0.00    +0.000 A 
ATOM      6  C   UNL     1      45.225   4.470  12.366  0.00  0.00    +0.000 A 
ATOM      7  C   UNL     1      45.678   5.389  11.433  0.00  0.00    +0.000 A 
ATOM      8  C   UNL     1      46.716   6.273  11.751  0.00  0.00    +0.000 A 
ATOM      9  C   UNL     1      47.322   6.247  13.031  0.00  0.00    +0.000 A 
ENDROOT
BRANCH   1  11
ATOM     10  C   UNL     1      50.427   8.355  14.192  0.00  0.00    +0.000 C 
ATOM     11  C   UNL     1      49.328   8.071  13.143  0.00  0.00    +0.000 C 
ATOM     12  C   UNL     1      48.525   9.371  12.903  0.00  0.00    +0.000 C 
ATOM     13  C   UNL     1      50.032   7.729  11.821  0.00  0.00    +0.000 C 
ENDBRANCH   1  11
BRANCH   3  14
ATOM     14  C   UNL     1      47.368   4.719  16.352  0.00  0.00    +0.000 C 
BRANCH  14  15
ATOM     15  C   UNL     1      48.505   3.779  16.586  0.00  0.00    +0.000 A 
ATOM     16  C   UNL     1      48.565   2.523  16.014  0.00  0.00    +0.000 A 
ATOM     17  N   UNL     1      49.558   1.640  16.242  0.00  0.00    +0.000 NA
ATOM     18  C   UNL     1      50.517   2.050  17.082  0.00  0.00    +0.000 A 
ATOM     19  N   UNL     1      50.586   3.252  17.673  0.00  0.00    +0.000 NA
ATOM     20  C   UNL     1      49.569   4.094  17.406  0.00  0.00    +0.000 A 
ENDBRANCH  14  15
ENDBRANCH   3  14
TORSDOF 3
ENDMDL
MODEL 8
REMARK VINA RESULT:    -5.475      3.292      6.664
REMARK INTER + INTRA:          -6.913
REMARK INTER:                  -6.780
REMARK INTRA:                  -0.134
REMARK UNBOUND:                -0.478
REMARK  Name = 
REMARK  6 active torsions:
REMARK  status: ('A' for Active; 'I' for Inactive)
REMARK    1  A    between atoms: C_1  and  C_2
REMARK    2  A    between atoms: C_2  and  C_3
REMARK    3  A    between atoms: C_2  and  C_4
REMARK    4  A    between atoms: C_2  and  C_5
REMARK    5  A    between atoms: N_7  and  C_8
REMARK    6  A    between atoms: C_8  and  C_9
REMARK                            x       y       z     vdW  Elec       q    Type
REMARK                         _______ _______ _______ _____ _____    ______ ____
ROOT
ATOM      1  C   UNL     1      45.053   5.468  12.022  0.00  0.00    +0.000 A 
ATOM      2  C   UNL     1      46.131   4.976  12.745  0.00  0.00    +0.000 A 
ATOM      3  N   UNL     1      46.911   6.016  13.165  0.00  0.00    +0.000 N 
ATOM      4  C   UNL     1      46.375   7.211  12.738  0.00  0.00    +0.000 A 
ATOM      5  C   UNL     1      46.809   8.532  12.946  0.00  0.00    +0.000 A 
ATOM      6  C   UNL     1      46.063   9.574  12.395  0.00  0.00    +0.000 A 
ATOM      7  C   UNL     1      44.923   9.307  11.653  0.00  0.00    +0.000 A 
ATOM      8  C   UNL     1      44.495   7.989  11.456  0.00  0.00    +0.000 A 
ATOM      9  C   UNL     1      45.217   6.903  12.007  0.00  0.00    +0.000 A 
ENDROOT
BRANCH   1  11
ATOM     10  C   UNL     1      42.573   5.159  11.769  0.00  0.00    +0.000 C 
ATOM     11  C   UNL     1      43.962   4.567  11.434  0.00  0.00    +0.000 C 
ATOM     12  C   UNL     1      44.059   3.153  12.051  0.00  0.00    +0.000 C 
ATOM     13  C   UNL     1      44.033   4.397   9.909  0.00  0.00    +0.000 C 
ENDBRANCH   1  11
BRANCH   3  14
ATOM     14  C   UNL     1      48.129   5.854  13.954  0.00  0.00    +0.000 C 
BRANCH  14  15
ATOM     15  C   UNL     1      47.825   5.346  15.325  0.00  0.00    +0.000 A 
ATOM     16  C   UNL     1      48.278   5.972  16.471  0.00  0.00    +0.000 A 
ATOM     17  N   UNL     1      48.052   5.511  17.718  0.00  0.00    +0.000 NA
ATOM     18  C   UNL     1      47.348   4.376  17.798  0.00  0.00    +0.000 A 
ATOM     19  N   UNL     1      46.829   3.695  16.765  0.00  0.00    +0.000 NA
ATOM     20  C   UNL     1      47.084   4.203  15.544  0.00  0.00    +0.000 A 
ENDBRANCH  14  15
ENDBRANCH   3  14
TORSDOF 3
ENDMDL
MODEL 9
REMARK VINA RESULT:    -5.272      3.590      7.128
REMARK INTER + INTRA:          -6.675
REMARK INTER:                  -5.965
REMARK INTRA:                  -0.710
REMARK UNBOUND:                -0.478
REMARK  Name = 
REMARK  6 active torsions:
REMARK  status: ('A' for Active; 'I' for Inactive)
REMARK    1  A    between atoms: C_1  and  C_2
REMARK    2  A    between atoms: C_2  and  C_3
REMARK    3  A    between atoms: C_2  and  C_4
REMARK    4  A    between atoms: C_2  and  C_5
REMARK    5  A    between atoms: N_7  and  C_8
REMARK    6  A    between atoms: C_8  and  C_9
REMARK                            x       y       z     vdW  Elec       q    Type
REMARK                         _______ _______ _______ _____ _____    ______ ____
ROOT
ATOM      1  C   UNL     1      45.395   5.886  12.246  0.00  0.00    +0.000 A 
ATOM      2  C   UNL     1      46.649   5.630  12.784  0.00  0.00    +0.000 A 
ATOM      3  N   UNL     1      47.348   6.799  12.890  0.00  0.00    +0.000 N 
ATOM      4  C   UNL     1      46.583   7.849  12.432  0.00  0.00    +0.000 A 
ATOM      5  C   UNL     1      46.867   9.225  12.367  0.00  0.00    +0.000 A 
ATOM      6  C   UNL     1      45.895  10.084  11.854  0.00  0.00    +0.000 A 
ATOM      7  C   UNL     1      44.680   9.586  11.410  0.00  0.00    +0.000 A 
ATOM      8  C   UNL     1      44.403   8.215  11.484  0.00  0.00    +0.000 A 
ATOM      9  C   UNL     1      45.358   7.311  12.008  0.00  0.00    +0.000 A 
ENDROOT
BRANCH   1  11
ATOM     10  C   UNL     1      44.967   3.413  12.321  0.00  0.00    +0.000 C 
ATOM     11  C   UNL     1      44.342   4.795  12.025  0.00  0.00    +0.000 C 
ATOM     12  C   UNL     1      43.864   4.818  10.555  0.00  0.00    +0.000 C 
ATOM     13  C   UNL     1      43.091   4.932  12.906  0.00  0.00    +0.000 C 
ENDBRANCH   1  11
BRANCH   3  14
ATOM     14  C   UNL     1      48.706   6.891  13.418  0.00  0.00    +0.000 C 
BRANCH  14  15
ATOM     15  C   UNL     1      48.700   7.140  14.891  0.00  0.00    +0.000 A 
ATOM     16  C   UNL     1      48.646   6.119  15.821  0.00  0.00    +0.000 A 
ATOM     17  N   UNL     1      48.597   6.319  17.153  0.00  0.00    +0.000 NA
ATOM     18  C   UNL     1      48.599   7.598  17.549  0.00  0.00    +0.000 A 
ATOM     19  N   UNL     1      48.681   8.671  16.748  0.00  0.00    +0.000 NA
ATOM     20  C   UNL     1      48.730   8.411  15.427  0.00  0.00    +0.000 A 
ENDBRANCH  14  15
ENDBRANCH   3  14
TORSDOF 3
ENDMDL
