MODEL 1
REMARK VINA RESULT:    -8.490      0.000      0.000
REMARK INTER + INTRA:         -12.015
REMARK INTER:                 -10.972
REMARK INTRA:                  -1.043
REMARK UNBOUND:                -1.043
REMARK  Name = 
REMARK  5 active torsions:
REMARK  status: ('A' for Active; 'I' for Inactive)
REMARK    1  A    between atoms: C_2  and  C_4
REMARK    2  A    between atoms: C_7  and  O_8
REMARK    3  A    between atoms: O_8  and  C_9
REMARK    4  A    between atoms: C_9  and  C_10
REMARK    5  A    between atoms: C_14  and  C_15
REMARK                            x       y       z     vdW  Elec       q    Type
REMARK                         _______ _______ _______ _____ _____    ______ ____
ROOT
ATOM      1  C   UNL     1      43.549   4.566  11.318  0.00  0.00    +0.000 C 
ENDROOT
BRANCH   1   2
ATOM      2  C   UNL     1      44.810   4.948  12.058  0.00  0.00    +0.000 A 
ATOM      3  C   UNL     1      45.431   4.006  12.889  0.00  0.00    +0.000 A 
ATOM      4  C   UNL     1      46.640   4.302  13.510  0.00  0.00    +0.000 A 
ATOM      5  C   UNL     1      47.250   5.538  13.292  0.00  0.00    +0.000 A 
ATOM      6  C   UNL     1      46.667   6.498  12.451  0.00  0.00    +0.000 A 
ATOM      7  C   UNL     1      45.440   6.185  11.843  0.00  0.00    +0.000 A 
BRANCH   6   8
ATOM      8  C   UNL     1      47.373   7.766  12.158  0.00  0.00    +0.000 C 
ATOM      9  C   UNL     1      48.684   7.822  11.850  0.00  0.00    +0.000 C 
ATOM     10  C   UNL     1      49.401   9.108  11.552  0.00  0.00    +0.000 C 
ATOM     11  O   UNL     1      48.506  10.199  11.315  0.00  0.00    +0.000 OA
ATOM     12  C   UNL     1      47.489  10.270  12.314  0.00  0.00    +0.000 C 
ATOM     13  C   UNL     1      46.577   9.049  12.216  0.00  0.00    +0.000 C 
ENDBRANCH   6   8
ENDBRANCH   1   2
BRANCH   1  14
ATOM     14  O   UNL     1      43.696   4.744   9.908  0.00  0.00    +0.000 OA
BRANCH  14  18
ATOM     15  C   UNL     1      46.334   2.263   7.834  0.00  0.00    +0.000 A 
ATOM     16  C   UNL     1      45.437   1.678   8.732  0.00  0.00    +0.000 A 
ATOM     17  C   UNL     1      44.538   2.476   9.447  0.00  0.00    +0.000 A 
ATOM     18  C   UNL     1      44.530   3.863   9.273  0.00  0.00    +0.000 A 
ATOM     19  C   UNL     1      45.440   4.444   8.385  0.00  0.00    +0.000 A 
ATOM     20  C   UNL     1      46.344   3.652   7.673  0.00  0.00    +0.000 A 
BRANCH  15  22
ATOM     21  N   UNL     1      48.395   2.088   6.552  0.00  0.00    +0.000 N 
ATOM     22  C   UNL     1      47.300   1.444   7.057  0.00  0.00    +0.000 C 
ATOM     23  O   UNL     1      47.146   0.240   6.902  0.00  0.00    +0.000 OA
ATOM     24  H   UNL     1      49.098   1.499   6.123  0.00  0.00    +0.000 HD
ATOM     25  H   UNL     1      48.686   2.998   6.880  0.00  0.00    +0.000 HD
ENDBRANCH  15  22
ENDBRANCH  14  18
ENDBRANCH   1  14
TORSDOF 5
ENDMDL
MODEL 2
REMARK VINA RESULT:    -8.473      2.154      3.395
REMARK INTER + INTRA:         -11.993
REMARK INTER:                 -11.022
REMARK INTRA:                  -0.970
REMARK UNBOUND:                -1.043
REMARK  Name = 
REMARK  5 active torsions:
REMARK  status: ('A' for Active; 'I' for Inactive)
REMARK    1  A    between atoms: C_2  and  C_4
REMARK    2  A    between atoms: C_7  and  O_8
REMARK    3  A    between atoms: O_8  and  C_9
REMARK    4  A    between atoms: C_9  and  C_10
REMARK    5  A    between atoms: C_14  and  C_15
REMARK                            x       y       z     vdW  Elec       q    Type
REMARK                         _______ _______ _______ _____ _____    ______ ____
ROOT
ATOM      1  C   UNL     1      43.598   4.669  11.301  0.00  0.00    +0.000 C 
ENDROOT
BRANCH   1   2
ATOM      2  C   UNL     1      44.812   5.383  11.849  0.00  0.00    +0.000 A 
ATOM      3  C   UNL     1      45.141   6.653  11.359  0.00  0.00    +0.000 A 
ATOM      4  C   UNL     1      46.200   7.368  11.909  0.00  0.00    +0.000 A 
ATOM      5  C   UNL     1      46.929   6.827  12.969  0.00  0.00    +0.000 A 
ATOM      6  C   UNL     1      46.615   5.567  13.499  0.00  0.00    +0.000 A 
ATOM      7  C   UNL     1      45.551   4.855  12.921  0.00  0.00    +0.000 A 
BRANCH   6   8
ATOM      8  C   UNL     1      47.338   5.049  14.683  0.00  0.00    +0.000 C 
ATOM      9  C   UNL     1      47.160   3.803  15.164  0.00  0.00    +0.000 C 
ATOM     10  C   UNL     1      47.892   3.277  16.366  0.00  0.00    +0.000 C 
ATOM     11  O   UNL     1      49.005   4.095  16.738  0.00  0.00    +0.000 OA
ATOM     12  C   UNL     1      48.649   5.477  16.782  0.00  0.00    +0.000 C 
ATOM     13  C   UNL     1      48.312   5.973  15.378  0.00  0.00    +0.000 C 
ENDBRANCH   6   8
ENDBRANCH   1   2
BRANCH   1  14
ATOM     14  O   UNL     1      43.587   4.678   9.872  0.00  0.00    +0.000 OA
BRANCH  14  18
ATOM     15  C   UNL     1      46.304   2.238   7.851  0.00  0.00    +0.000 A 
ATOM     16  C   UNL     1      45.443   1.648   8.780  0.00  0.00    +0.000 A 
ATOM     17  C   UNL     1      44.519   2.433   9.479  0.00  0.00    +0.000 A 
ATOM     18  C   UNL     1      44.450   3.811   9.257  0.00  0.00    +0.000 A 
ATOM     19  C   UNL     1      45.325   4.399   8.338  0.00  0.00    +0.000 A 
ATOM     20  C   UNL     1      46.254   3.620   7.642  0.00  0.00    +0.000 A 
BRANCH  15  22
ATOM     21  N   UNL     1      48.390   2.094   6.606  0.00  0.00    +0.000 N 
ATOM     22  C   UNL     1      47.295   1.435   7.091  0.00  0.00    +0.000 C 
ATOM     23  O   UNL     1      47.161   0.229   6.931  0.00  0.00    +0.000 OA
ATOM     24  H   UNL     1      49.109   1.516   6.189  0.00  0.00    +0.000 HD
ATOM     25  H   UNL     1      48.663   3.007   6.940  0.00  0.00    +0.000 HD
ENDBRANCH  15  22
ENDBRANCH  14  18
ENDBRANCH   1  14
TORSDOF 5
ENDMDL
MODEL 3
REMARK VINA RESULT:    -8.460      1.593      2.187
REMARK INTER + INTRA:         -11.976
REMARK INTER:                 -10.972
REMARK INTRA:                  -1.004
REMARK UNBOUND:                -1.043
REMARK  Name = 
REMARK  5 active torsions:
REMARK  status: ('A' for Active; 'I' for Inactive)
REMARK    1  A    between atoms: C_2  and  C_4
REMARK    2  A    between atoms: C_7  and  O_8
REMARK    3  A    between atoms: O_8  and  C_9
REMARK    4  A    between atoms: C_9  and  C_10
REMARK    5  A    between atoms: C_14  and  C_15
REMARK                            x       y       z     vdW  Elec       q    Type
REMARK                         _______ _______ _______ _____ _____    ______ ____
ROOT
ATOM      1  C   UNL     1      43.807   3.045  11.778  0.00  0.00    +0.000 C 
ENDROOT
BRANCH   1   2
ATOM      2  C   UNL     1      44.740   4.095  12.335  0.00  0.00    +0.000 A 
ATOM      3  C   UNL     1      45.915   3.696  12.985  0.00  0.00    +0.000 A 
ATOM      4  C   UNL     1      46.833   4.642  13.427  0.00  0.00    +0.000 A 
ATOM      5  C   UNL     1      46.593   6.000  13.208  0.00  0.00    +0.000 A 
ATOM      6  C   UNL     1      45.437   6.435  12.544  0.00  0.00    +0.000 A 
ATOM      7  C   UNL     1      44.516   5.464  12.117  0.00  0.00    +0.000 A 
BRANCH   6   8
ATOM      8  C   UNL     1      45.243   7.871  12.238  0.00  0.00    +0.000 C 
ATOM      9  C   UNL     1      44.315   8.318  11.369  0.00  0.00    +0.000 C 
ATOM     10  C   UNL     1      44.118   9.774  11.057  0.00  0.00    +0.000 C 
ATOM     11  O   UNL     1      44.774  10.634  11.994  0.00  0.00    +0.000 OA
ATOM     12  C   UNL     1      46.121  10.225  12.228  0.00  0.00    +0.000 C 
ATOM     13  C   UNL     1      46.138   8.871  12.934  0.00  0.00    +0.000 C 
ENDBRANCH   6   8
ENDBRANCH   1   2
BRANCH   1  14
ATOM     14  O   UNL     1      43.420   3.348  10.436  0.00  0.00    +0.000 OA
BRANCH  14  18
ATOM     15  C   UNL     1      46.397   2.651   7.595  0.00  0.00    +0.000 A 
ATOM     16  C   UNL     1      45.920   3.955   7.754  0.00  0.00    +0.000 A 
ATOM     17  C   UNL     1      44.922   4.229   8.694  0.00  0.00    +0.000 A 
ATOM     18  C   UNL     1      44.391   3.203   9.482  0.00  0.00    +0.000 A 
ATOM     19  C   UNL     1      44.860   1.897   9.308  0.00  0.00    +0.000 A 
ATOM     20  C   UNL     1      45.853   1.618   8.365  0.00  0.00    +0.000 A 
BRANCH  15  22
ATOM     21  N   UNL     1      47.467   3.047   5.446  0.00  0.00    +0.000 N 
ATOM     22  C   UNL     1      47.458   2.326   6.608  0.00  0.00    +0.000 C 
ATOM     23  O   UNL     1      48.310   1.476   6.832  0.00  0.00    +0.000 OA
ATOM     24  H   UNL     1      48.259   2.893   4.834  0.00  0.00    +0.000 HD
ATOM     25  H   UNL     1      46.962   3.915   5.344  0.00  0.00    +0.000 HD
ENDBRANCH  15  22
ENDBRANCH  14  18
ENDBRANCH   1  14
TORSDOF 5
ENDMDL
MODEL 4
REMARK VINA RESULT:    -7.919      1.503      2.310
REMARK INTER + INTRA:         -11.276
REMARK INTER:                 -10.456
REMARK INTRA:                  -0.820
REMARK UNBOUND:                -1.043
REMARK  Name = 
REMARK  5 active torsions:
REMARK  status: ('A' for Active; 'I' for Inactive)
REMARK    1  A    between atoms: C_2  and  C_4
REMARK    2  A    between atoms: C_7  and  O_8
REMARK    3  A    between atoms: O_8  and  C_9
REMARK    4  A    between atoms: C_9  and  C_10
REMARK    5  A    between atoms: C_14  and  C_15
REMARK                            x       y       z     vdW  Elec       q    Type
REMARK                         _______ _______ _______ _____ _____    ______ ____
ROOT
ATOM      1  C   UNL     1      44.178   3.640  11.676  0.00  0.00    +0.000 C 
ENDROOT
BRANCH   1   2
ATOM      2  C   UNL     1      44.638   5.079  11.675  0.00  0.00    +0.000 A 
ATOM      3  C   UNL     1      43.713   6.097  11.407  0.00  0.00    +0.000 A 
ATOM      4  C   UNL     1      44.091   7.432  11.488  0.00  0.00    +0.000 A 
ATOM      5  C   UNL     1      45.395   7.766  11.855  0.00  0.00    +0.000 A 
ATOM      6  C   UNL     1      46.343   6.775  12.150  0.00  0.00    +0.000 A 
ATOM      7  C   UNL     1      45.946   5.431  12.050  0.00  0.00    +0.000 A 
BRANCH   6   8
ATOM      8  C   UNL     1      47.694   7.146  12.628  0.00  0.00    +0.000 C 
ATOM      9  C   UNL     1      48.126   6.893  13.879  0.00  0.00    +0.000 C 
ATOM     10  C   UNL     1      49.496   7.271  14.365  0.00  0.00    +0.000 C 
ATOM     11  O   UNL     1      50.385   7.620  13.300  0.00  0.00    +0.000 OA
ATOM     12  C   UNL     1      49.775   8.533  12.387  0.00  0.00    +0.000 C 
ATOM     13  C   UNL     1      48.620   7.848  11.660  0.00  0.00    +0.000 C 
ENDBRANCH   6   8
ENDBRANCH   1   2
BRANCH   1  14
ATOM     14  O   UNL     1      43.666   3.254  10.399  0.00  0.00    +0.000 OA
BRANCH  14  18
ATOM     15  C   UNL     1      46.509   2.600   7.415  0.00  0.00    +0.000 A 
ATOM     16  C   UNL     1      45.975   3.884   7.555  0.00  0.00    +0.000 A 
ATOM     17  C   UNL     1      45.018   4.142   8.542  0.00  0.00    +0.000 A 
ATOM     18  C   UNL     1      44.587   3.122   9.395  0.00  0.00    +0.000 A 
ATOM     19  C   UNL     1      45.113   1.836   9.240  0.00  0.00    +0.000 A 
ATOM     20  C   UNL     1      46.065   1.571   8.251  0.00  0.00    +0.000 A 
BRANCH  15  22
ATOM     21  N   UNL     1      47.453   2.991   5.206  0.00  0.00    +0.000 N 
ATOM     22  C   UNL     1      47.528   2.292   6.379  0.00  0.00    +0.000 C 
ATOM     23  O   UNL     1      48.418   1.475   6.572  0.00  0.00    +0.000 OA
ATOM     24  H   UNL     1      48.217   2.852   4.556  0.00  0.00    +0.000 HD
ATOM     25  H   UNL     1      46.914   3.840   5.116  0.00  0.00    +0.000 HD
ENDBRANCH  15  22
ENDBRANCH  14  18
ENDBRANCH   1  14
TORSDOF 5
ENDMDL
MODEL 5
REMARK VINA RESULT:    -6.648      2.658      7.038
REMARK INTER + INTRA:          -9.634
REMARK INTER:                  -8.804
REMARK INTRA:                  -0.831
REMARK UNBOUND:                -1.043
REMARK  Name = 
REMARK  5 active torsions:
REMARK  status: ('A' for Active; 'I' for Inactive)
REMARK    1  A    between atoms: C_2  and  C_4
REMARK    2  A    between atoms: C_7  and  O_8
REMARK    3  A    between atoms: O_8  and  C_9
REMARK    4  A    between atoms: C_9  and  C_10
REMARK    5  A    between atoms: C_14  and  C_15
REMARK                            x       y       z     vdW  Elec       q    Type
REMARK                         _______ _______ _______ _____ _____    ______ ____
ROOT
ATOM      1  C   UNL     1      44.308   6.350  11.013  0.00  0.00    +0.000 C 
ENDROOT
BRANCH   1   2
ATOM      2  C   UNL     1      44.412   4.892  10.632  0.00  0.00    +0.000 A 
ATOM      3  C   UNL     1      43.580   3.956  11.261  0.00  0.00    +0.000 A 
ATOM      4  C   UNL     1      43.593   2.623  10.865  0.00  0.00    +0.000 A 
ATOM      5  C   UNL     1      44.427   2.214   9.823  0.00  0.00    +0.000 A 
ATOM      6  C   UNL     1      45.259   3.127   9.157  0.00  0.00    +0.000 A 
ATOM      7  C   UNL     1      45.240   4.466   9.580  0.00  0.00    +0.000 A 
BRANCH   6   8
ATOM      8  C   UNL     1      46.066   2.695   7.994  0.00  0.00    +0.000 C 
ATOM      9  C   UNL     1      46.315   3.493   6.937  0.00  0.00    +0.000 C 
ATOM     10  C   UNL     1      47.134   3.056   5.755  0.00  0.00    +0.000 C 
ATOM     11  O   UNL     1      47.874   1.857   6.007  0.00  0.00    +0.000 OA
ATOM     12  C   UNL     1      47.055   0.851   6.603  0.00  0.00    +0.000 C 
ATOM     13  C   UNL     1      46.626   1.291   8.002  0.00  0.00    +0.000 C 
ENDBRANCH   6   8
ENDBRANCH   1   2
BRANCH   1  14
ATOM     14  O   UNL     1      44.411   6.530  12.427  0.00  0.00    +0.000 OA
BRANCH  14  18
ATOM     15  C   UNL     1      48.271   7.140  13.892  0.00  0.00    +0.000 A 
ATOM     16  C   UNL     1      47.750   5.843  13.907  0.00  0.00    +0.000 A 
ATOM     17  C   UNL     1      46.460   5.598  13.426  0.00  0.00    +0.000 A 
ATOM     18  C   UNL     1      45.679   6.646  12.929  0.00  0.00    +0.000 A 
ATOM     19  C   UNL     1      46.199   7.944  12.931  0.00  0.00    +0.000 A 
ATOM     20  C   UNL     1      47.485   8.195  13.416  0.00  0.00    +0.000 A 
BRANCH  15  22
ATOM     21  N   UNL     1      50.626   7.571  13.458  0.00  0.00    +0.000 N 
ATOM     22  C   UNL     1      49.638   7.434  14.393  0.00  0.00    +0.000 C 
ATOM     23  O   UNL     1      49.870   7.583  15.585  0.00  0.00    +0.000 OA
ATOM     24  H   UNL     1      51.526   7.881  13.805  0.00  0.00    +0.000 HD
ATOM     25  H   UNL     1      50.428   7.719  12.479  0.00  0.00    +0.000 HD
ENDBRANCH  15  22
ENDBRANCH  14  18
ENDBRANCH   1  14
TORSDOF 5
ENDMDL
MODEL 6
REMARK VINA RESULT:    -6.446      3.549      7.312
REMARK INTER + INTRA:          -9.373
REMARK INTER:                  -8.812
REMARK INTRA:                  -0.560
REMARK UNBOUND:                -1.043
REMARK  Name = 
REMARK  5 active torsions:
REMARK  status: ('A' for Active; 'I' for Inactive)
REMARK    1  A    between atoms: C_2  and  C_4
REMARK    2  A    between atoms: C_7  and  O_8
REMARK    3  A    between atoms: O_8  and  C_9
REMARK    4  A    between atoms: C_9  and  C_10
REMARK    5  A    between atoms: C_14  and  C_15
REMARK                            x       y       z     vdW  Elec       q    Type
REMARK                         _______ _______ _______ _____ _____    ______ ____
ROOT
ATOM      1  C   UNL     1      46.168   7.408  11.975  0.00  0.00    +0.000 C 
ENDROOT
BRANCH   1   2
ATOM      2  C   UNL     1      45.322   6.308  11.378  0.00  0.00    +0.000 A 
ATOM      3  C   UNL     1      43.942   6.295  11.617  0.00  0.00    +0.000 A 
ATOM      4  C   UNL     1      43.129   5.346  11.007  0.00  0.00    +0.000 A 
ATOM      5  C   UNL     1      43.687   4.409  10.135  0.00  0.00    +0.000 A 
ATOM      6  C   UNL     1      45.062   4.404   9.857  0.00  0.00    +0.000 A 
ATOM      7  C   UNL     1      45.867   5.363  10.493  0.00  0.00    +0.000 A 
BRANCH   6   8
ATOM      8  C   UNL     1      45.622   3.464   8.859  0.00  0.00    +0.000 C 
ATOM      9  C   UNL     1      45.564   2.125   8.999  0.00  0.00    +0.000 C 
ATOM     10  C   UNL     1      46.133   1.170   7.988  0.00  0.00    +0.000 C 
ATOM     11  O   UNL     1      46.441   1.802   6.742  0.00  0.00    +0.000 OA
ATOM     12  C   UNL     1      47.172   3.013   6.935  0.00  0.00    +0.000 C 
ATOM     13  C   UNL     1      46.293   4.046   7.637  0.00  0.00    +0.000 C 
ENDBRANCH   6   8
ENDBRANCH   1   2
BRANCH   1  14
ATOM     14  O   UNL     1      47.474   6.938  12.315  0.00  0.00    +0.000 OA
BRANCH  14  18
ATOM     15  C   UNL     1      48.009   5.160  16.053  0.00  0.00    +0.000 A 
ATOM     16  C   UNL     1      47.136   4.553  15.145  0.00  0.00    +0.000 A 
ATOM     17  C   UNL     1      46.928   5.120  13.884  0.00  0.00    +0.000 A 
ATOM     18  C   UNL     1      47.589   6.296  13.519  0.00  0.00    +0.000 A 
ATOM     19  C   UNL     1      48.450   6.908  14.436  0.00  0.00    +0.000 A 
ATOM     20  C   UNL     1      48.655   6.349  15.700  0.00  0.00    +0.000 A 
BRANCH  15  22
ATOM     21  N   UNL     1      47.158   4.181  18.112  0.00  0.00    +0.000 N 
ATOM     22  C   UNL     1      48.253   4.583  17.399  0.00  0.00    +0.000 C 
ATOM     23  O   UNL     1      49.385   4.440  17.844  0.00  0.00    +0.000 OA
ATOM     24  H   UNL     1      47.346   3.690  18.977  0.00  0.00    +0.000 HD
ATOM     25  H   UNL     1      46.256   4.038  17.681  0.00  0.00    +0.000 HD
ENDBRANCH  15  22
ENDBRANCH  14  18
ENDBRANCH   1  14
TORSDOF 5
ENDMDL
MODEL 7
REMARK VINA RESULT:    -6.360      5.475      8.368
REMARK INTER + INTRA:          -9.262
REMARK INTER:                  -8.516
REMARK INTRA:                  -0.745
REMARK UNBOUND:                -1.043
REMARK  Name = 
REMARK  5 active torsions:
REMARK  status: ('A' for Active; 'I' for Inactive)
REMARK    1  A    between atoms: C_2  and  C_4
REMARK    2  A    between atoms: C_7  and  O_8
REMARK    3  A    between atoms: O_8  and  C_9
REMARK    4  A    between atoms: C_9  and  C_10
REMARK    5  A    between atoms: C_14  and  C_15
REMARK                            x       y       z     vdW  Elec       q    Type
REMARK                         _______ _______ _______ _____ _____    ______ ____
ROOT
ATOM      1  C   UNL     1      47.637   4.181  16.486  0.00  0.00    +0.000 C 
ENDROOT
BRANCH   1   2
ATOM      2  C   UNL     1      47.372   4.878  15.172  0.00  0.00    +0.000 A 
ATOM      3  C   UNL     1      48.155   5.983  14.811  0.00  0.00    +0.000 A 
ATOM      4  C   UNL     1      47.992   6.587  13.569  0.00  0.00    +0.000 A 
ATOM      5  C   UNL     1      47.055   6.080  12.667  0.00  0.00    +0.000 A 
ATOM      6  C   UNL     1      46.268   4.964  12.986  0.00  0.00    +0.000 A 
ATOM      7  C   UNL     1      46.439   4.376  14.250  0.00  0.00    +0.000 A 
BRANCH   6   8
ATOM      8  C   UNL     1      45.347   4.383  11.983  0.00  0.00    +0.000 C 
ATOM      9  C   UNL     1      45.189   4.896  10.747  0.00  0.00    +0.000 C 
ATOM     10  C   UNL     1      44.254   4.308   9.729  0.00  0.00    +0.000 C 
ATOM     11  O   UNL     1      43.807   2.996  10.080  0.00  0.00    +0.000 OA
ATOM     12  C   UNL     1      43.366   2.937  11.437  0.00  0.00    +0.000 C 
ATOM     13  C   UNL     1      44.547   3.163  12.378  0.00  0.00    +0.000 C 
ENDBRANCH   6   8
ENDBRANCH   1   2
BRANCH   1  14
ATOM     14  O   UNL     1      48.727   4.782  17.187  0.00  0.00    +0.000 OA
BRANCH  14  18
ATOM     15  C   UNL     1      51.922   2.156  17.748  0.00  0.00    +0.000 A 
ATOM     16  C   UNL     1      52.134   3.520  17.969  0.00  0.00    +0.000 A 
ATOM     17  C   UNL     1      51.089   4.432  17.790  0.00  0.00    +0.000 A 
ATOM     18  C   UNL     1      49.826   3.990  17.388  0.00  0.00    +0.000 A 
ATOM     19  C   UNL     1      49.622   2.626  17.153  0.00  0.00    +0.000 A 
ATOM     20  C   UNL     1      50.666   1.712  17.324  0.00  0.00    +0.000 A 
BRANCH  15  22
ATOM     21  N   UNL     1      53.163   0.221  16.951  0.00  0.00    +0.000 N 
ATOM     22  C   UNL     1      53.009   1.161  17.931  0.00  0.00    +0.000 C 
ATOM     23  O   UNL     1      53.760   1.196  18.897  0.00  0.00    +0.000 OA
ATOM     24  H   UNL     1      53.974  -0.379  17.033  0.00  0.00    +0.000 HD
ATOM     25  H   UNL     1      52.749   0.322  16.035  0.00  0.00    +0.000 HD
ENDBRANCH  15  22
ENDBRANCH  14  18
ENDBRANCH   1  14
TORSDOF 5
ENDMDL
MODEL 8
REMARK VINA RESULT:    -6.123      4.715      8.368
REMARK INTER + INTRA:          -8.956
REMARK INTER:                  -8.235
REMARK INTRA:                  -0.721
REMARK UNBOUND:                -1.043
REMARK  Name = 
REMARK  5 active torsions:
REMARK  status: ('A' for Active; 'I' for Inactive)
REMARK    1  A    between atoms: C_2  and  C_4
REMARK    2  A    between atoms: C_7  and  O_8
REMARK    3  A    between atoms: O_8  and  C_9
REMARK    4  A    between atoms: C_9  and  C_10
REMARK    5  A    between atoms: C_14  and  C_15
REMARK                            x       y       z     vdW  Elec       q    Type
REMARK                         _______ _______ _______ _____ _____    ______ ____
ROOT
ATOM      1  C   UNL     1      48.253   7.206  13.878  0.00  0.00    +0.000 C 
ENDROOT
BRANCH   1   2
ATOM      2  C   UNL     1      47.001   7.152  13.034  0.00  0.00    +0.000 A 
ATOM      3  C   UNL     1      46.193   8.292  12.928  0.00  0.00    +0.000 A 
ATOM      4  C   UNL     1      45.086   8.296  12.087  0.00  0.00    +0.000 A 
ATOM      5  C   UNL     1      44.783   7.165  11.329  0.00  0.00    +0.000 A 
ATOM      6  C   UNL     1      45.580   6.012  11.394  0.00  0.00    +0.000 A 
ATOM      7  C   UNL     1      46.687   6.023  12.259  0.00  0.00    +0.000 A 
BRANCH   6   8
ATOM      8  C   UNL     1      45.299   4.855  10.514  0.00  0.00    +0.000 C 
ATOM      9  C   UNL     1      45.461   4.894   9.176  0.00  0.00    +0.000 C 
ATOM     10  C   UNL     1      45.176   3.721   8.282  0.00  0.00    +0.000 C 
ATOM     11  O   UNL     1      45.033   2.495   9.006  0.00  0.00    +0.000 OA
ATOM     12  C   UNL     1      44.166   2.646  10.129  0.00  0.00    +0.000 C 
ATOM     13  C   UNL     1      44.802   3.580  11.157  0.00  0.00    +0.000 C 
ENDBRANCH   6   8
ENDBRANCH   1   2
BRANCH   1  14
ATOM     14  O   UNL     1      48.569   5.924  14.426  0.00  0.00    +0.000 OA
BRANCH  14  18
ATOM     15  C   UNL     1      48.205   5.404  18.551  0.00  0.00    +0.000 A 
ATOM     16  C   UNL     1      48.975   6.471  18.080  0.00  0.00    +0.000 A 
ATOM     17  C   UNL     1      49.123   6.677  16.705  0.00  0.00    +0.000 A 
ATOM     18  C   UNL     1      48.504   5.820  15.790  0.00  0.00    +0.000 A 
ATOM     19  C   UNL     1      47.748   4.745  16.266  0.00  0.00    +0.000 A 
ATOM     20  C   UNL     1      47.602   4.531  17.640  0.00  0.00    +0.000 A 
BRANCH  15  22
ATOM     21  N   UNL     1      48.508   3.977  20.499  0.00  0.00    +0.000 N 
ATOM     22  C   UNL     1      48.026   5.157  20.005  0.00  0.00    +0.000 C 
ATOM     23  O   UNL     1      47.502   5.984  20.740  0.00  0.00    +0.000 OA
ATOM     24  H   UNL     1      48.479   3.872  21.506  0.00  0.00    +0.000 HD
ATOM     25  H   UNL     1      49.167   3.407  19.990  0.00  0.00    +0.000 HD
ENDBRANCH  15  22
ENDBRANCH  14  18
ENDBRANCH   1  14
TORSDOF 5
ENDMDL
MODEL 9
REMARK VINA RESULT:    -6.094      3.611      5.722
REMARK INTER + INTRA:          -8.919
REMARK INTER:                  -7.981
REMARK INTRA:                  -0.938
REMARK UNBOUND:                -1.043
REMARK  Name = 
REMARK  5 active torsions:
REMARK  status: ('A' for Active; 'I' for Inactive)
REMARK    1  A    between atoms: C_2  and  C_4
REMARK    2  A    between atoms: C_7  and  O_8
REMARK    3  A    between atoms: O_8  and  C_9
REMARK    4  A    between atoms: C_9  and  C_10
REMARK    5  A    between atoms: C_14  and  C_15
REMARK                            x       y       z     vdW  Elec       q    Type
REMARK                         _______ _______ _______ _____ _____    ______ ____
ROOT
ATOM      1  C   UNL     1      47.725   7.831  12.235  0.00  0.00    +0.000 C 
ENDROOT
BRANCH   1   2
ATOM      2  C   UNL     1      48.145   7.809  13.686  0.00  0.00    +0.000 A 
ATOM      3  C   UNL     1      48.308   9.020  14.373  0.00  0.00    +0.000 A 
ATOM      4  C   UNL     1      48.607   9.025  15.731  0.00  0.00    +0.000 A 
ATOM      5  C   UNL     1      48.729   7.818  16.422  0.00  0.00    +0.000 A 
ATOM      6  C   UNL     1      48.554   6.588  15.772  0.00  0.00    +0.000 A 
ATOM      7  C   UNL     1      48.265   6.603  14.397  0.00  0.00    +0.000 A 
BRANCH   6   8
ATOM      8  C   UNL     1      48.595   5.321  16.538  0.00  0.00    +0.000 C 
ATOM      9  C   UNL     1      47.595   4.418  16.517  0.00  0.00    +0.000 C 
ATOM     10  C   UNL     1      47.635   3.133  17.294  0.00  0.00    +0.000 C 
ATOM     11  O   UNL     1      48.943   2.824  17.785  0.00  0.00    +0.000 OA
ATOM     12  C   UNL     1      49.548   3.952  18.416  0.00  0.00    +0.000 C 
ATOM     13  C   UNL     1      49.817   5.044  17.383  0.00  0.00    +0.000 C 
ENDBRANCH   6   8
ENDBRANCH   1   2
BRANCH   1  14
ATOM     14  O   UNL     1      46.302   7.854  12.103  0.00  0.00    +0.000 OA
BRANCH  14  18
ATOM     15  C   UNL     1      44.514   4.161  11.343  0.00  0.00    +0.000 A 
ATOM     16  C   UNL     1      44.380   4.716  12.619  0.00  0.00    +0.000 A 
ATOM     17  C   UNL     1      44.966   5.951  12.913  0.00  0.00    +0.000 A 
ATOM     18  C   UNL     1      45.692   6.640  11.938  0.00  0.00    +0.000 A 
ATOM     19  C   UNL     1      45.837   6.074  10.668  0.00  0.00    +0.000 A 
ATOM     20  C   UNL     1      45.258   4.836  10.371  0.00  0.00    +0.000 A 
BRANCH  15  22
ATOM     21  N   UNL     1      44.432   2.182   9.929  0.00  0.00    +0.000 N 
ATOM     22  C   UNL     1      43.903   2.852  10.997  0.00  0.00    +0.000 C 
ATOM     23  O   UNL     1      42.988   2.373  11.655  0.00  0.00    +0.000 OA
ATOM     24  H   UNL     1      44.081   1.245   9.775  0.00  0.00    +0.000 HD
ATOM     25  H   UNL     1      45.336   2.411   9.541  0.00  0.00    +0.000 HD
ENDBRANCH  15  22
ENDBRANCH  14  18
ENDBRANCH   1  14
TORSDOF 5
ENDMDL
