MODEL 1
REMARK VINA RESULT:    -8.463      0.000      0.000
REMARK INTER + INTRA:         -10.213
REMARK INTER:                 -10.442
REMARK INTRA:                   0.228
REMARK UNBOUND:                 0.228
REMARK  Name = 
REMARK  4 active torsions:
REMARK  status: ('A' for Active; 'I' for Inactive)
REMARK    1  A    between atoms: C_2  and  C_4
REMARK    2  A    between atoms: N_8  and  C_9
REMARK    3  A    between atoms: C_9  and  C_10
REMARK    4  A    between atoms: C_14  and  C_15
REMARK                            x       y       z     vdW  Elec       q    Type
REMARK                         _______ _______ _______ _____ _____    ______ ____
ROOT
ATOM      1  C   UNL     1      46.605   2.429   7.564  0.00  0.00    +0.000 A 
ATOM      2  C   UNL     1      45.915   2.151   8.718  0.00  0.00    +0.000 A 
ATOM      3  N   UNL     1      45.331   3.100   9.483  0.00  0.00    +0.000 NA
ATOM      4  C   UNL     1      45.402   4.370   9.043  0.00  0.00    +0.000 A 
ATOM      5  N   UNL     1      44.794   5.399   9.750  0.00  0.00    +0.000 N 
ATOM      6  N   UNL     1      46.034   4.732   7.918  0.00  0.00    +0.000 NA
ATOM      7  C   UNL     1      46.663   3.758   7.223  0.00  0.00    +0.000 A 
ATOM      8  H   UNL     1      44.654   6.211   9.167  0.00  0.00    +0.000 HD
ENDROOT
BRANCH   1  10
ATOM      9  N   UNL     1      48.259   1.842   5.891  0.00  0.00    +0.000 N 
ATOM     10  C   UNL     1      47.280   1.417   6.746  0.00  0.00    +0.000 C 
ATOM     11  O   UNL     1      47.002   0.232   6.854  0.00  0.00    +0.000 OA
ATOM     12  H   UNL     1      48.782   1.114   5.418  0.00  0.00    +0.000 HD
ATOM     13  H   UNL     1      48.702   2.748   5.965  0.00  0.00    +0.000 HD
ENDBRANCH   1  10
BRANCH   5  14
ATOM     14  C   UNL     1      44.262   5.274  11.100  0.00  0.00    +0.000 C 
ATOM     15  C   UNL     1      42.955   4.500  11.218  0.00  0.00    +0.000 C 
ATOM     16  C   UNL     1      42.968   5.973  11.475  0.00  0.00    +0.000 C 
BRANCH  14  17
ATOM     17  C   UNL     1      45.318   5.081  12.170  0.00  0.00    +0.000 A 
ATOM     18  C   UNL     1      45.393   3.913  12.936  0.00  0.00    +0.000 A 
ATOM     19  N   UNL     1      46.262   3.689  13.951  0.00  0.00    +0.000 NA
ATOM     20  C   UNL     1      47.109   4.697  14.249  0.00  0.00    +0.000 A 
ATOM     21  C   UNL     1      47.140   5.903  13.568  0.00  0.00    +0.000 A 
ATOM     22  C   UNL     1      46.239   6.080  12.509  0.00  0.00    +0.000 A 
BRANCH  21  23
ATOM     23  C   UNL     1      48.094   6.984  13.965  0.00  0.00    +0.000 C 
ATOM     24  F   UNL     1      47.523   8.216  14.051  0.00  0.00    +0.000 F 
ATOM     25  F   UNL     1      48.670   6.754  15.176  0.00  0.00    +0.000 F 
ATOM     26  F   UNL     1      49.125   7.114  13.083  0.00  0.00    +0.000 F 
ENDBRANCH  21  23
ENDBRANCH  14  17
ENDBRANCH   5  14
TORSDOF 4
ENDMDL
MODEL 2
REMARK VINA RESULT:    -8.079      1.522      2.000
REMARK INTER + INTRA:          -9.740
REMARK INTER:                 -10.042
REMARK INTRA:                   0.302
REMARK UNBOUND:                 0.228
REMARK  Name = 
REMARK  4 active torsions:
REMARK  status: ('A' for Active; 'I' for Inactive)
REMARK    1  A    between atoms: C_2  and  C_4
REMARK    2  A    between atoms: N_8  and  C_9
REMARK    3  A    between atoms: C_9  and  C_10
REMARK    4  A    between atoms: C_14  and  C_15
REMARK                            x       y       z     vdW  Elec       q    Type
REMARK                         _______ _______ _______ _____ _____    ______ ____
ROOT
ATOM      1  C   UNL     1      46.372   2.289   7.698  0.00  0.00    +0.000 A 
ATOM      2  C   UNL     1      45.999   2.071   9.001  0.00  0.00    +0.000 A 
ATOM      3  N   UNL     1      45.311   2.970   9.739  0.00  0.00    +0.000 NA
ATOM      4  C   UNL     1      44.943   4.110   9.127  0.00  0.00    +0.000 A 
ATOM      5  N   UNL     1      44.200   5.069   9.803  0.00  0.00    +0.000 N 
ATOM      6  N   UNL     1      45.243   4.400   7.853  0.00  0.00    +0.000 NA
ATOM      7  C   UNL     1      45.991   3.501   7.176  0.00  0.00    +0.000 A 
ATOM      8  H   UNL     1      43.737   5.694   9.160  0.00  0.00    +0.000 HD
ENDROOT
BRANCH   1  10
ATOM      9  N   UNL     1      48.216   1.836   6.190  0.00  0.00    +0.000 N 
ATOM     10  C   UNL     1      47.155   1.342   6.898  0.00  0.00    +0.000 C 
ATOM     11  O   UNL     1      46.890   0.149   6.896  0.00  0.00    +0.000 OA
ATOM     12  H   UNL     1      48.803   1.148   5.732  0.00  0.00    +0.000 HD
ATOM     13  H   UNL     1      48.630   2.740   6.373  0.00  0.00    +0.000 HD
ENDBRANCH   1  10
BRANCH   5  14
ATOM     14  C   UNL     1      43.966   5.073  11.240  0.00  0.00    +0.000 C 
ATOM     15  C   UNL     1      43.050   3.970  11.757  0.00  0.00    +0.000 C 
ATOM     16  C   UNL     1      42.586   5.390  11.786  0.00  0.00    +0.000 C 
BRANCH  14  17
ATOM     17  C   UNL     1      45.178   5.455  12.067  0.00  0.00    +0.000 A 
ATOM     18  C   UNL     1      46.043   6.485  11.683  0.00  0.00    +0.000 A 
ATOM     19  N   UNL     1      47.179   6.843  12.330  0.00  0.00    +0.000 NA
ATOM     20  C   UNL     1      47.499   6.122  13.425  0.00  0.00    +0.000 A 
ATOM     21  C   UNL     1      46.729   5.079  13.912  0.00  0.00    +0.000 A 
ATOM     22  C   UNL     1      45.550   4.760  13.225  0.00  0.00    +0.000 A 
BRANCH  21  23
ATOM     23  C   UNL     1      47.155   4.310  15.122  0.00  0.00    +0.000 C 
ATOM     24  F   UNL     1      46.190   4.209  16.077  0.00  0.00    +0.000 F 
ATOM     25  F   UNL     1      47.524   3.034  14.827  0.00  0.00    +0.000 F 
ATOM     26  F   UNL     1      48.231   4.874  15.740  0.00  0.00    +0.000 F 
ENDBRANCH  21  23
ENDBRANCH  14  17
ENDBRANCH   5  14
TORSDOF 4
ENDMDL
MODEL 3
REMARK VINA RESULT:    -8.004      4.023      6.484
REMARK INTER + INTRA:          -9.647
REMARK INTER:                  -9.323
REMARK INTRA:                  -0.324
REMARK UNBOUND:                 0.228
REMARK  Name = 
REMARK  4 active torsions:
REMARK  status: ('A' for Active; 'I' for Inactive)
REMARK    1  A    between atoms: C_2  and  C_4
REMARK    2  A    between atoms: N_8  and  C_9
REMARK    3  A    between atoms: C_9  and  C_10
REMARK    4  A    between atoms: C_14  and  C_15
REMARK                            x       y       z     vdW  Elec       q    Type
REMARK                         _______ _______ _______ _____ _____    ______ ____
ROOT
ATOM      1  C   UNL     1      48.240   6.949  13.850  0.00  0.00    +0.000 A 
ATOM      2  C   UNL     1      47.492   5.798  13.810  0.00  0.00    +0.000 A 
ATOM      3  N   UNL     1      46.408   5.643  13.019  0.00  0.00    +0.000 NA
ATOM      4  C   UNL     1      46.094   6.665  12.202  0.00  0.00    +0.000 A 
ATOM      5  N   UNL     1      45.019   6.570  11.330  0.00  0.00    +0.000 N 
ATOM      6  N   UNL     1      46.779   7.816  12.157  0.00  0.00    +0.000 NA
ATOM      7  C   UNL     1      47.813   7.953  13.016  0.00  0.00    +0.000 A 
ATOM      8  H   UNL     1      45.092   7.245  10.583  0.00  0.00    +0.000 HD
ENDROOT
BRANCH   1  10
ATOM      9  N   UNL     1      50.062   8.338  14.643  0.00  0.00    +0.000 N 
ATOM     10  C   UNL     1      49.393   7.150  14.734  0.00  0.00    +0.000 C 
ATOM     11  O   UNL     1      49.718   6.298  15.548  0.00  0.00    +0.000 OA
ATOM     12  H   UNL     1      50.786   8.494  15.335  0.00  0.00    +0.000 HD
ATOM     13  H   UNL     1      49.676   9.158  14.194  0.00  0.00    +0.000 HD
ENDBRANCH   1  10
BRANCH   5  14
ATOM     14  C   UNL     1      44.008   5.522  11.373  0.00  0.00    +0.000 C 
ATOM     15  C   UNL     1      42.569   6.007  11.504  0.00  0.00    +0.000 C 
ATOM     16  C   UNL     1      43.213   5.284  12.643  0.00  0.00    +0.000 C 
BRANCH  14  17
ATOM     17  C   UNL     1      44.295   4.342  10.465  0.00  0.00    +0.000 A 
ATOM     18  C   UNL     1      43.774   3.069  10.717  0.00  0.00    +0.000 A 
ATOM     19  N   UNL     1      44.034   1.953   9.994  0.00  0.00    +0.000 NA
ATOM     20  C   UNL     1      44.887   2.095   8.957  0.00  0.00    +0.000 A 
ATOM     21  C   UNL     1      45.472   3.299   8.601  0.00  0.00    +0.000 A 
ATOM     22  C   UNL     1      45.154   4.432   9.363  0.00  0.00    +0.000 A 
BRANCH  21  23
ATOM     23  C   UNL     1      46.425   3.378   7.451  0.00  0.00    +0.000 C 
ATOM     24  F   UNL     1      45.830   3.237   6.235  0.00  0.00    +0.000 F 
ATOM     25  F   UNL     1      47.092   4.563   7.405  0.00  0.00    +0.000 F 
ATOM     26  F   UNL     1      47.386   2.414   7.507  0.00  0.00    +0.000 F 
ENDBRANCH  21  23
ENDBRANCH  14  17
ENDBRANCH   5  14
TORSDOF 4
ENDMDL
MODEL 4
REMARK VINA RESULT:    -7.963      4.236      7.000
REMARK INTER + INTRA:          -9.597
REMARK INTER:                  -9.848
REMARK INTRA:                   0.251
REMARK UNBOUND:                 0.228
REMARK  Name = 
REMARK  4 active torsions:
REMARK  status: ('A' for Active; 'I' for Inactive)
REMARK    1  A    between atoms: C_2  and  C_4
REMARK    2  A    between atoms: N_8  and  C_9
REMARK    3  A    between atoms: C_9  and  C_10
REMARK    4  A    between atoms: C_14  and  C_15
REMARK                            x       y       z     vdW  Elec       q    Type
REMARK                         _______ _______ _______ _____ _____    ______ ____
ROOT
ATOM      1  C   UNL     1      47.613   5.893  14.129  0.00  0.00    +0.000 A 
ATOM      2  C   UNL     1      46.626   6.180  13.219  0.00  0.00    +0.000 A 
ATOM      3  N   UNL     1      45.857   5.236  12.633  0.00  0.00    +0.000 NA
ATOM      4  C   UNL     1      46.057   3.961  13.013  0.00  0.00    +0.000 A 
ATOM      5  N   UNL     1      45.283   2.936  12.487  0.00  0.00    +0.000 N 
ATOM      6  N   UNL     1      46.982   3.590  13.909  0.00  0.00    +0.000 NA
ATOM      7  C   UNL     1      47.773   4.560  14.417  0.00  0.00    +0.000 A 
ATOM      8  H   UNL     1      45.317   2.114  13.072  0.00  0.00    +0.000 HD
ENDROOT
BRANCH   1  10
ATOM      9  N   UNL     1      47.929   8.111  15.057  0.00  0.00    +0.000 N 
ATOM     10  C   UNL     1      48.484   6.902  14.742  0.00  0.00    +0.000 C 
ATOM     11  O   UNL     1      49.654   6.654  14.994  0.00  0.00    +0.000 OA
ATOM     12  H   UNL     1      48.521   8.750  15.574  0.00  0.00    +0.000 HD
ATOM     13  H   UNL     1      46.931   8.262  15.120  0.00  0.00    +0.000 HD
ENDBRANCH   1  10
BRANCH   5  14
ATOM     14  C   UNL     1      44.393   3.074  11.343  0.00  0.00    +0.000 C 
ATOM     15  C   UNL     1      43.114   3.862  11.600  0.00  0.00    +0.000 C 
ATOM     16  C   UNL     1      43.038   2.391  11.346  0.00  0.00    +0.000 C 
BRANCH  14  17
ATOM     17  C   UNL     1      45.107   3.263  10.018  0.00  0.00    +0.000 A 
ATOM     18  C   UNL     1      45.148   4.501   9.369  0.00  0.00    +0.000 A 
ATOM     19  N   UNL     1      45.707   4.738   8.157  0.00  0.00    +0.000 NA
ATOM     20  C   UNL     1      46.248   3.673   7.527  0.00  0.00    +0.000 A 
ATOM     21  C   UNL     1      46.274   2.395   8.061  0.00  0.00    +0.000 A 
ATOM     22  C   UNL     1      45.706   2.203   9.328  0.00  0.00    +0.000 A 
BRANCH  21  23
ATOM     23  C   UNL     1      46.874   1.258   7.297  0.00  0.00    +0.000 C 
ATOM     24  F   UNL     1      46.492   0.032   7.748  0.00  0.00    +0.000 F 
ATOM     25  F   UNL     1      46.552   1.287   5.976  0.00  0.00    +0.000 F 
ATOM     26  F   UNL     1      48.236   1.262   7.347  0.00  0.00    +0.000 F 
ENDBRANCH  21  23
ENDBRANCH  14  17
ENDBRANCH   5  14
TORSDOF 4
ENDMDL
MODEL 5
REMARK VINA RESULT:    -7.852      1.535      2.138
REMARK INTER + INTRA:          -9.459
REMARK INTER:                  -9.016
REMARK INTRA:                  -0.443
REMARK UNBOUND:                 0.228
REMARK  Name = 
REMARK  4 active torsions:
REMARK  status: ('A' for Active; 'I' for Inactive)
REMARK    1  A    between atoms: C_2  and  C_4
REMARK    2  A    between atoms: N_8  and  C_9
REMARK    3  A    between atoms: C_9  and  C_10
REMARK    4  A    between atoms: C_14  and  C_15
REMARK                            x       y       z     vdW  Elec       q    Type
REMARK                         _______ _______ _______ _____ _____    ______ ____
ROOT
ATOM      1  C   UNL     1      46.571   2.825   7.288  0.00  0.00    +0.000 A 
ATOM      2  C   UNL     1      46.397   4.017   7.948  0.00  0.00    +0.000 A 
ATOM      3  N   UNL     1      45.777   4.123   9.144  0.00  0.00    +0.000 NA
ATOM      4  C   UNL     1      45.360   2.981   9.720  0.00  0.00    +0.000 A 
ATOM      5  N   UNL     1      44.749   3.000  10.966  0.00  0.00    +0.000 N 
ATOM      6  N   UNL     1      45.506   1.771   9.162  0.00  0.00    +0.000 NA
ATOM      7  C   UNL     1      46.069   1.722   7.934  0.00  0.00    +0.000 A 
ATOM      8  H   UNL     1      44.780   2.090  11.403  0.00  0.00    +0.000 HD
ENDROOT
BRANCH   1  10
ATOM      9  N   UNL     1      48.545   2.437   5.935  0.00  0.00    +0.000 N 
ATOM     10  C   UNL     1      47.203   2.699   5.971  0.00  0.00    +0.000 C 
ATOM     11  O   UNL     1      46.545   2.789   4.946  0.00  0.00    +0.000 OA
ATOM     12  H   UNL     1      48.935   2.249   5.019  0.00  0.00    +0.000 HD
ATOM     13  H   UNL     1      49.062   2.091   6.731  0.00  0.00    +0.000 HD
ENDBRANCH   1  10
BRANCH   5  14
ATOM     14  C   UNL     1      44.282   4.202  11.642  0.00  0.00    +0.000 C 
ATOM     15  C   UNL     1      42.933   4.078  12.340  0.00  0.00    +0.000 C 
ATOM     16  C   UNL     1      43.060   4.939  11.125  0.00  0.00    +0.000 C 
BRANCH  14  17
ATOM     17  C   UNL     1      45.378   5.000  12.319  0.00  0.00    +0.000 A 
ATOM     18  C   UNL     1      46.367   4.391  13.097  0.00  0.00    +0.000 A 
ATOM     19  N   UNL     1      47.339   5.037  13.786  0.00  0.00    +0.000 NA
ATOM     20  C   UNL     1      47.325   6.385  13.721  0.00  0.00    +0.000 A 
ATOM     21  C   UNL     1      46.402   7.111  12.987  0.00  0.00    +0.000 A 
ATOM     22  C   UNL     1      45.430   6.399  12.270  0.00  0.00    +0.000 A 
BRANCH  21  23
ATOM     23  C   UNL     1      46.435   8.606  12.976  0.00  0.00    +0.000 C 
ATOM     24  F   UNL     1      47.106   9.147  14.030  0.00  0.00    +0.000 F 
ATOM     25  F   UNL     1      47.027   9.108  11.859  0.00  0.00    +0.000 F 
ATOM     26  F   UNL     1      45.187   9.152  13.012  0.00  0.00    +0.000 F 
ENDBRANCH  21  23
ENDBRANCH  14  17
ENDBRANCH   5  14
TORSDOF 4
ENDMDL
MODEL 6
REMARK VINA RESULT:    -6.751      5.433      8.368
REMARK INTER + INTRA:          -8.102
REMARK INTER:                  -7.871
REMARK INTRA:                  -0.232
REMARK UNBOUND:                 0.228
REMARK  Name = 
REMARK  4 active torsions:
REMARK  status: ('A' for Active; 'I' for Inactive)
REMARK    1  A    between atoms: C_2  and  C_4
REMARK    2  A    between atoms: N_8  and  C_9
REMARK    3  A    between atoms: C_9  and  C_10
REMARK    4  A    between atoms: C_14  and  C_15
REMARK                            x       y       z     vdW  Elec       q    Type
REMARK                         _______ _______ _______ _____ _____    ______ ____
ROOT
ATOM      1  C   UNL     1      52.175   1.682  17.622  0.00  0.00    +0.000 A 
ATOM      2  C   UNL     1      50.943   1.533  17.034  0.00  0.00    +0.000 A 
ATOM      3  N   UNL     1      50.029   2.526  16.958  0.00  0.00    +0.000 NA
ATOM      4  C   UNL     1      50.388   3.726  17.448  0.00  0.00    +0.000 A 
ATOM      5  N   UNL     1      49.522   4.809  17.374  0.00  0.00    +0.000 N 
ATOM      6  N   UNL     1      51.576   3.971  18.019  0.00  0.00    +0.000 NA
ATOM      7  C   UNL     1      52.430   2.930  18.135  0.00  0.00    +0.000 A 
ATOM      8  H   UNL     1      50.018   5.682  17.479  0.00  0.00    +0.000 HD
ENDROOT
BRANCH   1  10
ATOM      9  N   UNL     1      52.820  -0.478  18.515  0.00  0.00    +0.000 N 
ATOM     10  C   UNL     1      53.160   0.603  17.749  0.00  0.00    +0.000 C 
ATOM     11  O   UNL     1      54.230   0.654  17.162  0.00  0.00    +0.000 OA
ATOM     12  H   UNL     1      53.471  -1.254  18.501  0.00  0.00    +0.000 HD
ATOM     13  H   UNL     1      51.869  -0.686  18.787  0.00  0.00    +0.000 HD
ENDBRANCH   1  10
BRANCH   5  14
ATOM     14  C   UNL     1      48.114   4.720  17.015  0.00  0.00    +0.000 C 
ATOM     15  C   UNL     1      47.133   5.115  18.112  0.00  0.00    +0.000 C 
ATOM     16  C   UNL     1      47.223   3.687  17.681  0.00  0.00    +0.000 C 
BRANCH  14  17
ATOM     17  C   UNL     1      47.809   5.129  15.588  0.00  0.00    +0.000 A 
ATOM     18  C   UNL     1      48.366   6.273  15.009  0.00  0.00    +0.000 A 
ATOM     19  N   UNL     1      48.095   6.741  13.766  0.00  0.00    +0.000 NA
ATOM     20  C   UNL     1      47.192   6.042  13.045  0.00  0.00    +0.000 A 
ATOM     21  C   UNL     1      46.568   4.892  13.501  0.00  0.00    +0.000 A 
ATOM     22  C   UNL     1      46.899   4.432  14.783  0.00  0.00    +0.000 A 
BRANCH  21  23
ATOM     23  C   UNL     1      45.563   4.179  12.654  0.00  0.00    +0.000 C 
ATOM     24  F   UNL     1      45.793   2.842  12.538  0.00  0.00    +0.000 F 
ATOM     25  F   UNL     1      44.295   4.299  13.135  0.00  0.00    +0.000 F 
ATOM     26  F   UNL     1      45.524   4.660  11.380  0.00  0.00    +0.000 F 
ENDBRANCH  21  23
ENDBRANCH  14  17
ENDBRANCH   5  14
TORSDOF 4
ENDMDL
MODEL 7
REMARK VINA RESULT:    -6.563      3.576      5.494
REMARK INTER + INTRA:          -7.869
REMARK INTER:                  -7.832
REMARK INTRA:                  -0.037
REMARK UNBOUND:                 0.228
REMARK  Name = 
REMARK  4 active torsions:
REMARK  status: ('A' for Active; 'I' for Inactive)
REMARK    1  A    between atoms: C_2  and  C_4
REMARK    2  A    between atoms: N_8  and  C_9
REMARK    3  A    between atoms: C_9  and  C_10
REMARK    4  A    between atoms: C_14  and  C_15
REMARK                            x       y       z     vdW  Elec       q    Type
REMARK                         _______ _______ _______ _____ _____    ______ ____
ROOT
ATOM      1  C   UNL     1      44.618   5.140  11.404  0.00  0.00    +0.000 A 
ATOM      2  C   UNL     1      45.799   4.697  11.946  0.00  0.00    +0.000 A 
ATOM      3  N   UNL     1      46.608   5.473  12.702  0.00  0.00    +0.000 NA
ATOM      4  C   UNL     1      46.188   6.724  12.961  0.00  0.00    +0.000 A 
ATOM      5  N   UNL     1      46.942   7.572  13.762  0.00  0.00    +0.000 N 
ATOM      6  N   UNL     1      45.040   7.235  12.494  0.00  0.00    +0.000 NA
ATOM      7  C   UNL     1      44.298   6.445  11.686  0.00  0.00    +0.000 A 
ATOM      8  H   UNL     1      46.381   8.329  14.123  0.00  0.00    +0.000 HD
ENDROOT
BRANCH   1  10
ATOM      9  N   UNL     1      43.849   4.501   9.195  0.00  0.00    +0.000 N 
ATOM     10  C   UNL     1      43.751   4.324  10.547  0.00  0.00    +0.000 C 
ATOM     11  O   UNL     1      42.995   3.492  11.026  0.00  0.00    +0.000 OA
ATOM     12  H   UNL     1      43.319   3.854   8.623  0.00  0.00    +0.000 HD
ATOM     13  H   UNL     1      44.631   4.965   8.753  0.00  0.00    +0.000 HD
ENDBRANCH   1  10
BRANCH   5  14
ATOM     14  C   UNL     1      48.313   7.316  14.178  0.00  0.00    +0.000 C 
ATOM     15  C   UNL     1      49.323   8.394  13.802  0.00  0.00    +0.000 C 
ATOM     16  C   UNL     1      49.388   7.056  13.138  0.00  0.00    +0.000 C 
BRANCH  14  17
ATOM     17  C   UNL     1      48.438   6.646  15.532  0.00  0.00    +0.000 A 
ATOM     18  C   UNL     1      48.937   7.321  16.650  0.00  0.00    +0.000 A 
ATOM     19  N   UNL     1      49.140   6.778  17.875  0.00  0.00    +0.000 NA
ATOM     20  C   UNL     1      48.849   5.466  18.005  0.00  0.00    +0.000 A 
ATOM     21  C   UNL     1      48.348   4.683  16.977  0.00  0.00    +0.000 A 
ATOM     22  C   UNL     1      48.131   5.295  15.735  0.00  0.00    +0.000 A 
BRANCH  21  23
ATOM     23  C   UNL     1      48.066   3.230  17.188  0.00  0.00    +0.000 C 
ATOM     24  F   UNL     1      46.745   2.943  17.342  0.00  0.00    +0.000 F 
ATOM     25  F   UNL     1      48.498   2.458  16.153  0.00  0.00    +0.000 F 
ATOM     26  F   UNL     1      48.683   2.739  18.299  0.00  0.00    +0.000 F 
ENDBRANCH  21  23
ENDBRANCH  14  17
ENDBRANCH   5  14
TORSDOF 4
ENDMDL
MODEL 8
REMARK VINA RESULT:    -6.475      4.342      6.737
REMARK INTER + INTRA:          -7.761
REMARK INTER:                  -7.819
REMARK INTRA:                   0.058
REMARK UNBOUND:                 0.228
REMARK  Name = 
REMARK  4 active torsions:
REMARK  status: ('A' for Active; 'I' for Inactive)
REMARK    1  A    between atoms: C_2  and  C_4
REMARK    2  A    between atoms: N_8  and  C_9
REMARK    3  A    between atoms: C_9  and  C_10
REMARK    4  A    between atoms: C_14  and  C_15
REMARK                            x       y       z     vdW  Elec       q    Type
REMARK                         _______ _______ _______ _____ _____    ______ ____
ROOT
ATOM      1  C   UNL     1      46.099   5.581  12.315  0.00  0.00    +0.000 A 
ATOM      2  C   UNL     1      47.204   5.993  13.018  0.00  0.00    +0.000 A 
ATOM      3  N   UNL     1      47.548   5.491  14.225  0.00  0.00    +0.000 NA
ATOM      4  C   UNL     1      46.778   4.504  14.719  0.00  0.00    +0.000 A 
ATOM      5  N   UNL     1      47.085   3.908  15.935  0.00  0.00    +0.000 N 
ATOM      6  N   UNL     1      45.694   4.024  14.094  0.00  0.00    +0.000 NA
ATOM      7  C   UNL     1      45.350   4.604  12.922  0.00  0.00    +0.000 A 
ATOM      8  H   UNL     1      46.637   3.008  16.025  0.00  0.00    +0.000 HD
ENDROOT
BRANCH   1  10
ATOM      9  N   UNL     1      44.931   7.283  11.043  0.00  0.00    +0.000 N 
ATOM     10  C   UNL     1      45.689   6.145  11.025  0.00  0.00    +0.000 C 
ATOM     11  O   UNL     1      46.046   5.636   9.973  0.00  0.00    +0.000 OA
ATOM     12  H   UNL     1      44.751   7.711  10.142  0.00  0.00    +0.000 HD
ATOM     13  H   UNL     1      44.846   7.878  11.856  0.00  0.00    +0.000 HD
ENDBRANCH   1  10
BRANCH   5  14
ATOM     14  C   UNL     1      48.063   4.420  16.884  0.00  0.00    +0.000 C 
ATOM     15  C   UNL     1      47.482   5.073  18.133  0.00  0.00    +0.000 C 
ATOM     16  C   UNL     1      48.186   5.915  17.118  0.00  0.00    +0.000 C 
BRANCH  14  17
ATOM     17  C   UNL     1      49.303   3.560  17.025  0.00  0.00    +0.000 A 
ATOM     18  C   UNL     1      49.317   2.212  16.651  0.00  0.00    +0.000 A 
ATOM     19  N   UNL     1      50.360   1.361  16.805  0.00  0.00    +0.000 NA
ATOM     20  C   UNL     1      51.467   1.868  17.389  0.00  0.00    +0.000 A 
ATOM     21  C   UNL     1      51.583   3.185  17.805  0.00  0.00    +0.000 A 
ATOM     22  C   UNL     1      50.487   4.034  17.603  0.00  0.00    +0.000 A 
BRANCH  21  23
ATOM     23  C   UNL     1      52.834   3.673  18.463  0.00  0.00    +0.000 C 
ATOM     24  F   UNL     1      53.342   4.805  17.905  0.00  0.00    +0.000 F 
ATOM     25  F   UNL     1      52.655   3.955  19.782  0.00  0.00    +0.000 F 
ATOM     26  F   UNL     1      53.838   2.753  18.414  0.00  0.00    +0.000 F 
ENDBRANCH  21  23
ENDBRANCH  14  17
ENDBRANCH   5  14
TORSDOF 4
ENDMDL
MODEL 9
REMARK VINA RESULT:    -6.437      4.776      7.038
REMARK INTER + INTRA:          -7.714
REMARK INTER:                  -7.425
REMARK INTRA:                  -0.289
REMARK UNBOUND:                 0.228
REMARK  Name = 
REMARK  4 active torsions:
REMARK  status: ('A' for Active; 'I' for Inactive)
REMARK    1  A    between atoms: C_2  and  C_4
REMARK    2  A    between atoms: N_8  and  C_9
REMARK    3  A    between atoms: C_9  and  C_10
REMARK    4  A    between atoms: C_14  and  C_15
REMARK                            x       y       z     vdW  Elec       q    Type
REMARK                         _______ _______ _______ _____ _____    ______ ____
ROOT
ATOM      1  C   UNL     1      50.157   7.425  14.751  0.00  0.00    +0.000 A 
ATOM      2  C   UNL     1      48.870   7.005  14.981  0.00  0.00    +0.000 A 
ATOM      3  N   UNL     1      47.909   6.998  14.030  0.00  0.00    +0.000 NA
ATOM      4  C   UNL     1      48.270   7.381  12.792  0.00  0.00    +0.000 A 
ATOM      5  N   UNL     1      47.352   7.366  11.751  0.00  0.00    +0.000 N 
ATOM      6  N   UNL     1      49.507   7.786  12.471  0.00  0.00    +0.000 NA
ATOM      7  C   UNL     1      50.416   7.842  13.469  0.00  0.00    +0.000 A 
ATOM      8  H   UNL     1      47.816   7.365  10.854  0.00  0.00    +0.000 HD
ENDROOT
BRANCH   1  10
ATOM      9  N   UNL     1      52.442   7.011  15.451  0.00  0.00    +0.000 N 
ATOM     10  C   UNL     1      51.200   7.478  15.781  0.00  0.00    +0.000 C 
ATOM     11  O   UNL     1      50.973   7.958  16.882  0.00  0.00    +0.000 OA
ATOM     12  H   UNL     1      53.169   7.157  16.142  0.00  0.00    +0.000 HD
ATOM     13  H   UNL     1      52.742   6.865  14.497  0.00  0.00    +0.000 HD
ENDBRANCH   1  10
BRANCH   5  14
ATOM     14  C   UNL     1      45.916   7.192  11.916  0.00  0.00    +0.000 C 
ATOM     15  C   UNL     1      45.052   8.314  11.353  0.00  0.00    +0.000 C 
ATOM     16  C   UNL     1      45.138   8.117  12.832  0.00  0.00    +0.000 C 
BRANCH  14  17
ATOM     17  C   UNL     1      45.440   5.761  11.755  0.00  0.00    +0.000 A 
ATOM     18  C   UNL     1      45.167   4.943  12.856  0.00  0.00    +0.000 A 
ATOM     19  N   UNL     1      44.802   3.639  12.798  0.00  0.00    +0.000 NA
ATOM     20  C   UNL     1      44.718   3.093  11.566  0.00  0.00    +0.000 A 
ATOM     21  C   UNL     1      44.961   3.794  10.396  0.00  0.00    +0.000 A 
ATOM     22  C   UNL     1      45.312   5.146  10.504  0.00  0.00    +0.000 A 
BRANCH  21  23
ATOM     23  C   UNL     1      44.868   3.118   9.065  0.00  0.00    +0.000 C 
ATOM     24  F   UNL     1      46.077   2.836   8.507  0.00  0.00    +0.000 F 
ATOM     25  F   UNL     1      44.198   1.935   9.124  0.00  0.00    +0.000 F 
ATOM     26  F   UNL     1      44.204   3.874   8.146  0.00  0.00    +0.000 F 
ENDBRANCH  21  23
ENDBRANCH  14  17
ENDBRANCH   5  14
TORSDOF 4
ENDMDL
