MODEL 1
REMARK VINA RESULT:    -7.920      0.000      0.000
REMARK INTER + INTRA:         -11.813
REMARK INTER:                 -10.698
REMARK INTRA:                  -1.114
REMARK UNBOUND:                -1.114
REMARK  Name = 
REMARK  7 active torsions:
REMARK  status: ('A' for Active; 'I' for Inactive)
REMARK    1  A    between atoms: C_1  and  C_2
REMARK    2  A    between atoms: C_5  and  O_6
REMARK    3  A    between atoms: O_6  and  C_7
REMARK    4  A    between atoms: C_7  and  C_8
REMARK    5  A    between atoms: C_11  and  C_12
REMARK    6  A    between atoms: C_12  and  N_13
REMARK    7  A    between atoms: C_14  and  C_16
REMARK                            x       y       z     vdW  Elec       q    Type
REMARK                         _______ _______ _______ _____ _____    ______ ____
ROOT
ATOM      1  C   UNL     1      44.714   5.450  11.698  0.00  0.00    +0.000 A 
ATOM      2  C   UNL     1      45.190   4.674  12.765  0.00  0.00    +0.000 A 
ATOM      3  C   UNL     1      46.401   4.987  13.398  0.00  0.00    +0.000 A 
ATOM      4  C   UNL     1      47.156   6.096  12.996  0.00  0.00    +0.000 A 
ATOM      5  C   UNL     1      46.683   6.870  11.926  0.00  0.00    +0.000 A 
ATOM      6  C   UNL     1      45.472   6.557  11.292  0.00  0.00    +0.000 A 
ENDROOT
BRANCH   1   7
ATOM      7  C   UNL     1      43.445   5.060  10.965  0.00  0.00    +0.000 C 
BRANCH   7   8
ATOM      8  O   UNL     1      43.670   4.876   9.567  0.00  0.00    +0.000 OA
BRANCH   8  13
ATOM      9  C   UNL     1      47.025   0.843   7.456  0.00  0.00    +0.000 C 
ATOM     10  C   UNL     1      46.162   1.921   8.040  0.00  0.00    +0.000 A 
ATOM     11  C   UNL     1      46.160   3.210   7.528  0.00  0.00    +0.000 A 
ATOM     12  C   UNL     1      45.299   4.158   8.094  0.00  0.00    +0.000 A 
ATOM     13  C   UNL     1      44.448   3.821   9.155  0.00  0.00    +0.000 A 
ATOM     14  C   UNL     1      44.533   2.500   9.596  0.00  0.00    +0.000 A 
ATOM     15 CL   UNL     1      43.633   1.790  10.884  0.00  0.00    +0.000 Cl
ATOM     16  N   UNL     1      45.360   1.561   9.063  0.00  0.00    +0.000 NA
ENDBRANCH   8  13
ENDBRANCH   7   8
ENDBRANCH   1   7
BRANCH   4  17
ATOM     17  C   UNL     1      48.372   6.523  13.779  0.00  0.00    +0.000 C 
BRANCH  17  18
ATOM     18  N   UNL     1      48.196   6.723  15.200  0.00  0.00    +0.000 N 
ATOM     19  C   UNL     1      49.343   6.814  15.969  0.00  0.00    +0.000 C 
ATOM     20  O   UNL     1      50.455   6.715  15.452  0.00  0.00    +0.000 OA
ATOM     21  H   UNL     1      47.287   6.979  15.575  0.00  0.00    +0.000 HD
BRANCH  19  22
ATOM     22  C   UNL     1      49.226   6.980  17.424  0.00  0.00    +0.000 A 
ATOM     23  C   UNL     1      49.755   8.118  18.025  0.00  0.00    +0.000 A 
ATOM     24  S   UNL     1      49.712   8.080  19.727  0.00  0.00    +0.000 S 
ATOM     25  C   UNL     1      49.097   6.498  19.711  0.00  0.00    +0.000 A 
ATOM     26  N   UNL     1      49.047   5.748  20.851  0.00  0.00    +0.000 NA
ATOM     27  C   UNL     1      48.639   4.542  20.663  0.00  0.00    +0.000 A 
ATOM     28  N   UNL     1      48.168   4.043  19.473  0.00  0.00    +0.000 N 
ATOM     29  C   UNL     1      48.071   4.813  18.337  0.00  0.00    +0.000 A 
ATOM     30  O   UNL     1      47.462   4.436  17.341  0.00  0.00    +0.000 OA
ATOM     31  C   UNL     1      48.734   6.093  18.441  0.00  0.00    +0.000 A 
ATOM     32  H   UNL     1      47.763   3.122  19.428  0.00  0.00    +0.000 HD
ENDBRANCH  19  22
ENDBRANCH  17  18
ENDBRANCH   4  17
TORSDOF 6
ENDMDL
MODEL 2
REMARK VINA RESULT:    -7.556      1.915      1.994
REMARK INTER + INTRA:         -11.321
REMARK INTER:                 -10.245
REMARK INTRA:                  -1.077
REMARK UNBOUND:                -1.114
REMARK  Name = 
REMARK  7 active torsions:
REMARK  status: ('A' for Active; 'I' for Inactive)
REMARK    1  A    between atoms: C_1  and  C_2
REMARK    2  A    between atoms: C_5  and  O_6
REMARK    3  A    between atoms: O_6  and  C_7
REMARK    4  A    between atoms: C_7  and  C_8
REMARK    5  A    between atoms: C_11  and  C_12
REMARK    6  A    between atoms: C_12  and  N_13
REMARK    7  A    between atoms: C_14  and  C_16
REMARK                            x       y       z     vdW  Elec       q    Type
REMARK                         _______ _______ _______ _____ _____    ______ ____
ROOT
ATOM      1  C   UNL     1      44.568   6.113  12.102  0.00  0.00    +0.000 A 
ATOM      2  C   UNL     1      45.378   5.375  12.977  0.00  0.00    +0.000 A 
ATOM      3  C   UNL     1      46.587   5.899  13.452  0.00  0.00    +0.000 A 
ATOM      4  C   UNL     1      47.008   7.183  13.083  0.00  0.00    +0.000 A 
ATOM      5  C   UNL     1      46.201   7.920  12.205  0.00  0.00    +0.000 A 
ATOM      6  C   UNL     1      44.990   7.396  11.728  0.00  0.00    +0.000 A 
ENDROOT
BRANCH   1   7
ATOM      7  C   UNL     1      43.300   5.509  11.527  0.00  0.00    +0.000 C 
BRANCH   7   8
ATOM      8  O   UNL     1      43.409   5.273  10.124  0.00  0.00    +0.000 OA
BRANCH   8  13
ATOM      9  C   UNL     1      46.489   1.081   7.904  0.00  0.00    +0.000 C 
ATOM     10  C   UNL     1      45.701   2.201   8.514  0.00  0.00    +0.000 A 
ATOM     11  C   UNL     1      45.700   3.475   7.966  0.00  0.00    +0.000 A 
ATOM     12  C   UNL     1      44.909   4.464   8.563  0.00  0.00    +0.000 A 
ATOM     13  C   UNL     1      44.125   4.184   9.690  0.00  0.00    +0.000 A 
ATOM     14  C   UNL     1      44.203   2.873  10.163  0.00  0.00    +0.000 A 
ATOM     15 CL   UNL     1      43.375   2.227  11.530  0.00  0.00    +0.000 Cl
ATOM     16  N   UNL     1      44.963   1.894   9.601  0.00  0.00    +0.000 NA
ENDBRANCH   8  13
ENDBRANCH   7   8
ENDBRANCH   1   7
BRANCH   4  17
ATOM     17  C   UNL     1      48.225   7.805  13.720  0.00  0.00    +0.000 C 
BRANCH  17  18
ATOM     18  N   UNL     1      49.109   6.919  14.443  0.00  0.00    +0.000 N 
ATOM     19  C   UNL     1      49.105   7.015  15.823  0.00  0.00    +0.000 C 
ATOM     20  O   UNL     1      48.383   7.832  16.394  0.00  0.00    +0.000 OA
ATOM     21  H   UNL     1      49.557   6.139  13.970  0.00  0.00    +0.000 HD
BRANCH  19  22
ATOM     22  C   UNL     1      50.011   6.166  16.610  0.00  0.00    +0.000 A 
ATOM     23  C   UNL     1      51.281   6.636  16.928  0.00  0.00    +0.000 A 
ATOM     24  S   UNL     1      52.278   5.473  17.674  0.00  0.00    +0.000 S 
ATOM     25  C   UNL     1      51.085   4.280  17.485  0.00  0.00    +0.000 A 
ATOM     26  N   UNL     1      51.368   2.961  17.693  0.00  0.00    +0.000 NA
ATOM     27  C   UNL     1      50.388   2.169  17.425  0.00  0.00    +0.000 A 
ATOM     28  N   UNL     1      49.121   2.570  17.080  0.00  0.00    +0.000 N 
ATOM     29  C   UNL     1      48.762   3.896  16.999  0.00  0.00    +0.000 A 
ATOM     30  O   UNL     1      47.593   4.253  16.899  0.00  0.00    +0.000 OA
ATOM     31  C   UNL     1      49.882   4.809  17.059  0.00  0.00    +0.000 A 
ATOM     32  H   UNL     1      48.376   1.897  16.992  0.00  0.00    +0.000 HD
ENDBRANCH  19  22
ENDBRANCH  17  18
ENDBRANCH   4  17
TORSDOF 6
ENDMDL
MODEL 3
REMARK VINA RESULT:    -7.433      1.841      2.647
REMARK INTER + INTRA:         -11.155
REMARK INTER:                 -10.149
REMARK INTRA:                  -1.006
REMARK UNBOUND:                -1.114
REMARK  Name = 
REMARK  7 active torsions:
REMARK  status: ('A' for Active; 'I' for Inactive)
REMARK    1  A    between atoms: C_1  and  C_2
REMARK    2  A    between atoms: C_5  and  O_6
REMARK    3  A    between atoms: O_6  and  C_7
REMARK    4  A    between atoms: C_7  and  C_8
REMARK    5  A    between atoms: C_11  and  C_12
REMARK    6  A    between atoms: C_12  and  N_13
REMARK    7  A    between atoms: C_14  and  C_16
REMARK                            x       y       z     vdW  Elec       q    Type
REMARK                         _______ _______ _______ _____ _____    ______ ____
ROOT
ATOM      1  C   UNL     1      44.557   5.846  12.197  0.00  0.00    +0.000 A 
ATOM      2  C   UNL     1      45.117   5.001  13.166  0.00  0.00    +0.000 A 
ATOM      3  C   UNL     1      46.404   5.238  13.669  0.00  0.00    +0.000 A 
ATOM      4  C   UNL     1      47.154   6.338  13.234  0.00  0.00    +0.000 A 
ATOM      5  C   UNL     1      46.596   7.181  12.262  0.00  0.00    +0.000 A 
ATOM      6  C   UNL     1      45.309   6.944  11.757  0.00  0.00    +0.000 A 
ENDROOT
BRANCH   1   7
ATOM      7  C   UNL     1      43.197   5.539  11.597  0.00  0.00    +0.000 C 
BRANCH   7   8
ATOM      8  O   UNL     1      43.277   5.283  10.195  0.00  0.00    +0.000 OA
BRANCH   8  13
ATOM      9  C   UNL     1      46.417   1.139   7.971  0.00  0.00    +0.000 C 
ATOM     10  C   UNL     1      45.613   2.247   8.583  0.00  0.00    +0.000 A 
ATOM     11  C   UNL     1      45.597   3.522   8.038  0.00  0.00    +0.000 A 
ATOM     12  C   UNL     1      44.791   4.499   8.636  0.00  0.00    +0.000 A 
ATOM     13  C   UNL     1      44.008   4.205   9.760  0.00  0.00    +0.000 A 
ATOM     14  C   UNL     1      44.102   2.894  10.230  0.00  0.00    +0.000 A 
ATOM     15 CL   UNL     1      43.280   2.233  11.593  0.00  0.00    +0.000 Cl
ATOM     16  N   UNL     1      44.876   1.927   9.667  0.00  0.00    +0.000 NA
ENDBRANCH   8  13
ENDBRANCH   7   8
ENDBRANCH   1   7
BRANCH   4  17
ATOM     17  C   UNL     1      48.467   6.680  13.891  0.00  0.00    +0.000 C 
BRANCH  17  18
ATOM     18  N   UNL     1      48.403   7.385  15.152  0.00  0.00    +0.000 N 
ATOM     19  C   UNL     1      48.837   6.705  16.276  0.00  0.00    +0.000 C 
ATOM     20  O   UNL     1      49.248   5.548  16.190  0.00  0.00    +0.000 OA
ATOM     21  H   UNL     1      48.232   8.387  15.174  0.00  0.00    +0.000 HD
BRANCH  19  22
ATOM     22  C   UNL     1      48.761   7.358  17.590  0.00  0.00    +0.000 A 
ATOM     23  C   UNL     1      48.855   6.584  18.742  0.00  0.00    +0.000 A 
ATOM     24  S   UNL     1      48.560   7.450  20.179  0.00  0.00    +0.000 S 
ATOM     25  C   UNL     1      48.182   8.851  19.297  0.00  0.00    +0.000 A 
ATOM     26  N   UNL     1      47.598   9.927  19.900  0.00  0.00    +0.000 NA
ATOM     27  C   UNL     1      47.292  10.877  19.086  0.00  0.00    +0.000 A 
ATOM     28  N   UNL     1      47.613  10.908  17.751  0.00  0.00    +0.000 N 
ATOM     29  C   UNL     1      48.326   9.902  17.140  0.00  0.00    +0.000 A 
ATOM     30  O   UNL     1      48.792  10.023  16.012  0.00  0.00    +0.000 OA
ATOM     31  C   UNL     1      48.481   8.718  17.955  0.00  0.00    +0.000 A 
ATOM     32  H   UNL     1      47.437  11.734  17.201  0.00  0.00    +0.000 HD
ENDBRANCH  19  22
ENDBRANCH  17  18
ENDBRANCH   4  17
TORSDOF 6
ENDMDL
MODEL 4
REMARK VINA RESULT:    -7.370      2.023      2.372
REMARK INTER + INTRA:         -11.070
REMARK INTER:                  -9.645
REMARK INTRA:                  -1.424
REMARK UNBOUND:                -1.114
REMARK  Name = 
REMARK  7 active torsions:
REMARK  status: ('A' for Active; 'I' for Inactive)
REMARK    1  A    between atoms: C_1  and  C_2
REMARK    2  A    between atoms: C_5  and  O_6
REMARK    3  A    between atoms: O_6  and  C_7
REMARK    4  A    between atoms: C_7  and  C_8
REMARK    5  A    between atoms: C_11  and  C_12
REMARK    6  A    between atoms: C_12  and  N_13
REMARK    7  A    between atoms: C_14  and  C_16
REMARK                            x       y       z     vdW  Elec       q    Type
REMARK                         _______ _______ _______ _____ _____    ______ ____
ROOT
ATOM      1  C   UNL     1      44.629   4.403  12.282  0.00  0.00    +0.000 A 
ATOM      2  C   UNL     1      44.149   5.721  12.266  0.00  0.00    +0.000 A 
ATOM      3  C   UNL     1      44.935   6.778  12.745  0.00  0.00    +0.000 A 
ATOM      4  C   UNL     1      46.229   6.549  13.230  0.00  0.00    +0.000 A 
ATOM      5  C   UNL     1      46.707   5.231  13.250  0.00  0.00    +0.000 A 
ATOM      6  C   UNL     1      45.921   4.172  12.772  0.00  0.00    +0.000 A 
ENDROOT
BRANCH   1   7
ATOM      7  C   UNL     1      43.744   3.253  11.837  0.00  0.00    +0.000 C 
BRANCH   7   8
ATOM      8  O   UNL     1      43.480   3.293  10.435  0.00  0.00    +0.000 OA
BRANCH   8  13
ATOM      9  C   UNL     1      47.554   1.550   6.923  0.00  0.00    +0.000 C 
ATOM     10  C   UNL     1      46.452   2.018   7.824  0.00  0.00    +0.000 A 
ATOM     11  C   UNL     1      45.530   1.136   8.368  0.00  0.00    +0.000 A 
ATOM     12  C   UNL     1      44.552   1.634   9.236  0.00  0.00    +0.000 A 
ATOM     13  C   UNL     1      44.497   2.996   9.561  0.00  0.00    +0.000 A 
ATOM     14  C   UNL     1      45.467   3.797   8.956  0.00  0.00    +0.000 A 
ATOM     15 CL   UNL     1      45.651   5.500   9.143  0.00  0.00    +0.000 Cl
ATOM     16  N   UNL     1      46.428   3.336   8.110  0.00  0.00    +0.000 NA
ENDBRANCH   8  13
ENDBRANCH   7   8
ENDBRANCH   1   7
BRANCH   4  17
ATOM     17  C   UNL     1      47.128   7.703  13.594  0.00  0.00    +0.000 C 
BRANCH  17  18
ATOM     18  N   UNL     1      47.992   7.523  14.738  0.00  0.00    +0.000 N 
ATOM     19  C   UNL     1      49.332   7.291  14.486  0.00  0.00    +0.000 C 
ATOM     20  O   UNL     1      49.752   7.232  13.330  0.00  0.00    +0.000 OA
ATOM     21  H   UNL     1      47.663   7.751  15.673  0.00  0.00    +0.000 HD
BRANCH  19  22
ATOM     22  C   UNL     1      50.251   7.063  15.610  0.00  0.00    +0.000 A 
ATOM     23  C   UNL     1      51.436   7.789  15.679  0.00  0.00    +0.000 A 
ATOM     24  S   UNL     1      52.480   7.284  16.926  0.00  0.00    +0.000 S 
ATOM     25  C   UNL     1      51.435   6.008  17.331  0.00  0.00    +0.000 A 
ATOM     26  N   UNL     1      51.833   5.011  18.174  0.00  0.00    +0.000 NA
ATOM     27  C   UNL     1      50.964   4.072  18.316  0.00  0.00    +0.000 A 
ATOM     28  N   UNL     1      49.696   4.083  17.790  0.00  0.00    +0.000 N 
ATOM     29  C   UNL     1      49.212   5.138  17.051  0.00  0.00    +0.000 A 
ATOM     30  O   UNL     1      48.025   5.245  16.763  0.00  0.00    +0.000 OA
ATOM     31  C   UNL     1      50.224   6.099  16.673  0.00  0.00    +0.000 A 
ATOM     32  H   UNL     1      49.033   3.364  18.034  0.00  0.00    +0.000 HD
ENDBRANCH  19  22
ENDBRANCH  17  18
ENDBRANCH   4  17
TORSDOF 6
ENDMDL
MODEL 5
REMARK VINA RESULT:    -7.268      3.713      8.567
REMARK INTER + INTRA:         -10.932
REMARK INTER:                  -9.456
REMARK INTRA:                  -1.476
REMARK UNBOUND:                -1.114
REMARK  Name = 
REMARK  7 active torsions:
REMARK  status: ('A' for Active; 'I' for Inactive)
REMARK    1  A    between atoms: C_1  and  C_2
REMARK    2  A    between atoms: C_5  and  O_6
REMARK    3  A    between atoms: O_6  and  C_7
REMARK    4  A    between atoms: C_7  and  C_8
REMARK    5  A    between atoms: C_11  and  C_12
REMARK    6  A    between atoms: C_12  and  N_13
REMARK    7  A    between atoms: C_14  and  C_16
REMARK                            x       y       z     vdW  Elec       q    Type
REMARK                         _______ _______ _______ _____ _____    ______ ____
ROOT
ATOM      1  C   UNL     1      50.034   7.960  16.254  0.00  0.00    +0.000 A 
ATOM      2  C   UNL     1      50.686   7.583  15.071  0.00  0.00    +0.000 A 
ATOM      3  C   UNL     1      50.037   7.675  13.832  0.00  0.00    +0.000 A 
ATOM      4  C   UNL     1      48.729   8.168  13.741  0.00  0.00    +0.000 A 
ATOM      5  C   UNL     1      48.076   8.542  14.924  0.00  0.00    +0.000 A 
ATOM      6  C   UNL     1      48.724   8.450  16.164  0.00  0.00    +0.000 A 
ENDROOT
BRANCH   1   7
ATOM      7  C   UNL     1      50.712   7.783  17.600  0.00  0.00    +0.000 C 
BRANCH   7   8
ATOM      8  O   UNL     1      50.077   6.777  18.389  0.00  0.00    +0.000 OA
BRANCH   8  13
ATOM      9  C   UNL     1      51.350   1.395  17.212  0.00  0.00    +0.000 C 
ATOM     10  C   UNL     1      50.995   2.810  17.555  0.00  0.00    +0.000 A 
ATOM     11  C   UNL     1      51.847   3.617  18.295  0.00  0.00    +0.000 A 
ATOM     12  C   UNL     1      51.473   4.942  18.544  0.00  0.00    +0.000 A 
ATOM     13  C   UNL     1      50.264   5.458  18.056  0.00  0.00    +0.000 A 
ATOM     14  C   UNL     1      49.480   4.562  17.329  0.00  0.00    +0.000 A 
ATOM     15 CL   UNL     1      47.945   4.888  16.617  0.00  0.00    +0.000 Cl
ATOM     16  N   UNL     1      49.822   3.270  17.073  0.00  0.00    +0.000 NA
ENDBRANCH   8  13
ENDBRANCH   7   8
ENDBRANCH   1   7
BRANCH   4  17
ATOM     17  C   UNL     1      48.094   8.416  12.396  0.00  0.00    +0.000 C 
BRANCH  17  18
ATOM     18  N   UNL     1      47.660   7.254  11.654  0.00  0.00    +0.000 N 
ATOM     19  C   UNL     1      46.325   6.904  11.755  0.00  0.00    +0.000 C 
ATOM     20  O   UNL     1      45.557   7.559  12.459  0.00  0.00    +0.000 OA
ATOM     21  H   UNL     1      48.262   6.841  10.946  0.00  0.00    +0.000 HD
BRANCH  19  22
ATOM     22  C   UNL     1      45.835   5.710  11.052  0.00  0.00    +0.000 A 
ATOM     23  C   UNL     1      45.889   5.667   9.663  0.00  0.00    +0.000 A 
ATOM     24  S   UNL     1      45.116   4.309   8.986  0.00  0.00    +0.000 S 
ATOM     25  C   UNL     1      44.585   3.805  10.519  0.00  0.00    +0.000 A 
ATOM     26  N   UNL     1      43.649   2.821  10.652  0.00  0.00    +0.000 NA
ATOM     27  C   UNL     1      43.285   2.611  11.869  0.00  0.00    +0.000 A 
ATOM     28  N   UNL     1      43.843   3.205  12.975  0.00  0.00    +0.000 N 
ATOM     29  C   UNL     1      44.886   4.097  12.886  0.00  0.00    +0.000 A 
ATOM     30  O   UNL     1      45.520   4.464  13.870  0.00  0.00    +0.000 OA
ATOM     31  C   UNL     1      45.165   4.537  11.537  0.00  0.00    +0.000 A 
ATOM     32  H   UNL     1      43.582   2.909  13.902  0.00  0.00    +0.000 HD
ENDBRANCH  19  22
ENDBRANCH  17  18
ENDBRANCH   4  17
TORSDOF 6
ENDMDL
MODEL 6
REMARK VINA RESULT:    -7.054      5.605     10.080
REMARK INTER + INTRA:         -10.642
REMARK INTER:                  -9.939
REMARK INTRA:                  -0.703
REMARK UNBOUND:                -1.114
REMARK  Name = 
REMARK  7 active torsions:
REMARK  status: ('A' for Active; 'I' for Inactive)
REMARK    1  A    between atoms: C_1  and  C_2
REMARK    2  A    between atoms: C_5  and  O_6
REMARK    3  A    between atoms: O_6  and  C_7
REMARK    4  A    between atoms: C_7  and  C_8
REMARK    5  A    between atoms: C_11  and  C_12
REMARK    6  A    between atoms: C_12  and  N_13
REMARK    7  A    between atoms: C_14  and  C_16
REMARK                            x       y       z     vdW  Elec       q    Type
REMARK                         _______ _______ _______ _____ _____    ______ ____
ROOT
ATOM      1  C   UNL     1      51.497   3.653  17.774  0.00  0.00    +0.000 A 
ATOM      2  C   UNL     1      50.727   4.825  17.752  0.00  0.00    +0.000 A 
ATOM      3  C   UNL     1      49.381   4.795  17.361  0.00  0.00    +0.000 A 
ATOM      4  C   UNL     1      48.764   3.589  17.004  0.00  0.00    +0.000 A 
ATOM      5  C   UNL     1      49.534   2.417  17.022  0.00  0.00    +0.000 A 
ATOM      6  C   UNL     1      50.881   2.447  17.412  0.00  0.00    +0.000 A 
ENDROOT
BRANCH   1   7
ATOM      7  C   UNL     1      52.973   3.704  18.120  0.00  0.00    +0.000 C 
BRANCH   7   8
ATOM      8  O   UNL     1      53.708   2.659  17.484  0.00  0.00    +0.000 OA
BRANCH   8  13
ATOM      9  C   UNL     1      55.367  -1.966  20.283  0.00  0.00    +0.000 C 
ATOM     10  C   UNL     1      54.961  -0.738  19.524  0.00  0.00    +0.000 A 
ATOM     11  C   UNL     1      54.329  -0.819  18.292  0.00  0.00    +0.000 A 
ATOM     12  C   UNL     1      53.939   0.366  17.657  0.00  0.00    +0.000 A 
ATOM     13  C   UNL     1      54.172   1.616  18.248  0.00  0.00    +0.000 A 
ATOM     14  C   UNL     1      54.817   1.584  19.484  0.00  0.00    +0.000 A 
ATOM     15 CL   UNL     1      55.254   2.945  20.448  0.00  0.00    +0.000 Cl
ATOM     16  N   UNL     1      55.206   0.446  20.122  0.00  0.00    +0.000 NA
ENDBRANCH   8  13
ENDBRANCH   7   8
ENDBRANCH   1   7
BRANCH   4  17
ATOM     17  C   UNL     1      47.281   3.534  16.740  0.00  0.00    +0.000 C 
BRANCH  17  18
ATOM     18  N   UNL     1      46.756   4.463  15.765  0.00  0.00    +0.000 N 
ATOM     19  C   UNL     1      46.803   4.076  14.437  0.00  0.00    +0.000 C 
ATOM     20  O   UNL     1      47.284   2.990  14.117  0.00  0.00    +0.000 OA
ATOM     21  H   UNL     1      46.207   5.266  16.062  0.00  0.00    +0.000 HD
BRANCH  19  22
ATOM     22  C   UNL     1      46.317   4.996  13.399  0.00  0.00    +0.000 A 
ATOM     23  C   UNL     1      47.032   6.158  13.130  0.00  0.00    +0.000 A 
ATOM     24  S   UNL     1      46.249   7.210  12.042  0.00  0.00    +0.000 S 
ATOM     25  C   UNL     1      44.885   6.200  11.993  0.00  0.00    +0.000 A 
ATOM     26  N   UNL     1      43.715   6.622  11.431  0.00  0.00    +0.000 NA
ATOM     27  C   UNL     1      42.748   5.780  11.547  0.00  0.00    +0.000 A 
ATOM     28  N   UNL     1      42.862   4.514  12.068  0.00  0.00    +0.000 N 
ATOM     29  C   UNL     1      44.059   4.004  12.516  0.00  0.00    +0.000 A 
ATOM     30  O   UNL     1      44.205   2.816  12.782  0.00  0.00    +0.000 OA
ATOM     31  C   UNL     1      45.111   4.990  12.621  0.00  0.00    +0.000 A 
ATOM     32  H   UNL     1      42.086   3.872  12.026  0.00  0.00    +0.000 HD
ENDBRANCH  19  22
ENDBRANCH  17  18
ENDBRANCH   4  17
TORSDOF 6
ENDMDL
MODEL 7
REMARK VINA RESULT:    -7.029      3.280      8.873
REMARK INTER + INTRA:         -10.608
REMARK INTER:                  -9.218
REMARK INTRA:                  -1.391
REMARK UNBOUND:                -1.114
REMARK  Name = 
REMARK  7 active torsions:
REMARK  status: ('A' for Active; 'I' for Inactive)
REMARK    1  A    between atoms: C_1  and  C_2
REMARK    2  A    between atoms: C_5  and  O_6
REMARK    3  A    between atoms: O_6  and  C_7
REMARK    4  A    between atoms: C_7  and  C_8
REMARK    5  A    between atoms: C_11  and  C_12
REMARK    6  A    between atoms: C_12  and  N_13
REMARK    7  A    between atoms: C_14  and  C_16
REMARK                            x       y       z     vdW  Elec       q    Type
REMARK                         _______ _______ _______ _____ _____    ______ ____
ROOT
ATOM      1  C   UNL     1      49.619   7.910  15.698  0.00  0.00    +0.000 A 
ATOM      2  C   UNL     1      48.326   8.417  15.506  0.00  0.00    +0.000 A 
ATOM      3  C   UNL     1      47.743   8.437  14.231  0.00  0.00    +0.000 A 
ATOM      4  C   UNL     1      48.429   7.931  13.120  0.00  0.00    +0.000 A 
ATOM      5  C   UNL     1      49.724   7.427  13.310  0.00  0.00    +0.000 A 
ATOM      6  C   UNL     1      50.308   7.407  14.585  0.00  0.00    +0.000 A 
ENDROOT
BRANCH   1   7
ATOM      7  C   UNL     1      50.276   7.964  17.065  0.00  0.00    +0.000 C 
BRANCH   7   8
ATOM      8  O   UNL     1      49.717   7.007  17.964  0.00  0.00    +0.000 OA
BRANCH   8  13
ATOM      9  C   UNL     1      51.337   1.625  17.344  0.00  0.00    +0.000 C 
ATOM     10  C   UNL     1      50.891   3.042  17.541  0.00  0.00    +0.000 A 
ATOM     11  C   UNL     1      51.682   3.971  18.200  0.00  0.00    +0.000 A 
ATOM     12  C   UNL     1      51.223   5.289  18.311  0.00  0.00    +0.000 A 
ATOM     13  C   UNL     1      49.991   5.675  17.767  0.00  0.00    +0.000 A 
ATOM     14  C   UNL     1      49.272   4.663  17.130  0.00  0.00    +0.000 A 
ATOM     15 CL   UNL     1      47.728   4.818  16.380  0.00  0.00    +0.000 Cl
ATOM     16  N   UNL     1      49.698   3.376  17.008  0.00  0.00    +0.000 NA
ENDBRANCH   8  13
ENDBRANCH   7   8
ENDBRANCH   1   7
BRANCH   4  17
ATOM     17  C   UNL     1      47.741   7.807  11.784  0.00  0.00    +0.000 C 
BRANCH  17  18
ATOM     18  N   UNL     1      47.025   6.578  11.529  0.00  0.00    +0.000 N 
ATOM     19  C   UNL     1      45.643   6.635  11.565  0.00  0.00    +0.000 C 
ATOM     20  O   UNL     1      45.065   7.692  11.815  0.00  0.00    +0.000 OA
ATOM     21  H   UNL     1      47.510   5.767  11.152  0.00  0.00    +0.000 HD
BRANCH  19  22
ATOM     22  C   UNL     1      44.863   5.408  11.350  0.00  0.00    +0.000 A 
ATOM     23  C   UNL     1      43.998   4.967  12.347  0.00  0.00    +0.000 A 
ATOM     24  S   UNL     1      43.310   3.440  12.034  0.00  0.00    +0.000 S 
ATOM     25  C   UNL     1      44.237   3.274  10.621  0.00  0.00    +0.000 A 
ATOM     26  N   UNL     1      44.325   2.076   9.973  0.00  0.00    +0.000 NA
ATOM     27  C   UNL     1      45.133   2.085   8.970  0.00  0.00    +0.000 A 
ATOM     28  N   UNL     1      45.774   3.197   8.482  0.00  0.00    +0.000 N 
ATOM     29  C   UNL     1      45.597   4.449   9.026  0.00  0.00    +0.000 A 
ATOM     30  O   UNL     1      45.997   5.466   8.469  0.00  0.00    +0.000 OA
ATOM     31  C   UNL     1      44.891   4.444  10.287  0.00  0.00    +0.000 A 
ATOM     32  H   UNL     1      46.304   3.149   7.627  0.00  0.00    +0.000 HD
ENDBRANCH  19  22
ENDBRANCH  17  18
ENDBRANCH   4  17
TORSDOF 6
ENDMDL
MODEL 8
REMARK VINA RESULT:    -6.585      5.384      7.480
REMARK INTER + INTRA:         -10.009
REMARK INTER:                  -8.866
REMARK INTRA:                  -1.143
REMARK UNBOUND:                -1.114
REMARK  Name = 
REMARK  7 active torsions:
REMARK  status: ('A' for Active; 'I' for Inactive)
REMARK    1  A    between atoms: C_1  and  C_2
REMARK    2  A    between atoms: C_5  and  O_6
REMARK    3  A    between atoms: O_6  and  C_7
REMARK    4  A    between atoms: C_7  and  C_8
REMARK    5  A    between atoms: C_11  and  C_12
REMARK    6  A    between atoms: C_12  and  N_13
REMARK    7  A    between atoms: C_14  and  C_16
REMARK                            x       y       z     vdW  Elec       q    Type
REMARK                         _______ _______ _______ _____ _____    ______ ____
ROOT
ATOM      1  C   UNL     1      46.317   6.797  12.692  0.00  0.00    +0.000 A 
ATOM      2  C   UNL     1      47.335   5.946  13.145  0.00  0.00    +0.000 A 
ATOM      3  C   UNL     1      48.683   6.245  12.904  0.00  0.00    +0.000 A 
ATOM      4  C   UNL     1      49.050   7.414  12.225  0.00  0.00    +0.000 A 
ATOM      5  C   UNL     1      48.032   8.263  11.768  0.00  0.00    +0.000 A 
ATOM      6  C   UNL     1      46.683   7.965  12.008  0.00  0.00    +0.000 A 
ENDROOT
BRANCH   1   7
ATOM      7  C   UNL     1      44.858   6.429  12.884  0.00  0.00    +0.000 C 
BRANCH   7   8
ATOM      8  O   UNL     1      44.200   6.186  11.641  0.00  0.00    +0.000 OA
BRANCH   8  13
ATOM      9  C   UNL     1      45.723   1.889   8.294  0.00  0.00    +0.000 C 
ATOM     10  C   UNL     1      45.352   3.025   9.200  0.00  0.00    +0.000 A 
ATOM     11  C   UNL     1      45.635   4.343   8.870  0.00  0.00    +0.000 A 
ATOM     12  C   UNL     1      45.223   5.358   9.741  0.00  0.00    +0.000 A 
ATOM     13  C   UNL     1      44.532   5.062  10.925  0.00  0.00    +0.000 A 
ATOM     14  C   UNL     1      44.304   3.706  11.162  0.00  0.00    +0.000 A 
ATOM     15 CL   UNL     1      43.501   3.026  12.528  0.00  0.00    +0.000 Cl
ATOM     16  N   UNL     1      44.693   2.701  10.331  0.00  0.00    +0.000 NA
ENDBRANCH   8  13
ENDBRANCH   7   8
ENDBRANCH   1   7
BRANCH   4  17
ATOM     17  C   UNL     1      50.499   7.812  12.109  0.00  0.00    +0.000 C 
BRANCH  17  18
ATOM     18  N   UNL     1      51.149   7.552  10.844  0.00  0.00    +0.000 N 
ATOM     19  C   UNL     1      52.127   8.444  10.444  0.00  0.00    +0.000 C 
ATOM     20  O   UNL     1      52.411   9.418  11.140  0.00  0.00    +0.000 OA
ATOM     21  H   UNL     1      51.028   6.657  10.378  0.00  0.00    +0.000 HD
BRANCH  19  22
ATOM     22  C   UNL     1      52.796   8.251   9.149  0.00  0.00    +0.000 A 
ATOM     23  C   UNL     1      52.881   9.318   8.260  0.00  0.00    +0.000 A 
ATOM     24  S   UNL     1      53.511   8.893   6.736  0.00  0.00    +0.000 S 
ATOM     25  C   UNL     1      53.576   7.256   7.180  0.00  0.00    +0.000 A 
ATOM     26  N   UNL     1      53.798   6.281   6.250  0.00  0.00    +0.000 NA
ATOM     27  C   UNL     1      53.731   5.086   6.723  0.00  0.00    +0.000 A 
ATOM     28  N   UNL     1      53.577   4.769   8.051  0.00  0.00    +0.000 N 
ATOM     29  C   UNL     1      53.492   5.728   9.034  0.00  0.00    +0.000 A 
ATOM     30  O   UNL     1      53.566   5.451  10.226  0.00  0.00    +0.000 OA
ATOM     31  C   UNL     1      53.326   7.071   8.526  0.00  0.00    +0.000 A 
ATOM     32  H   UNL     1      53.645   3.812   8.361  0.00  0.00    +0.000 HD
ENDBRANCH  19  22
ENDBRANCH  17  18
ENDBRANCH   4  17
TORSDOF 6
ENDMDL
MODEL 9
REMARK VINA RESULT:    -6.270      4.284      8.367
REMARK INTER + INTRA:          -9.584
REMARK INTER:                  -8.140
REMARK INTRA:                  -1.444
REMARK UNBOUND:                -1.114
REMARK  Name = 
REMARK  7 active torsions:
REMARK  status: ('A' for Active; 'I' for Inactive)
REMARK    1  A    between atoms: C_1  and  C_2
REMARK    2  A    between atoms: C_5  and  O_6
REMARK    3  A    between atoms: O_6  and  C_7
REMARK    4  A    between atoms: C_7  and  C_8
REMARK    5  A    between atoms: C_11  and  C_12
REMARK    6  A    between atoms: C_12  and  N_13
REMARK    7  A    between atoms: C_14  and  C_16
REMARK                            x       y       z     vdW  Elec       q    Type
REMARK                         _______ _______ _______ _____ _____    ______ ____
ROOT
ATOM      1  C   UNL     1      49.588   7.539  19.325  0.00  0.00    +0.000 A 
ATOM      2  C   UNL     1      48.252   7.709  18.932  0.00  0.00    +0.000 A 
ATOM      3  C   UNL     1      47.923   8.499  17.822  0.00  0.00    +0.000 A 
ATOM      4  C   UNL     1      48.922   9.121  17.062  0.00  0.00    +0.000 A 
ATOM      5  C   UNL     1      50.257   8.955  17.456  0.00  0.00    +0.000 A 
ATOM      6  C   UNL     1      50.587   8.165  18.567  0.00  0.00    +0.000 A 
ENDROOT
BRANCH   1   7
ATOM      7  C   UNL     1      49.932   6.750  20.574  0.00  0.00    +0.000 C 
BRANCH   7   8
ATOM      8  O   UNL     1      50.631   5.544  20.267  0.00  0.00    +0.000 OA
BRANCH   8  13
ATOM      9  C   UNL     1      48.444   2.183  16.279  0.00  0.00    +0.000 C 
ATOM     10  C   UNL     1      49.005   3.103  17.322  0.00  0.00    +0.000 A 
ATOM     11  C   UNL     1      48.375   3.293  18.543  0.00  0.00    +0.000 A 
ATOM     12  C   UNL     1      48.976   4.133  19.487  0.00  0.00    +0.000 A 
ATOM     13  C   UNL     1      50.193   4.773  19.218  0.00  0.00    +0.000 A 
ATOM     14  C   UNL     1      50.739   4.517  17.959  0.00  0.00    +0.000 A 
ATOM     15 CL   UNL     1      52.208   5.163  17.330  0.00  0.00    +0.000 Cl
ATOM     16  N   UNL     1      50.175   3.705  17.025  0.00  0.00    +0.000 NA
ENDBRANCH   8  13
ENDBRANCH   7   8
ENDBRANCH   1   7
BRANCH   4  17
ATOM     17  C   UNL     1      48.578   9.835  15.780  0.00  0.00    +0.000 C 
BRANCH  17  18
ATOM     18  N   UNL     1      47.497   9.284  14.994  0.00  0.00    +0.000 N 
ATOM     19  C   UNL     1      47.836   8.390  13.995  0.00  0.00    +0.000 C 
ATOM     20  O   UNL     1      49.013   8.094  13.790  0.00  0.00    +0.000 OA
ATOM     21  H   UNL     1      46.532   9.401  15.293  0.00  0.00    +0.000 HD
BRANCH  19  22
ATOM     22  C   UNL     1      46.781   7.826  13.140  0.00  0.00    +0.000 A 
ATOM     23  C   UNL     1      46.044   8.673  12.319  0.00  0.00    +0.000 A 
ATOM     24  S   UNL     1      44.740   7.908  11.535  0.00  0.00    +0.000 S 
ATOM     25  C   UNL     1      45.051   6.457  12.361  0.00  0.00    +0.000 A 
ATOM     26  N   UNL     1      44.151   5.431  12.345  0.00  0.00    +0.000 NA
ATOM     27  C   UNL     1      44.487   4.433  13.087  0.00  0.00    +0.000 A 
ATOM     28  N   UNL     1      45.682   4.311  13.752  0.00  0.00    +0.000 N 
ATOM     29  C   UNL     1      46.671   5.264  13.676  0.00  0.00    +0.000 A 
ATOM     30  O   UNL     1      47.807   5.063  14.091  0.00  0.00    +0.000 OA
ATOM     31  C   UNL     1      46.246   6.497  13.052  0.00  0.00    +0.000 A 
ATOM     32  H   UNL     1      45.920   3.453  14.225  0.00  0.00    +0.000 HD
ENDBRANCH  19  22
ENDBRANCH  17  18
ENDBRANCH   4  17
TORSDOF 6
ENDMDL
