MODEL 1
REMARK VINA RESULT:    -7.108      0.000      0.000
REMARK INTER + INTRA:         -10.414
REMARK INTER:                  -9.393
REMARK INTRA:                  -1.021
REMARK UNBOUND:                -1.021
REMARK  Name = 
REMARK  6 active torsions:
REMARK  status: ('A' for Active; 'I' for Inactive)
REMARK    1  A    between atoms: C_2  and  C_19
REMARK    2  A    between atoms: N_3  and  C_4
REMARK    3  A    between atoms: C_4  and  C_5
REMARK    4  A    between atoms: C_8  and  C_9
REMARK    5  A    between atoms: C_9  and  C_10
REMARK    6  A    between atoms: C_13  and  O_14
REMARK                            x       y       z     vdW  Elec       q    Type
REMARK                         _______ _______ _______ _____ _____    ______ ____
ROOT
ATOM      1  C   UNL     1      49.231   6.021  17.442  0.00  0.00    +0.000 C 
ENDROOT
BRANCH   1   2
ATOM      2  C   UNL     1      48.399   5.649  16.237  0.00  0.00    +0.000 A 
ATOM      3  N   UNL     1      48.572   6.432  15.134  0.00  0.00    +0.000 NA
ATOM      4  C   UNL     1      47.851   6.138  14.028  0.00  0.00    +0.000 A 
ATOM      5  C   UNL     1      46.944   5.088  13.942  0.00  0.00    +0.000 A 
ATOM      6  C   UNL     1      46.797   4.282  15.072  0.00  0.00    +0.000 A 
ATOM      7  C   UNL     1      47.529   4.557  16.232  0.00  0.00    +0.000 A 
ATOM      8 CL   UNL     1      47.312   3.519  17.591  0.00  0.00    +0.000 Cl
BRANCH   5   9
ATOM      9  C   UNL     1      46.205   4.811  12.658  0.00  0.00    +0.000 C 
BRANCH   9  10
ATOM     10  C   UNL     1      44.767   4.282  12.829  0.00  0.00    +0.000 C 
ATOM     11  C   UNL     1      43.702   5.394  12.887  0.00  0.00    +0.000 C 
ATOM     12  C   UNL     1      42.677   5.072  11.800  0.00  0.00    +0.000 C 
ATOM     13  C   UNL     1      43.456   4.262  10.776  0.00  0.00    +0.000 C 
ATOM     14  C   UNL     1      44.358   3.391  11.640  0.00  0.00    +0.000 C 
BRANCH  13  15
ATOM     15  O   UNL     1      44.241   5.095   9.932  0.00  0.00    +0.000 OA
ATOM     16  H   UNL     1      43.886   5.062   9.029  0.00  0.00    +0.000 HD
ENDBRANCH  13  15
ENDBRANCH   9  10
ENDBRANCH   5   9
ENDBRANCH   1   2
BRANCH   1  19
ATOM     17  O   UNL     1      51.872   6.142  16.586  0.00  0.00    +0.000 OA
ATOM     18  C   UNL     1      51.543   5.217  17.325  0.00  0.00    +0.000 C 
ATOM     19  N   UNL     1      50.251   5.041  17.744  0.00  0.00    +0.000 N 
ATOM     20  H   UNL     1      50.033   4.333  18.438  0.00  0.00    +0.000 HD
BRANCH  18  21
ATOM     21  C   UNL     1      52.521   4.223  17.785  0.00  0.00    +0.000 A 
ATOM     22  C   UNL     1      53.724   4.637  18.339  0.00  0.00    +0.000 A 
ATOM     23  S   UNL     1      54.718   3.349  18.850  0.00  0.00    +0.000 S 
ATOM     24  C   UNL     1      53.555   2.195  18.389  0.00  0.00    +0.000 A 
ATOM     25  N   UNL     1      53.756   0.868  18.606  0.00  0.00    +0.000 NA
ATOM     26  C   UNL     1      52.769   0.112  18.257  0.00  0.00    +0.000 A 
ATOM     27  N   UNL     1      51.604   0.563  17.694  0.00  0.00    +0.000 N 
ATOM     28  C   UNL     1      51.388   1.883  17.381  0.00  0.00    +0.000 A 
ATOM     29  O   UNL     1      50.397   2.235  16.751  0.00  0.00    +0.000 OA
ATOM     30  C   UNL     1      52.443   2.783  17.812  0.00  0.00    +0.000 A 
ATOM     31  H   UNL     1      50.883  -0.085  17.410  0.00  0.00    +0.000 HD
ENDBRANCH  18  21
ENDBRANCH   1  19
TORSDOF 6
ENDMDL
MODEL 2
REMARK VINA RESULT:    -7.053      3.438      9.356
REMARK INTER + INTRA:         -10.342
REMARK INTER:                  -9.711
REMARK INTRA:                  -0.631
REMARK UNBOUND:                -1.021
REMARK  Name = 
REMARK  6 active torsions:
REMARK  status: ('A' for Active; 'I' for Inactive)
REMARK    1  A    between atoms: C_2  and  C_19
REMARK    2  A    between atoms: N_3  and  C_4
REMARK    3  A    between atoms: C_4  and  C_5
REMARK    4  A    between atoms: C_8  and  C_9
REMARK    5  A    between atoms: C_9  and  C_10
REMARK    6  A    between atoms: C_13  and  O_14
REMARK                            x       y       z     vdW  Elec       q    Type
REMARK                         _______ _______ _______ _____ _____    ______ ____
ROOT
ATOM      1  C   UNL     1      47.194   3.271  16.794  0.00  0.00    +0.000 C 
ENDROOT
BRANCH   1   2
ATOM      2  C   UNL     1      48.651   3.246  17.192  0.00  0.00    +0.000 A 
ATOM      3  N   UNL     1      49.388   2.222  16.675  0.00  0.00    +0.000 NA
ATOM      4  C   UNL     1      50.700   2.157  17.001  0.00  0.00    +0.000 A 
ATOM      5  C   UNL     1      51.346   3.068  17.829  0.00  0.00    +0.000 A 
ATOM      6  C   UNL     1      50.582   4.123  18.329  0.00  0.00    +0.000 A 
ATOM      7  C   UNL     1      49.224   4.221  18.011  0.00  0.00    +0.000 A 
ATOM      8 CL   UNL     1      48.336   5.553  18.651  0.00  0.00    +0.000 Cl
BRANCH   5   9
ATOM      9  C   UNL     1      52.820   2.939  18.114  0.00  0.00    +0.000 C 
BRANCH   9  10
ATOM     10  C   UNL     1      53.541   1.808  17.354  0.00  0.00    +0.000 C 
ATOM     11  C   UNL     1      55.046   2.062  17.148  0.00  0.00    +0.000 C 
ATOM     12  C   UNL     1      55.775   0.849  17.726  0.00  0.00    +0.000 C 
ATOM     13  C   UNL     1      54.822   0.303  18.778  0.00  0.00    +0.000 C 
ATOM     14  C   UNL     1      53.456   0.477  18.129  0.00  0.00    +0.000 C 
BRANCH  13  15
ATOM     15  O   UNL     1      54.890   1.048  19.987  0.00  0.00    +0.000 OA
ATOM     16  H   UNL     1      54.180   1.711  19.996  0.00  0.00    +0.000 HD
ENDBRANCH  13  15
ENDBRANCH   9  10
ENDBRANCH   5   9
ENDBRANCH   1   2
BRANCH   1  19
ATOM     17  O   UNL     1      47.214   3.034  14.026  0.00  0.00    +0.000 OA
ATOM     18  C   UNL     1      46.865   4.106  14.513  0.00  0.00    +0.000 C 
ATOM     19  N   UNL     1      46.884   4.334  15.864  0.00  0.00    +0.000 N 
ATOM     20  H   UNL     1      46.489   5.189  16.241  0.00  0.00    +0.000 HD
BRANCH  18  21
ATOM     21  C   UNL     1      46.424   5.222  13.667  0.00  0.00    +0.000 A 
ATOM     22  C   UNL     1      47.280   6.284  13.415  0.00  0.00    +0.000 A 
ATOM     23  S   UNL     1      46.611   7.468  12.386  0.00  0.00    +0.000 S 
ATOM     24  C   UNL     1      45.172   6.579  12.205  0.00  0.00    +0.000 A 
ATOM     25  N   UNL     1      44.174   7.014  11.390  0.00  0.00    +0.000 NA
ATOM     26  C   UNL     1      43.164   6.214  11.306  0.00  0.00    +0.000 A 
ATOM     27  N   UNL     1      43.054   5.025  11.978  0.00  0.00    +0.000 N 
ATOM     28  C   UNL     1      43.997   4.584  12.874  0.00  0.00    +0.000 A 
ATOM     29  O   UNL     1      43.805   3.588  13.564  0.00  0.00    +0.000 OA
ATOM     30  C   UNL     1      45.183   5.418  12.957  0.00  0.00    +0.000 A 
ATOM     31  H   UNL     1      42.220   4.462  11.897  0.00  0.00    +0.000 HD
ENDBRANCH  18  21
ENDBRANCH   1  19
TORSDOF 6
ENDMDL
MODEL 3
REMARK VINA RESULT:    -6.962      1.624      1.819
REMARK INTER + INTRA:         -10.222
REMARK INTER:                  -9.246
REMARK INTRA:                  -0.977
REMARK UNBOUND:                -1.021
REMARK  Name = 
REMARK  6 active torsions:
REMARK  status: ('A' for Active; 'I' for Inactive)
REMARK    1  A    between atoms: C_2  and  C_19
REMARK    2  A    between atoms: N_3  and  C_4
REMARK    3  A    between atoms: C_4  and  C_5
REMARK    4  A    between atoms: C_8  and  C_9
REMARK    5  A    between atoms: C_9  and  C_10
REMARK    6  A    between atoms: C_13  and  O_14
REMARK                            x       y       z     vdW  Elec       q    Type
REMARK                         _______ _______ _______ _____ _____    ______ ____
ROOT
ATOM      1  C   UNL     1      49.334   6.825  16.325  0.00  0.00    +0.000 C 
ENDROOT
BRANCH   1   2
ATOM      2  C   UNL     1      48.462   6.149  15.293  0.00  0.00    +0.000 A 
ATOM      3  N   UNL     1      47.843   5.004  15.699  0.00  0.00    +0.000 NA
ATOM      4  C   UNL     1      47.050   4.363  14.811  0.00  0.00    +0.000 A 
ATOM      5  C   UNL     1      46.824   4.795  13.509  0.00  0.00    +0.000 A 
ATOM      6  C   UNL     1      47.446   5.982  13.118  0.00  0.00    +0.000 A 
ATOM      7  C   UNL     1      48.271   6.671  14.012  0.00  0.00    +0.000 A 
ATOM      8 CL   UNL     1      49.002   8.136  13.474  0.00  0.00    +0.000 Cl
BRANCH   5   9
ATOM      9  C   UNL     1      45.897   4.036  12.594  0.00  0.00    +0.000 C 
BRANCH   9  10
ATOM     10  C   UNL     1      44.401   4.126  12.952  0.00  0.00    +0.000 C 
ATOM     11  C   UNL     1      43.851   5.566  12.955  0.00  0.00    +0.000 C 
ATOM     12  C   UNL     1      42.651   5.574  12.008  0.00  0.00    +0.000 C 
ATOM     13  C   UNL     1      42.929   4.438  11.036  0.00  0.00    +0.000 C 
ATOM     14  C   UNL     1      43.537   3.364  11.928  0.00  0.00    +0.000 C 
BRANCH  13  15
ATOM     15  O   UNL     1      43.856   4.823  10.029  0.00  0.00    +0.000 OA
ATOM     16  H   UNL     1      43.403   5.376   9.371  0.00  0.00    +0.000 HD
ENDBRANCH  13  15
ENDBRANCH   9  10
ENDBRANCH   5   9
ENDBRANCH   1   2
BRANCH   1  19
ATOM     17  O   UNL     1      49.712   5.848  18.899  0.00  0.00    +0.000 OA
ATOM     18  C   UNL     1      50.514   5.517  18.030  0.00  0.00    +0.000 C 
ATOM     19  N   UNL     1      50.444   6.000  16.750  0.00  0.00    +0.000 N 
ATOM     20  H   UNL     1      51.054   5.625  16.031  0.00  0.00    +0.000 HD
BRANCH  18  21
ATOM     21  C   UNL     1      51.619   4.595  18.321  0.00  0.00    +0.000 A 
ATOM     22  C   UNL     1      52.708   5.027  19.064  0.00  0.00    +0.000 A 
ATOM     23  S   UNL     1      53.874   3.812  19.333  0.00  0.00    +0.000 S 
ATOM     24  C   UNL     1      52.941   2.655  18.506  0.00  0.00    +0.000 A 
ATOM     25  N   UNL     1      53.347   1.360  18.412  0.00  0.00    +0.000 NA
ATOM     26  C   UNL     1      52.517   0.581  17.804  0.00  0.00    +0.000 A 
ATOM     27  N   UNL     1      51.323   0.983  17.265  0.00  0.00    +0.000 N 
ATOM     28  C   UNL     1      50.908   2.293  17.263  0.00  0.00    +0.000 A 
ATOM     29  O   UNL     1      49.905   2.643  16.651  0.00  0.00    +0.000 OA
ATOM     30  C   UNL     1      51.778   3.199  17.991  0.00  0.00    +0.000 A 
ATOM     31  H   UNL     1      50.734   0.330  16.769  0.00  0.00    +0.000 HD
ENDBRANCH  18  21
ENDBRANCH   1  19
TORSDOF 6
ENDMDL
MODEL 4
REMARK VINA RESULT:    -6.867      6.303      9.292
REMARK INTER + INTRA:         -10.096
REMARK INTER:                  -9.282
REMARK INTRA:                  -0.814
REMARK UNBOUND:                -1.021
REMARK  Name = 
REMARK  6 active torsions:
REMARK  status: ('A' for Active; 'I' for Inactive)
REMARK    1  A    between atoms: C_2  and  C_19
REMARK    2  A    between atoms: N_3  and  C_4
REMARK    3  A    between atoms: C_4  and  C_5
REMARK    4  A    between atoms: C_8  and  C_9
REMARK    5  A    between atoms: C_9  and  C_10
REMARK    6  A    between atoms: C_13  and  O_14
REMARK                            x       y       z     vdW  Elec       q    Type
REMARK                         _______ _______ _______ _____ _____    ______ ____
ROOT
ATOM      1  C   UNL     1      44.169   3.587  11.891  0.00  0.00    +0.000 C 
ENDROOT
BRANCH   1   2
ATOM      2  C   UNL     1      44.968   4.815  12.259  0.00  0.00    +0.000 A 
ATOM      3  N   UNL     1      44.477   6.001  11.797  0.00  0.00    +0.000 NA
ATOM      4  C   UNL     1      45.157   7.130  12.102  0.00  0.00    +0.000 A 
ATOM      5  C   UNL     1      46.324   7.162  12.856  0.00  0.00    +0.000 A 
ATOM      6  C   UNL     1      46.799   5.942  13.341  0.00  0.00    +0.000 A 
ATOM      7  C   UNL     1      46.120   4.756  13.047  0.00  0.00    +0.000 A 
ATOM      8 CL   UNL     1      46.750   3.283  13.684  0.00  0.00    +0.000 Cl
BRANCH   5   9
ATOM      9  C   UNL     1      47.000   8.470  13.176  0.00  0.00    +0.000 C 
BRANCH   9  10
ATOM     10  C   UNL     1      47.992   8.975  12.109  0.00  0.00    +0.000 C 
ATOM     11  C   UNL     1      49.096   9.889  12.675  0.00  0.00    +0.000 C 
ATOM     12  C   UNL     1      50.430   9.270  12.253  0.00  0.00    +0.000 C 
ATOM     13  C   UNL     1      50.120   7.791  12.079  0.00  0.00    +0.000 C 
ATOM     14  C   UNL     1      48.737   7.802  11.443  0.00  0.00    +0.000 C 
BRANCH  13  15
ATOM     15  O   UNL     1      50.082   7.111  13.327  0.00  0.00    +0.000 OA
ATOM     16  H   UNL     1      49.158   6.986  13.596  0.00  0.00    +0.000 HD
ENDBRANCH  13  15
ENDBRANCH   9  10
ENDBRANCH   5   9
ENDBRANCH   1   2
BRANCH   1  19
ATOM     17  O   UNL     1      43.937   3.802   9.131  0.00  0.00    +0.000 OA
ATOM     18  C   UNL     1      44.713   2.964   9.584  0.00  0.00    +0.000 C 
ATOM     19  N   UNL     1      44.845   2.745  10.929  0.00  0.00    +0.000 N 
ATOM     20  H   UNL     1      45.571   2.124  11.274  0.00  0.00    +0.000 HD
BRANCH  18  21
ATOM     21  C   UNL     1      45.534   2.127   8.700  0.00  0.00    +0.000 A 
ATOM     22  C   UNL     1      45.452   0.745   8.778  0.00  0.00    +0.000 A 
ATOM     23  S   UNL     1      46.449  -0.062   7.654  0.00  0.00    +0.000 S 
ATOM     24  C   UNL     1      46.989   1.410   6.993  0.00  0.00    +0.000 A 
ATOM     25  N   UNL     1      47.840   1.435   5.932  0.00  0.00    +0.000 NA
ATOM     26  C   UNL     1      48.124   2.618   5.500  0.00  0.00    +0.000 A 
ATOM     27  N   UNL     1      47.647   3.781   6.045  0.00  0.00    +0.000 N 
ATOM     28  C   UNL     1      46.852   3.810   7.165  0.00  0.00    +0.000 A 
ATOM     29  O   UNL     1      46.557   4.868   7.711  0.00  0.00    +0.000 OA
ATOM     30  C   UNL     1      46.452   2.502   7.652  0.00  0.00    +0.000 A 
ATOM     31  H   UNL     1      47.936   4.678   5.682  0.00  0.00    +0.000 HD
ENDBRANCH  18  21
ENDBRANCH   1  19
TORSDOF 6
ENDMDL
MODEL 5
REMARK VINA RESULT:    -6.392      6.221      9.424
REMARK INTER + INTRA:          -9.468
REMARK INTER:                  -8.539
REMARK INTRA:                  -0.929
REMARK UNBOUND:                -1.021
REMARK  Name = 
REMARK  6 active torsions:
REMARK  status: ('A' for Active; 'I' for Inactive)
REMARK    1  A    between atoms: C_2  and  C_19
REMARK    2  A    between atoms: N_3  and  C_4
REMARK    3  A    between atoms: C_4  and  C_5
REMARK    4  A    between atoms: C_8  and  C_9
REMARK    5  A    between atoms: C_9  and  C_10
REMARK    6  A    between atoms: C_13  and  O_14
REMARK                            x       y       z     vdW  Elec       q    Type
REMARK                         _______ _______ _______ _____ _____    ______ ____
ROOT
ATOM      1  C   UNL     1      46.159   8.334  13.254  0.00  0.00    +0.000 C 
ENDROOT
BRANCH   1   2
ATOM      2  C   UNL     1      47.607   8.526  12.866  0.00  0.00    +0.000 A 
ATOM      3  N   UNL     1      48.481   7.608  13.369  0.00  0.00    +0.000 NA
ATOM      4  C   UNL     1      49.789   7.736  13.047  0.00  0.00    +0.000 A 
ATOM      5  C   UNL     1      50.301   8.743  12.238  0.00  0.00    +0.000 A 
ATOM      6  C   UNL     1      49.389   9.660  11.712  0.00  0.00    +0.000 A 
ATOM      7  C   UNL     1      48.029   9.555  12.022  0.00  0.00    +0.000 A 
ATOM      8 CL   UNL     1      46.951  10.710  11.333  0.00  0.00    +0.000 Cl
BRANCH   5   9
ATOM      9  C   UNL     1      51.770   8.793  11.904  0.00  0.00    +0.000 C 
BRANCH   9  10
ATOM     10  C   UNL     1      52.107   8.681  10.404  0.00  0.00    +0.000 C 
ATOM     11  C   UNL     1      53.534   9.144  10.055  0.00  0.00    +0.000 C 
ATOM     12  C   UNL     1      54.200   7.981   9.319  0.00  0.00    +0.000 C 
ATOM     13  C   UNL     1      53.470   6.747   9.825  0.00  0.00    +0.000 C 
ATOM     14  C   UNL     1      52.026   7.218   9.924  0.00  0.00    +0.000 C 
BRANCH  13  15
ATOM     15  O   UNL     1      53.944   6.343  11.103  0.00  0.00    +0.000 OA
ATOM     16  H   UNL     1      54.747   6.844  11.321  0.00  0.00    +0.000 HD
ENDBRANCH  13  15
ENDBRANCH   9  10
ENDBRANCH   5   9
ENDBRANCH   1   2
BRANCH   1  19
ATOM     17  O   UNL     1      44.494   7.628  11.145  0.00  0.00    +0.000 OA
ATOM     18  C   UNL     1      44.905   6.736  11.883  0.00  0.00    +0.000 C 
ATOM     19  N   UNL     1      45.678   6.997  12.983  0.00  0.00    +0.000 N 
ATOM     20  H   UNL     1      46.089   6.233  13.509  0.00  0.00    +0.000 HD
BRANCH  18  21
ATOM     21  C   UNL     1      44.569   5.328  11.639  0.00  0.00    +0.000 A 
ATOM     22  C   UNL     1      43.837   4.614  12.576  0.00  0.00    +0.000 A 
ATOM     23  S   UNL     1      43.511   3.007  12.108  0.00  0.00    +0.000 S 
ATOM     24  C   UNL     1      44.299   3.224  10.615  0.00  0.00    +0.000 A 
ATOM     25  N   UNL     1      44.339   2.228   9.690  0.00  0.00    +0.000 NA
ATOM     26  C   UNL     1      44.922   2.548   8.583  0.00  0.00    +0.000 A 
ATOM     27  N   UNL     1      45.484   3.770   8.324  0.00  0.00    +0.000 N 
ATOM     28  C   UNL     1      45.541   4.779   9.256  0.00  0.00    +0.000 A 
ATOM     29  O   UNL     1      46.173   5.808   9.043  0.00  0.00    +0.000 OA
ATOM     30  C   UNL     1      44.843   4.490  10.496  0.00  0.00    +0.000 A 
ATOM     31  H   UNL     1      45.958   3.946   7.449  0.00  0.00    +0.000 HD
ENDBRANCH  18  21
ENDBRANCH   1  19
TORSDOF 6
ENDMDL
MODEL 6
REMARK VINA RESULT:    -6.364      3.578      4.382
REMARK INTER + INTRA:          -9.431
REMARK INTER:                  -8.188
REMARK INTRA:                  -1.243
REMARK UNBOUND:                -1.021
REMARK  Name = 
REMARK  6 active torsions:
REMARK  status: ('A' for Active; 'I' for Inactive)
REMARK    1  A    between atoms: C_2  and  C_19
REMARK    2  A    between atoms: N_3  and  C_4
REMARK    3  A    between atoms: C_4  and  C_5
REMARK    4  A    between atoms: C_8  and  C_9
REMARK    5  A    between atoms: C_9  and  C_10
REMARK    6  A    between atoms: C_13  and  O_14
REMARK                            x       y       z     vdW  Elec       q    Type
REMARK                         _______ _______ _______ _____ _____    ______ ____
ROOT
ATOM      1  C   UNL     1      48.983   8.961  14.333  0.00  0.00    +0.000 C 
ENDROOT
BRANCH   1   2
ATOM      2  C   UNL     1      48.008   8.314  13.378  0.00  0.00    +0.000 A 
ATOM      3  N   UNL     1      46.688   8.478  13.678  0.00  0.00    +0.000 NA
ATOM      4  C   UNL     1      45.775   7.918  12.851  0.00  0.00    +0.000 A 
ATOM      5  C   UNL     1      46.095   7.185  11.714  0.00  0.00    +0.000 A 
ATOM      6  C   UNL     1      47.451   7.048  11.408  0.00  0.00    +0.000 A 
ATOM      7  C   UNL     1      48.420   7.616  12.241  0.00  0.00    +0.000 A 
ATOM      8 CL   UNL     1      50.076   7.420  11.805  0.00  0.00    +0.000 Cl
BRANCH   5   9
ATOM      9  C   UNL     1      45.013   6.623  10.828  0.00  0.00    +0.000 C 
BRANCH   9  10
ATOM     10  C   UNL     1      44.745   5.114  10.996  0.00  0.00    +0.000 C 
ATOM     11  C   UNL     1      45.407   4.504  12.247  0.00  0.00    +0.000 C 
ATOM     12  C   UNL     1      44.291   3.824  13.041  0.00  0.00    +0.000 C 
ATOM     13  C   UNL     1      43.032   4.578  12.642  0.00  0.00    +0.000 C 
ATOM     14  C   UNL     1      43.238   4.832  11.156  0.00  0.00    +0.000 C 
BRANCH  13  15
ATOM     15  O   UNL     1      42.915   5.811  13.340  0.00  0.00    +0.000 OA
ATOM     16  H   UNL     1      41.976   6.053  13.409  0.00  0.00    +0.000 HD
ENDBRANCH  13  15
ENDBRANCH   9  10
ENDBRANCH   5   9
ENDBRANCH   1   2
BRANCH   1  19
ATOM     17  O   UNL     1      47.887   9.329  16.860  0.00  0.00    +0.000 OA
ATOM     18  C   UNL     1      48.628   8.366  16.684  0.00  0.00    +0.000 C 
ATOM     19  N   UNL     1      49.262   8.141  15.491  0.00  0.00    +0.000 N 
ATOM     20  H   UNL     1      49.781   7.281  15.345  0.00  0.00    +0.000 HD
BRANCH  18  21
ATOM     21  C   UNL     1      48.897   7.403  17.760  0.00  0.00    +0.000 A 
ATOM     22  C   UNL     1      49.308   7.851  19.007  0.00  0.00    +0.000 A 
ATOM     23  S   UNL     1      49.538   6.597  20.140  0.00  0.00    +0.000 S 
ATOM     24  C   UNL     1      49.052   5.417  19.015  0.00  0.00    +0.000 A 
ATOM     25  N   UNL     1      48.968   4.105  19.364  0.00  0.00    +0.000 NA
ATOM     26  C   UNL     1      48.535   3.328  18.428  0.00  0.00    +0.000 A 
ATOM     27  N   UNL     1      48.194   3.742  17.167  0.00  0.00    +0.000 N 
ATOM     28  C   UNL     1      48.339   5.042  16.744  0.00  0.00    +0.000 A 
ATOM     29  O   UNL     1      48.159   5.353  15.571  0.00  0.00    +0.000 OA
ATOM     30  C   UNL     1      48.763   5.967  17.779  0.00  0.00    +0.000 A 
ATOM     31  H   UNL     1      47.895   3.078  16.468  0.00  0.00    +0.000 HD
ENDBRANCH  18  21
ENDBRANCH   1  19
TORSDOF 6
ENDMDL
MODEL 7
REMARK VINA RESULT:    -6.155      3.361      4.133
REMARK INTER + INTRA:          -9.156
REMARK INTER:                  -8.145
REMARK INTRA:                  -1.011
REMARK UNBOUND:                -1.021
REMARK  Name = 
REMARK  6 active torsions:
REMARK  status: ('A' for Active; 'I' for Inactive)
REMARK    1  A    between atoms: C_2  and  C_19
REMARK    2  A    between atoms: N_3  and  C_4
REMARK    3  A    between atoms: C_4  and  C_5
REMARK    4  A    between atoms: C_8  and  C_9
REMARK    5  A    between atoms: C_9  and  C_10
REMARK    6  A    between atoms: C_13  and  O_14
REMARK                            x       y       z     vdW  Elec       q    Type
REMARK                         _______ _______ _______ _____ _____    ______ ____
ROOT
ATOM      1  C   UNL     1      49.720   7.546  13.047  0.00  0.00    +0.000 C 
ENDROOT
BRANCH   1   2
ATOM      2  C   UNL     1      48.267   7.153  12.927  0.00  0.00    +0.000 A 
ATOM      3  N   UNL     1      47.987   5.840  13.162  0.00  0.00    +0.000 NA
ATOM      4  C   UNL     1      46.698   5.440  13.069  0.00  0.00    +0.000 A 
ATOM      5  C   UNL     1      45.639   6.281  12.748  0.00  0.00    +0.000 A 
ATOM      6  C   UNL     1      45.940   7.627  12.533  0.00  0.00    +0.000 A 
ATOM      7  C   UNL     1      47.262   8.075  12.625  0.00  0.00    +0.000 A 
ATOM      8 CL   UNL     1      47.568   9.750  12.360  0.00  0.00    +0.000 Cl
BRANCH   5   9
ATOM      9  C   UNL     1      44.226   5.757  12.697  0.00  0.00    +0.000 C 
BRANCH   9  10
ATOM     10  C   UNL     1      43.754   5.276  11.310  0.00  0.00    +0.000 C 
ATOM     11  C   UNL     1      44.896   5.119  10.288  0.00  0.00    +0.000 C 
ATOM     12  C   UNL     1      44.813   3.685   9.762  0.00  0.00    +0.000 C 
ATOM     13  C   UNL     1      44.144   2.910  10.885  0.00  0.00    +0.000 C 
ATOM     14  C   UNL     1      43.095   3.885  11.400  0.00  0.00    +0.000 C 
BRANCH  13  15
ATOM     15  O   UNL     1      45.063   2.585  11.920  0.00  0.00    +0.000 OA
ATOM     16  H   UNL     1      45.770   3.251  11.942  0.00  0.00    +0.000 HD
ENDBRANCH  13  15
ENDBRANCH   9  10
ENDBRANCH   5   9
ENDBRANCH   1   2
BRANCH   1  19
ATOM     17  O   UNL     1      49.375   9.197  15.255  0.00  0.00    +0.000 OA
ATOM     18  C   UNL     1      49.989   8.144  15.409  0.00  0.00    +0.000 C 
ATOM     19  N   UNL     1      50.261   7.300  14.366  0.00  0.00    +0.000 N 
ATOM     20  H   UNL     1      50.674   6.389  14.543  0.00  0.00    +0.000 HD
BRANCH  18  21
ATOM     21  C   UNL     1      50.489   7.738  16.728  0.00  0.00    +0.000 A 
ATOM     22  C   UNL     1      51.346   8.570  17.434  0.00  0.00    +0.000 A 
ATOM     23  S   UNL     1      51.795   7.952  18.958  0.00  0.00    +0.000 S 
ATOM     24  C   UNL     1      50.823   6.571  18.746  0.00  0.00    +0.000 A 
ATOM     25  N   UNL     1      50.708   5.635  19.727  0.00  0.00    +0.000 NA
ATOM     26  C   UNL     1      49.896   4.669  19.452  0.00  0.00    +0.000 A 
ATOM     27  N   UNL     1      49.201   4.546  18.278  0.00  0.00    +0.000 N 
ATOM     28  C   UNL     1      49.347   5.421  17.228  0.00  0.00    +0.000 A 
ATOM     29  O   UNL     1      48.821   5.206  16.141  0.00  0.00    +0.000 OA
ATOM     30  C   UNL     1      50.201   6.560  17.510  0.00  0.00    +0.000 A 
ATOM     31  H   UNL     1      48.608   3.745  18.110  0.00  0.00    +0.000 HD
ENDBRANCH  18  21
ENDBRANCH   1  19
TORSDOF 6
ENDMDL
MODEL 8
REMARK VINA RESULT:    -5.896      3.314      3.706
REMARK INTER + INTRA:          -8.813
REMARK INTER:                  -7.950
REMARK INTRA:                  -0.864
REMARK UNBOUND:                -1.021
REMARK  Name = 
REMARK  6 active torsions:
REMARK  status: ('A' for Active; 'I' for Inactive)
REMARK    1  A    between atoms: C_2  and  C_19
REMARK    2  A    between atoms: N_3  and  C_4
REMARK    3  A    between atoms: C_4  and  C_5
REMARK    4  A    between atoms: C_8  and  C_9
REMARK    5  A    between atoms: C_9  and  C_10
REMARK    6  A    between atoms: C_13  and  O_14
REMARK                            x       y       z     vdW  Elec       q    Type
REMARK                         _______ _______ _______ _____ _____    ______ ____
ROOT
ATOM      1  C   UNL     1      50.836   7.664  14.652  0.00  0.00    +0.000 C 
ENDROOT
BRANCH   1   2
ATOM      2  C   UNL     1      49.638   7.376  13.778  0.00  0.00    +0.000 A 
ATOM      3  N   UNL     1      48.680   6.580  14.331  0.00  0.00    +0.000 NA
ATOM      4  C   UNL     1      47.586   6.294  13.588  0.00  0.00    +0.000 A 
ATOM      5  C   UNL     1      47.374   6.761  12.296  0.00  0.00    +0.000 A 
ATOM      6  C   UNL     1      48.354   7.595  11.754  0.00  0.00    +0.000 A 
ATOM      7  C   UNL     1      49.496   7.912  12.496  0.00  0.00    +0.000 A 
ATOM      8 CL   UNL     1      50.664   8.955  11.777  0.00  0.00    +0.000 Cl
BRANCH   5   9
ATOM      9  C   UNL     1      46.109   6.420  11.551  0.00  0.00    +0.000 C 
BRANCH   9  10
ATOM     10  C   UNL     1      45.577   4.991  11.778  0.00  0.00    +0.000 C 
ATOM     11  C   UNL     1      44.506   4.899  12.882  0.00  0.00    +0.000 C 
ATOM     12  C   UNL     1      43.285   4.232  12.248  0.00  0.00    +0.000 C 
ATOM     13  C   UNL     1      43.403   4.559  10.768  0.00  0.00    +0.000 C 
ATOM     14  C   UNL     1      44.899   4.442  10.508  0.00  0.00    +0.000 C 
BRANCH  13  15
ATOM     15  O   UNL     1      42.957   5.879  10.484  0.00  0.00    +0.000 OA
ATOM     16  H   UNL     1      43.574   6.518  10.876  0.00  0.00    +0.000 HD
ENDBRANCH  13  15
ENDBRANCH   9  10
ENDBRANCH   5   9
ENDBRANCH   1   2
BRANCH   1  19
ATOM     17  O   UNL     1      52.713   6.320  16.199  0.00  0.00    +0.000 OA
ATOM     18  C   UNL     1      51.650   6.642  16.725  0.00  0.00    +0.000 C 
ATOM     19  N   UNL     1      50.643   7.250  16.024  0.00  0.00    +0.000 N 
ATOM     20  H   UNL     1      49.824   7.599  16.510  0.00  0.00    +0.000 HD
BRANCH  18  21
ATOM     21  C   UNL     1      51.388   6.369  18.144  0.00  0.00    +0.000 A 
ATOM     22  C   UNL     1      52.164   6.973  19.123  0.00  0.00    +0.000 A 
ATOM     23  S   UNL     1      51.693   6.569  20.711  0.00  0.00    +0.000 S 
ATOM     24  C   UNL     1      50.408   5.608  20.145  0.00  0.00    +0.000 A 
ATOM     25  N   UNL     1      49.551   4.999  21.009  0.00  0.00    +0.000 NA
ATOM     26  C   UNL     1      48.592   4.347  20.441  0.00  0.00    +0.000 A 
ATOM     27  N   UNL     1      48.421   4.235  19.086  0.00  0.00    +0.000 N 
ATOM     28  C   UNL     1      49.305   4.763  18.176  0.00  0.00    +0.000 A 
ATOM     29  O   UNL     1      49.202   4.526  16.977  0.00  0.00    +0.000 OA
ATOM     30  C   UNL     1      50.367   5.559  18.763  0.00  0.00    +0.000 A 
ATOM     31  H   UNL     1      47.669   3.679  18.705  0.00  0.00    +0.000 HD
ENDBRANCH  18  21
ENDBRANCH   1  19
TORSDOF 6
ENDMDL
MODEL 9
REMARK VINA RESULT:    -5.741      4.007      8.684
REMARK INTER + INTRA:          -8.608
REMARK INTER:                  -7.592
REMARK INTRA:                  -1.016
REMARK UNBOUND:                -1.021
REMARK  Name = 
REMARK  6 active torsions:
REMARK  status: ('A' for Active; 'I' for Inactive)
REMARK    1  A    between atoms: C_2  and  C_19
REMARK    2  A    between atoms: N_3  and  C_4
REMARK    3  A    between atoms: C_4  and  C_5
REMARK    4  A    between atoms: C_8  and  C_9
REMARK    5  A    between atoms: C_9  and  C_10
REMARK    6  A    between atoms: C_13  and  O_14
REMARK                            x       y       z     vdW  Elec       q    Type
REMARK                         _______ _______ _______ _____ _____    ______ ____
ROOT
ATOM      1  C   UNL     1      48.535   8.841  15.514  0.00  0.00    +0.000 C 
ENDROOT
BRANCH   1   2
ATOM      2  C   UNL     1      49.277   7.848  16.378  0.00  0.00    +0.000 A 
ATOM      3  N   UNL     1      50.302   7.186  15.771  0.00  0.00    +0.000 NA
ATOM      4  C   UNL     1      50.999   6.287  16.503  0.00  0.00    +0.000 A 
ATOM      5  C   UNL     1      50.737   5.994  17.837  0.00  0.00    +0.000 A 
ATOM      6  C   UNL     1      49.700   6.698  18.449  0.00  0.00    +0.000 A 
ATOM      7  C   UNL     1      48.961   7.637  17.721  0.00  0.00    +0.000 A 
ATOM      8 CL   UNL     1      47.699   8.482  18.537  0.00  0.00    +0.000 Cl
BRANCH   5   9
ATOM      9  C   UNL     1      51.585   5.000  18.589  0.00  0.00    +0.000 C 
BRANCH   9  10
ATOM     10  C   UNL     1      52.568   4.187  17.723  0.00  0.00    +0.000 C 
ATOM     11  C   UNL     1      54.042   4.595  17.912  0.00  0.00    +0.000 C 
ATOM     12  C   UNL     1      54.801   3.321  18.285  0.00  0.00    +0.000 C 
ATOM     13  C   UNL     1      53.749   2.432  18.930  0.00  0.00    +0.000 C 
ATOM     14  C   UNL     1      52.513   2.688  18.080  0.00  0.00    +0.000 C 
BRANCH  13  15
ATOM     15  O   UNL     1      53.503   2.803  20.280  0.00  0.00    +0.000 OA
ATOM     16  H   UNL     1      54.142   3.483  20.548  0.00  0.00    +0.000 HD
ENDBRANCH  13  15
ENDBRANCH   9  10
ENDBRANCH   5   9
ENDBRANCH   1   2
BRANCH   1  19
ATOM     17  O   UNL     1      48.594   8.260  12.798  0.00  0.00    +0.000 OA
ATOM     18  C   UNL     1      47.598   7.935  13.438  0.00  0.00    +0.000 C 
ATOM     19  N   UNL     1      47.454   8.237  14.766  0.00  0.00    +0.000 N 
ATOM     20  H   UNL     1      46.670   7.863  15.291  0.00  0.00    +0.000 HD
BRANCH  18  21
ATOM     21  C   UNL     1      46.484   7.218  12.805  0.00  0.00    +0.000 A 
ATOM     22  C   UNL     1      45.601   7.897  11.978  0.00  0.00    +0.000 A 
ATOM     23  S   UNL     1      44.394   6.898  11.305  0.00  0.00    +0.000 S 
ATOM     24  C   UNL     1      45.038   5.516  12.060  0.00  0.00    +0.000 A 
ATOM     25  N   UNL     1      44.498   4.285  11.852  0.00  0.00    +0.000 NA
ATOM     26  C   UNL     1      45.120   3.320  12.444  0.00  0.00    +0.000 A 
ATOM     27  N   UNL     1      46.225   3.477  13.239  0.00  0.00    +0.000 N 
ATOM     28  C   UNL     1      46.756   4.708  13.543  0.00  0.00    +0.000 A 
ATOM     29  O   UNL     1      47.656   4.827  14.368  0.00  0.00    +0.000 OA
ATOM     30  C   UNL     1      46.131   5.820  12.852  0.00  0.00    +0.000 A 
ATOM     31  H   UNL     1      46.644   2.685  13.704  0.00  0.00    +0.000 HD
ENDBRANCH  18  21
ENDBRANCH   1  19
TORSDOF 6
ENDMDL
