MODEL 1
REMARK VINA RESULT:    -8.409      0.000      0.000
REMARK INTER + INTRA:         -12.552
REMARK INTER:                 -11.850
REMARK INTRA:                  -0.702
REMARK UNBOUND:                -0.702
REMARK  Name = 
REMARK  7 active torsions:
REMARK  status: ('A' for Active; 'I' for Inactive)
REMARK    1  A    between atoms: C_2  and  C_19
REMARK    2  A    between atoms: N_3  and  C_4
REMARK    3  A    between atoms: C_4  and  C_5
REMARK    4  A    between atoms: C_9  and  C_10
REMARK    5  A    between atoms: C_10  and  N_11
REMARK    6  A    between atoms: N_11  and  C_12
REMARK    7  A    between atoms: C_12  and  C_13
REMARK                            x       y       z     vdW  Elec       q    Type
REMARK                         _______ _______ _______ _____ _____    ______ ____
ROOT
ATOM      1  C   UNL     1      46.346   4.232  14.778  0.00  0.00    +0.000 C 
ENDROOT
BRANCH   1   2
ATOM      2  C   UNL     1      46.437   5.040  13.515  0.00  0.00    +0.000 A 
ATOM      3  C   UNL     1      47.376   6.064  13.366  0.00  0.00    +0.000 A 
ATOM      4  C   UNL     1      47.375   6.800  12.193  0.00  0.00    +0.000 A 
ATOM      5  N   UNL     1      46.526   6.577  11.169  0.00  0.00    +0.000 NA
ATOM      6  C   UNL     1      45.661   5.532  11.295  0.00  0.00    +0.000 A 
ATOM      7  C   UNL     1      45.583   4.759  12.446  0.00  0.00    +0.000 A 
BRANCH   6   8
ATOM      8  C   UNL     1      44.737   5.227  10.128  0.00  0.00    +0.000 C 
BRANCH   8   9
ATOM      9  N   UNL     1      45.423   5.145   8.830  0.00  0.00    +0.000 NA
ATOM     10  H   UNL     1      46.422   5.106   9.047  0.00  0.00    +0.000 HD
BRANCH   9  11
ATOM     11  C   UNL     1      45.076   3.906   8.115  0.00  0.00    +0.000 C 
BRANCH  11  12
ATOM     12  C   UNL     1      46.351   3.112   7.784  0.00  0.00    +0.000 C 
ATOM     13  C   UNL     1      46.667   3.092   6.296  0.00  0.00    +0.000 C 
ATOM     14  C   UNL     1      47.649   1.943   6.185  0.00  0.00    +0.000 C 
ATOM     15  C   UNL     1      47.266   0.997   7.315  0.00  0.00    +0.000 C 
ATOM     16  N   UNL     1      46.240   1.682   8.106  0.00  0.00    +0.000 NA
ATOM     17  H   UNL     1      46.388   1.530   9.101  0.00  0.00    +0.000 HD
ENDBRANCH  11  12
ENDBRANCH   9  11
ENDBRANCH   8   9
ENDBRANCH   6   8
ENDBRANCH   1   2
BRANCH   1  20
ATOM     18  O   UNL     1      46.735   3.221  17.394  0.00  0.00    +0.000 OA
ATOM     19  C   UNL     1      47.629   3.871  16.862  0.00  0.00    +0.000 C 
ATOM     20  N   UNL     1      47.503   4.420  15.612  0.00  0.00    +0.000 N 
ATOM     21  H   UNL     1      48.325   4.789  15.147  0.00  0.00    +0.000 HD
BRANCH  19  22
ATOM     22  C   UNL     1      48.895   4.155  17.554  0.00  0.00    +0.000 A 
ATOM     23  C   UNL     1      49.027   5.311  18.314  0.00  0.00    +0.000 A 
ATOM     24  S   UNL     1      50.572   5.496  19.012  0.00  0.00    +0.000 S 
ATOM     25  C   UNL     1      51.105   4.017  18.365  0.00  0.00    +0.000 A 
ATOM     26  N   UNL     1      52.362   3.558  18.610  0.00  0.00    +0.000 NA
ATOM     27  C   UNL     1      52.621   2.403  18.091  0.00  0.00    +0.000 A 
ATOM     28  N   UNL     1      51.740   1.671  17.339  0.00  0.00    +0.000 N 
ATOM     29  C   UNL     1      50.488   2.129  17.002  0.00  0.00    +0.000 A 
ATOM     30  O   UNL     1      49.782   1.510  16.215  0.00  0.00    +0.000 OA
ATOM     31  C   UNL     1      50.130   3.400  17.603  0.00  0.00    +0.000 A 
ATOM     32  H   UNL     1      52.012   0.789  16.932  0.00  0.00    +0.000 HD
ENDBRANCH  19  22
ENDBRANCH   1  20
TORSDOF 7
ENDMDL
MODEL 2
REMARK VINA RESULT:    -8.362      2.243      3.281
REMARK INTER + INTRA:         -12.485
REMARK INTER:                 -11.232
REMARK INTRA:                  -1.253
REMARK UNBOUND:                -0.702
REMARK  Name = 
REMARK  7 active torsions:
REMARK  status: ('A' for Active; 'I' for Inactive)
REMARK    1  A    between atoms: C_2  and  C_19
REMARK    2  A    between atoms: N_3  and  C_4
REMARK    3  A    between atoms: C_4  and  C_5
REMARK    4  A    between atoms: C_9  and  C_10
REMARK    5  A    between atoms: C_10  and  N_11
REMARK    6  A    between atoms: N_11  and  C_12
REMARK    7  A    between atoms: C_12  and  C_13
REMARK                            x       y       z     vdW  Elec       q    Type
REMARK                         _______ _______ _______ _____ _____    ______ ____
ROOT
ATOM      1  C   UNL     1      47.422   6.811  11.656  0.00  0.00    +0.000 C 
ENDROOT
BRANCH   1   2
ATOM      2  C   UNL     1      45.959   6.491  11.546  0.00  0.00    +0.000 A 
ATOM      3  C   UNL     1      44.989   7.496  11.511  0.00  0.00    +0.000 A 
ATOM      4  C   UNL     1      43.655   7.129  11.455  0.00  0.00    +0.000 A 
ATOM      5  N   UNL     1      43.231   5.850  11.415  0.00  0.00    +0.000 NA
ATOM      6  C   UNL     1      44.184   4.878  11.379  0.00  0.00    +0.000 A 
ATOM      7  C   UNL     1      45.543   5.161  11.454  0.00  0.00    +0.000 A 
BRANCH   6   8
ATOM      8  C   UNL     1      43.728   3.434  11.274  0.00  0.00    +0.000 C 
BRANCH   8   9
ATOM      9  N   UNL     1      44.759   2.518  10.762  0.00  0.00    +0.000 NA
ATOM     10  H   UNL     1      44.610   1.632  11.253  0.00  0.00    +0.000 HD
BRANCH   9  11
ATOM     11  C   UNL     1      44.584   2.262   9.323  0.00  0.00    +0.000 C 
BRANCH  11  12
ATOM     12  C   UNL     1      45.944   2.316   8.608  0.00  0.00    +0.000 C 
ATOM     13  C   UNL     1      45.918   3.168   7.349  0.00  0.00    +0.000 C 
ATOM     14  C   UNL     1      47.173   2.724   6.625  0.00  0.00    +0.000 C 
ATOM     15  C   UNL     1      47.375   1.277   7.057  0.00  0.00    +0.000 C 
ATOM     16  N   UNL     1      46.379   1.007   8.098  0.00  0.00    +0.000 NA
ATOM     17  H   UNL     1      46.782   0.450   8.849  0.00  0.00    +0.000 HD
ENDBRANCH  11  12
ENDBRANCH   9  11
ENDBRANCH   8   9
ENDBRANCH   6   8
ENDBRANCH   1   2
BRANCH   1  20
ATOM     18  O   UNL     1      47.575   8.293  14.064  0.00  0.00    +0.000 OA
ATOM     19  C   UNL     1      47.981   7.135  14.044  0.00  0.00    +0.000 C 
ATOM     20  N   UNL     1      47.969   6.366  12.909  0.00  0.00    +0.000 N 
ATOM     21  H   UNL     1      48.143   5.370  12.984  0.00  0.00    +0.000 HD
BRANCH  19  22
ATOM     22  C   UNL     1      48.562   6.500  15.235  0.00  0.00    +0.000 A 
ATOM     23  C   UNL     1      49.652   7.080  15.871  0.00  0.00    +0.000 A 
ATOM     24  S   UNL     1      50.217   6.188  17.211  0.00  0.00    +0.000 S 
ATOM     25  C   UNL     1      48.997   5.019  17.018  0.00  0.00    +0.000 A 
ATOM     26  N   UNL     1      48.895   3.966  17.874  0.00  0.00    +0.000 NA
ATOM     27  C   UNL     1      47.900   3.177  17.637  0.00  0.00    +0.000 A 
ATOM     28  N   UNL     1      47.003   3.340  16.614  0.00  0.00    +0.000 N 
ATOM     29  C   UNL     1      47.111   4.344  15.680  0.00  0.00    +0.000 A 
ATOM     30  O   UNL     1      46.375   4.376  14.702  0.00  0.00    +0.000 OA
ATOM     31  C   UNL     1      48.185   5.287  15.933  0.00  0.00    +0.000 A 
ATOM     32  H   UNL     1      46.264   2.671  16.460  0.00  0.00    +0.000 HD
ENDBRANCH  19  22
ENDBRANCH   1  20
TORSDOF 7
ENDMDL
MODEL 3
REMARK VINA RESULT:    -8.022      2.064      2.547
REMARK INTER + INTRA:         -12.006
REMARK INTER:                 -11.016
REMARK INTRA:                  -0.991
REMARK UNBOUND:                -0.702
REMARK  Name = 
REMARK  7 active torsions:
REMARK  status: ('A' for Active; 'I' for Inactive)
REMARK    1  A    between atoms: C_2  and  C_19
REMARK    2  A    between atoms: N_3  and  C_4
REMARK    3  A    between atoms: C_4  and  C_5
REMARK    4  A    between atoms: C_9  and  C_10
REMARK    5  A    between atoms: C_10  and  N_11
REMARK    6  A    between atoms: N_11  and  C_12
REMARK    7  A    between atoms: C_12  and  C_13
REMARK                            x       y       z     vdW  Elec       q    Type
REMARK                         _______ _______ _______ _____ _____    ______ ____
ROOT
ATOM      1  C   UNL     1      46.790   3.404  14.033  0.00  0.00    +0.000 C 
ENDROOT
BRANCH   1   2
ATOM      2  C   UNL     1      46.234   4.433  13.090  0.00  0.00    +0.000 A 
ATOM      3  C   UNL     1      46.694   5.752  13.092  0.00  0.00    +0.000 A 
ATOM      4  C   UNL     1      46.106   6.661  12.228  0.00  0.00    +0.000 A 
ATOM      5  N   UNL     1      45.119   6.345  11.366  0.00  0.00    +0.000 NA
ATOM      6  C   UNL     1      44.724   5.042  11.322  0.00  0.00    +0.000 A 
ATOM      7  C   UNL     1      45.248   4.072  12.169  0.00  0.00    +0.000 A 
BRANCH   6   8
ATOM      8  C   UNL     1      43.655   4.653  10.316  0.00  0.00    +0.000 C 
BRANCH   8   9
ATOM      9  N   UNL     1      44.181   4.333   8.980  0.00  0.00    +0.000 NA
ATOM     10  H   UNL     1      45.089   4.803   8.921  0.00  0.00    +0.000 HD
BRANCH   9  11
ATOM     11  C   UNL     1      44.418   2.889   8.826  0.00  0.00    +0.000 C 
BRANCH  11  12
ATOM     12  C   UNL     1      45.856   2.638   8.342  0.00  0.00    +0.000 C 
ATOM     13  C   UNL     1      46.104   3.151   6.932  0.00  0.00    +0.000 C 
ATOM     14  C   UNL     1      47.376   2.426   6.538  0.00  0.00    +0.000 C 
ATOM     15  C   UNL     1      47.334   1.120   7.321  0.00  0.00    +0.000 C 
ATOM     16  N   UNL     1      46.184   1.210   8.225  0.00  0.00    +0.000 NA
ATOM     17  H   UNL     1      46.410   0.822   9.139  0.00  0.00    +0.000 HD
ENDBRANCH  11  12
ENDBRANCH   9  11
ENDBRANCH   8   9
ENDBRANCH   6   8
ENDBRANCH   1   2
BRANCH   1  20
ATOM     18  O   UNL     1      48.672   2.321  15.850  0.00  0.00    +0.000 OA
ATOM     19  C   UNL     1      48.183   3.424  16.077  0.00  0.00    +0.000 C 
ATOM     20  N   UNL     1      47.243   3.999  15.261  0.00  0.00    +0.000 N 
ATOM     21  H   UNL     1      47.007   4.976  15.389  0.00  0.00    +0.000 HD
BRANCH  19  22
ATOM     22  C   UNL     1      48.536   4.194  17.278  0.00  0.00    +0.000 A 
ATOM     23  C   UNL     1      48.311   3.656  18.539  0.00  0.00    +0.000 A 
ATOM     24  S   UNL     1      48.744   4.701  19.815  0.00  0.00    +0.000 S 
ATOM     25  C   UNL     1      49.292   5.891  18.730  0.00  0.00    +0.000 A 
ATOM     26  N   UNL     1      49.822   7.059  19.182  0.00  0.00    +0.000 NA
ATOM     27  C   UNL     1      50.236   7.855  18.252  0.00  0.00    +0.000 A 
ATOM     28  N   UNL     1      50.155   7.593  16.909  0.00  0.00    +0.000 N 
ATOM     29  C   UNL     1      49.558   6.461  16.405  0.00  0.00    +0.000 A 
ATOM     30  O   UNL     1      49.381   6.327  15.201  0.00  0.00    +0.000 OA
ATOM     31  C   UNL     1      49.123   5.511  17.412  0.00  0.00    +0.000 A 
ATOM     32  H   UNL     1      50.465   8.270  16.229  0.00  0.00    +0.000 HD
ENDBRANCH  19  22
ENDBRANCH   1  20
TORSDOF 7
ENDMDL
MODEL 4
REMARK VINA RESULT:    -7.648      2.309      2.901
REMARK INTER + INTRA:         -11.480
REMARK INTER:                 -10.691
REMARK INTRA:                  -0.789
REMARK UNBOUND:                -0.702
REMARK  Name = 
REMARK  7 active torsions:
REMARK  status: ('A' for Active; 'I' for Inactive)
REMARK    1  A    between atoms: C_2  and  C_19
REMARK    2  A    between atoms: N_3  and  C_4
REMARK    3  A    between atoms: C_4  and  C_5
REMARK    4  A    between atoms: C_9  and  C_10
REMARK    5  A    between atoms: C_10  and  N_11
REMARK    6  A    between atoms: N_11  and  C_12
REMARK    7  A    between atoms: C_12  and  C_13
REMARK                            x       y       z     vdW  Elec       q    Type
REMARK                         _______ _______ _______ _____ _____    ______ ____
ROOT
ATOM      1  C   UNL     1      47.439   5.039  14.130  0.00  0.00    +0.000 C 
ENDROOT
BRANCH   1   2
ATOM      2  C   UNL     1      46.584   5.984  13.335  0.00  0.00    +0.000 A 
ATOM      3  C   UNL     1      46.979   7.302  13.092  0.00  0.00    +0.000 A 
ATOM      4  C   UNL     1      46.121   8.133  12.391  0.00  0.00    +0.000 A 
ATOM      5  N   UNL     1      44.924   7.741  11.910  0.00  0.00    +0.000 NA
ATOM      6  C   UNL     1      44.577   6.436  12.092  0.00  0.00    +0.000 A 
ATOM      7  C   UNL     1      45.371   5.543  12.802  0.00  0.00    +0.000 A 
BRANCH   6   8
ATOM      8  C   UNL     1      43.260   5.960  11.506  0.00  0.00    +0.000 C 
BRANCH   8   9
ATOM      9  N   UNL     1      43.402   5.208  10.250  0.00  0.00    +0.000 NA
ATOM     10  H   UNL     1      44.208   5.619   9.772  0.00  0.00    +0.000 HD
BRANCH   9  11
ATOM     11  C   UNL     1      43.710   3.791  10.503  0.00  0.00    +0.000 C 
BRANCH  11  12
ATOM     12  C   UNL     1      44.973   3.379   9.729  0.00  0.00    +0.000 C 
ATOM     13  C   UNL     1      45.047   3.998   8.342  0.00  0.00    +0.000 C 
ATOM     14  C   UNL     1      46.085   3.136   7.653  0.00  0.00    +0.000 C 
ATOM     15  C   UNL     1      45.964   1.774   8.325  0.00  0.00    +0.000 C 
ATOM     16  N   UNL     1      45.028   1.939   9.440  0.00  0.00    +0.000 NA
ATOM     17  H   UNL     1      45.345   1.424  10.259  0.00  0.00    +0.000 HD
ENDBRANCH  11  12
ENDBRANCH   9  11
ENDBRANCH   8   9
ENDBRANCH   6   8
ENDBRANCH   1   2
BRANCH   1  20
ATOM     18  O   UNL     1      49.652   6.390  15.266  0.00  0.00    +0.000 OA
ATOM     19  C   UNL     1      48.673   6.148  15.964  0.00  0.00    +0.000 C 
ATOM     20  N   UNL     1      47.578   5.470  15.494  0.00  0.00    +0.000 N 
ATOM     21  H   UNL     1      46.730   5.454  16.049  0.00  0.00    +0.000 HD
BRANCH  19  22
ATOM     22  C   UNL     1      48.624   6.526  17.384  0.00  0.00    +0.000 A 
ATOM     23  C   UNL     1      48.559   7.866  17.745  0.00  0.00    +0.000 A 
ATOM     24  S   UNL     1      48.548   8.120  19.431  0.00  0.00    +0.000 S 
ATOM     25  C   UNL     1      48.581   6.449  19.741  0.00  0.00    +0.000 A 
ATOM     26  N   UNL     1      48.563   5.972  21.015  0.00  0.00    +0.000 NA
ATOM     27  C   UNL     1      48.551   4.683  21.105  0.00  0.00    +0.000 A 
ATOM     28  N   UNL     1      48.566   3.827  20.035  0.00  0.00    +0.000 N 
ATOM     29  C   UNL     1      48.662   4.262  18.734  0.00  0.00    +0.000 A 
ATOM     30  O   UNL     1      48.814   3.467  17.814  0.00  0.00    +0.000 OA
ATOM     31  C   UNL     1      48.628   5.704  18.577  0.00  0.00    +0.000 A 
ATOM     32  H   UNL     1      48.589   2.828  20.170  0.00  0.00    +0.000 HD
ENDBRANCH  19  22
ENDBRANCH   1  20
TORSDOF 7
ENDMDL
MODEL 5
REMARK VINA RESULT:    -7.493      2.509      3.286
REMARK INTER + INTRA:         -11.261
REMARK INTER:                 -10.476
REMARK INTRA:                  -0.785
REMARK UNBOUND:                -0.702
REMARK  Name = 
REMARK  7 active torsions:
REMARK  status: ('A' for Active; 'I' for Inactive)
REMARK    1  A    between atoms: C_2  and  C_19
REMARK    2  A    between atoms: N_3  and  C_4
REMARK    3  A    between atoms: C_4  and  C_5
REMARK    4  A    between atoms: C_9  and  C_10
REMARK    5  A    between atoms: C_10  and  N_11
REMARK    6  A    between atoms: N_11  and  C_12
REMARK    7  A    between atoms: C_12  and  C_13
REMARK                            x       y       z     vdW  Elec       q    Type
REMARK                         _______ _______ _______ _____ _____    ______ ____
ROOT
ATOM      1  C   UNL     1      46.752   4.481  14.404  0.00  0.00    +0.000 C 
ENDROOT
BRANCH   1   2
ATOM      2  C   UNL     1      46.131   5.186  13.232  0.00  0.00    +0.000 A 
ATOM      3  C   UNL     1      46.383   6.535  12.970  0.00  0.00    +0.000 A 
ATOM      4  C   UNL     1      45.742   7.135  11.900  0.00  0.00    +0.000 A 
ATOM      5  N   UNL     1      44.893   6.487  11.077  0.00  0.00    +0.000 NA
ATOM      6  C   UNL     1      44.705   5.156  11.298  0.00  0.00    +0.000 A 
ATOM      7  C   UNL     1      45.294   4.484  12.362  0.00  0.00    +0.000 A 
BRANCH   6   8
ATOM      8  C   UNL     1      43.799   4.396  10.346  0.00  0.00    +0.000 C 
BRANCH   8   9
ATOM      9  N   UNL     1      44.508   3.439   9.482  0.00  0.00    +0.000 NA
ATOM     10  H   UNL     1      43.779   2.867   9.047  0.00  0.00    +0.000 HD
BRANCH   9  11
ATOM     11  C   UNL     1      45.236   4.125   8.403  0.00  0.00    +0.000 C 
BRANCH  11  12
ATOM     12  C   UNL     1      45.921   3.095   7.490  0.00  0.00    +0.000 C 
ATOM     13  C   UNL     1      46.186   1.770   8.186  0.00  0.00    +0.000 C 
ATOM     14  C   UNL     1      47.210   1.120   7.277  0.00  0.00    +0.000 C 
ATOM     15  C   UNL     1      47.963   2.287   6.649  0.00  0.00    +0.000 C 
ATOM     16  N   UNL     1      47.267   3.507   7.065  0.00  0.00    +0.000 NA
ATOM     17  H   UNL     1      47.208   4.170   6.295  0.00  0.00    +0.000 HD
ENDBRANCH  11  12
ENDBRANCH   9  11
ENDBRANCH   8   9
ENDBRANCH   6   8
ENDBRANCH   1   2
BRANCH   1  20
ATOM     18  O   UNL     1      48.554   3.804  16.480  0.00  0.00    +0.000 OA
ATOM     19  C   UNL     1      48.358   4.986  16.217  0.00  0.00    +0.000 C 
ATOM     20  N   UNL     1      47.477   5.392  15.248  0.00  0.00    +0.000 N 
ATOM     21  H   UNL     1      47.485   6.360  14.945  0.00  0.00    +0.000 HD
BRANCH  19  22
ATOM     22  C   UNL     1      49.023   6.064  16.962  0.00  0.00    +0.000 A 
ATOM     23  C   UNL     1      50.200   6.621  16.478  0.00  0.00    +0.000 A 
ATOM     24  S   UNL     1      50.851   7.830  17.489  0.00  0.00    +0.000 S 
ATOM     25  C   UNL     1      49.560   7.688  18.586  0.00  0.00    +0.000 A 
ATOM     26  N   UNL     1      49.491   8.476  19.693  0.00  0.00    +0.000 NA
ATOM     27  C   UNL     1      48.438   8.291  20.418  0.00  0.00    +0.000 A 
ATOM     28  N   UNL     1      47.452   7.381  20.142  0.00  0.00    +0.000 N 
ATOM     29  C   UNL     1      47.516   6.511  19.078  0.00  0.00    +0.000 A 
ATOM     30  O   UNL     1      46.687   5.620  18.944  0.00  0.00    +0.000 OA
ATOM     31  C   UNL     1      48.657   6.713  18.205  0.00  0.00    +0.000 A 
ATOM     32  H   UNL     1      46.668   7.260  20.765  0.00  0.00    +0.000 HD
ENDBRANCH  19  22
ENDBRANCH   1  20
TORSDOF 7
ENDMDL
MODEL 6
REMARK VINA RESULT:    -7.393      3.746      9.412
REMARK INTER + INTRA:         -11.120
REMARK INTER:                 -10.316
REMARK INTRA:                  -0.803
REMARK UNBOUND:                -0.702
REMARK  Name = 
REMARK  7 active torsions:
REMARK  status: ('A' for Active; 'I' for Inactive)
REMARK    1  A    between atoms: C_2  and  C_19
REMARK    2  A    between atoms: N_3  and  C_4
REMARK    3  A    between atoms: C_4  and  C_5
REMARK    4  A    between atoms: C_9  and  C_10
REMARK    5  A    between atoms: C_10  and  N_11
REMARK    6  A    between atoms: N_11  and  C_12
REMARK    7  A    between atoms: C_12  and  C_13
REMARK                            x       y       z     vdW  Elec       q    Type
REMARK                         _______ _______ _______ _____ _____    ______ ____
ROOT
ATOM      1  C   UNL     1      47.176   3.527  16.814  0.00  0.00    +0.000 C 
ENDROOT
BRANCH   1   2
ATOM      2  C   UNL     1      48.648   3.637  17.092  0.00  0.00    +0.000 A 
ATOM      3  C   UNL     1      49.259   4.870  17.329  0.00  0.00    +0.000 A 
ATOM      4  C   UNL     1      50.628   4.904  17.534  0.00  0.00    +0.000 A 
ATOM      5  N   UNL     1      51.413   3.807  17.534  0.00  0.00    +0.000 NA
ATOM      6  C   UNL     1      50.799   2.602  17.371  0.00  0.00    +0.000 A 
ATOM      7  C   UNL     1      49.434   2.483  17.139  0.00  0.00    +0.000 A 
BRANCH   6   8
ATOM      8  C   UNL     1      51.657   1.351  17.428  0.00  0.00    +0.000 C 
BRANCH   8   9
ATOM      9  N   UNL     1      52.694   1.385  18.471  0.00  0.00    +0.000 NA
ATOM     10  H   UNL     1      52.597   0.505  18.986  0.00  0.00    +0.000 HD
BRANCH   9  11
ATOM     11  C   UNL     1      54.044   1.410  17.887  0.00  0.00    +0.000 C 
BRANCH  11  12
ATOM     12  C   UNL     1      54.730   0.048  18.082  0.00  0.00    +0.000 C 
ATOM     13  C   UNL     1      54.731  -0.802  16.821  0.00  0.00    +0.000 C 
ATOM     14  C   UNL     1      55.039  -2.186  17.357  0.00  0.00    +0.000 C 
ATOM     15  C   UNL     1      54.471  -2.186  18.771  0.00  0.00    +0.000 C 
ATOM     16  N   UNL     1      54.033  -0.815  19.047  0.00  0.00    +0.000 NA
ATOM     17  H   UNL     1      54.269  -0.545  20.000  0.00  0.00    +0.000 HD
ENDBRANCH  11  12
ENDBRANCH   9  11
ENDBRANCH   8   9
ENDBRANCH   6   8
ENDBRANCH   1   2
BRANCH   1  20
ATOM     18  O   UNL     1      47.273   3.136  14.011  0.00  0.00    +0.000 OA
ATOM     19  C   UNL     1      46.810   4.181  14.456  0.00  0.00    +0.000 C 
ATOM     20  N   UNL     1      46.758   4.456  15.799  0.00  0.00    +0.000 N 
ATOM     21  H   UNL     1      46.207   5.243  16.122  0.00  0.00    +0.000 HD
BRANCH  19  22
ATOM     22  C   UNL     1      46.317   5.246  13.571  0.00  0.00    +0.000 A 
ATOM     23  C   UNL     1      47.128   6.335  13.276  0.00  0.00    +0.000 A 
ATOM     24  S   UNL     1      46.381   7.490  12.267  0.00  0.00    +0.000 S 
ATOM     25  C   UNL     1      44.966   6.555  12.149  0.00  0.00    +0.000 A 
ATOM     26  N   UNL     1      43.913   6.972  11.394  0.00  0.00    +0.000 NA
ATOM     27  C   UNL     1      42.919   6.147  11.360  0.00  0.00    +0.000 A 
ATOM     28  N   UNL     1      42.878   4.948  12.023  0.00  0.00    +0.000 N 
ATOM     29  C   UNL     1      43.885   4.522  12.857  0.00  0.00    +0.000 A 
ATOM     30  O   UNL     1      43.753   3.514  13.540  0.00  0.00    +0.000 OA
ATOM     31  C   UNL     1      45.047   5.391  12.890  0.00  0.00    +0.000 A 
ATOM     32  H   UNL     1      42.058   4.361  11.984  0.00  0.00    +0.000 HD
ENDBRANCH  19  22
ENDBRANCH   1  20
TORSDOF 7
ENDMDL
MODEL 7
REMARK VINA RESULT:    -7.266      3.762      7.906
REMARK INTER + INTRA:         -10.942
REMARK INTER:                  -9.800
REMARK INTRA:                  -1.142
REMARK UNBOUND:                -0.702
REMARK  Name = 
REMARK  7 active torsions:
REMARK  status: ('A' for Active; 'I' for Inactive)
REMARK    1  A    between atoms: C_2  and  C_19
REMARK    2  A    between atoms: N_3  and  C_4
REMARK    3  A    between atoms: C_4  and  C_5
REMARK    4  A    between atoms: C_9  and  C_10
REMARK    5  A    between atoms: C_10  and  N_11
REMARK    6  A    between atoms: N_11  and  C_12
REMARK    7  A    between atoms: C_12  and  C_13
REMARK                            x       y       z     vdW  Elec       q    Type
REMARK                         _______ _______ _______ _____ _____    ______ ____
ROOT
ATOM      1  C   UNL     1      47.242   3.492  16.722  0.00  0.00    +0.000 C 
ENDROOT
BRANCH   1   2
ATOM      2  C   UNL     1      48.701   3.727  16.989  0.00  0.00    +0.000 A 
ATOM      3  C   UNL     1      49.557   2.684  17.353  0.00  0.00    +0.000 A 
ATOM      4  C   UNL     1      50.882   2.979  17.630  0.00  0.00    +0.000 A 
ATOM      5  N   UNL     1      51.405   4.219  17.554  0.00  0.00    +0.000 NA
ATOM      6  C   UNL     1      50.581   5.218  17.133  0.00  0.00    +0.000 A 
ATOM      7  C   UNL     1      49.235   5.011  16.856  0.00  0.00    +0.000 A 
BRANCH   6   8
ATOM      8  C   UNL     1      51.166   6.611  16.984  0.00  0.00    +0.000 C 
BRANCH   8   9
ATOM      9  N   UNL     1      51.308   7.053  15.588  0.00  0.00    +0.000 NA
ATOM     10  H   UNL     1      51.336   6.197  15.029  0.00  0.00    +0.000 HD
BRANCH   9  11
ATOM     11  C   UNL     1      50.138   7.831  15.149  0.00  0.00    +0.000 C 
BRANCH  11  12
ATOM     12  C   UNL     1      50.332   8.304  13.698  0.00  0.00    +0.000 C 
ATOM     13  C   UNL     1      49.288   9.319  13.261  0.00  0.00    +0.000 C 
ATOM     14  C   UNL     1      49.414   9.290  11.751  0.00  0.00    +0.000 C 
ATOM     15  C   UNL     1      49.880   7.875  11.430  0.00  0.00    +0.000 C 
ATOM     16  N   UNL     1      50.160   7.226  12.713  0.00  0.00    +0.000 NA
ATOM     17  H   UNL     1      51.005   6.659  12.656  0.00  0.00    +0.000 HD
ENDBRANCH  11  12
ENDBRANCH   9  11
ENDBRANCH   8   9
ENDBRANCH   6   8
ENDBRANCH   1   2
BRANCH   1  20
ATOM     18  O   UNL     1      47.196   3.109  13.917  0.00  0.00    +0.000 OA
ATOM     19  C   UNL     1      46.716   4.133  14.392  0.00  0.00    +0.000 C 
ATOM     20  N   UNL     1      46.730   4.404  15.736  0.00  0.00    +0.000 N 
ATOM     21  H   UNL     1      46.167   5.167  16.093  0.00  0.00    +0.000 HD
BRANCH  19  22
ATOM     22  C   UNL     1      46.131   5.179  13.540  0.00  0.00    +0.000 A 
ATOM     23  C   UNL     1      46.824   6.362  13.317  0.00  0.00    +0.000 A 
ATOM     24  S   UNL     1      45.980   7.475  12.338  0.00  0.00    +0.000 S 
ATOM     25  C   UNL     1      44.680   6.398  12.137  0.00  0.00    +0.000 A 
ATOM     26  N   UNL     1      43.606   6.732  11.371  0.00  0.00    +0.000 NA
ATOM     27  C   UNL     1      42.710   5.806  11.271  0.00  0.00    +0.000 A 
ATOM     28  N   UNL     1      42.786   4.580  11.879  0.00  0.00    +0.000 N 
ATOM     29  C   UNL     1      43.812   4.228  12.723  0.00  0.00    +0.000 A 
ATOM     30  O   UNL     1      43.775   3.181  13.356  0.00  0.00    +0.000 OA
ATOM     31  C   UNL     1      44.870   5.216  12.828  0.00  0.00    +0.000 A 
ATOM     32  H   UNL     1      42.037   3.910  11.790  0.00  0.00    +0.000 HD
ENDBRANCH  19  22
ENDBRANCH   1  20
TORSDOF 7
ENDMDL
MODEL 8
REMARK VINA RESULT:    -7.258      1.538      2.203
REMARK INTER + INTRA:         -10.929
REMARK INTER:                 -10.023
REMARK INTRA:                  -0.906
REMARK UNBOUND:                -0.702
REMARK  Name = 
REMARK  7 active torsions:
REMARK  status: ('A' for Active; 'I' for Inactive)
REMARK    1  A    between atoms: C_2  and  C_19
REMARK    2  A    between atoms: N_3  and  C_4
REMARK    3  A    between atoms: C_4  and  C_5
REMARK    4  A    between atoms: C_9  and  C_10
REMARK    5  A    between atoms: C_10  and  N_11
REMARK    6  A    between atoms: N_11  and  C_12
REMARK    7  A    between atoms: C_12  and  C_13
REMARK                            x       y       z     vdW  Elec       q    Type
REMARK                         _______ _______ _______ _____ _____    ______ ____
ROOT
ATOM      1  C   UNL     1      47.543   4.479  16.594  0.00  0.00    +0.000 C 
ENDROOT
BRANCH   1   2
ATOM      2  C   UNL     1      47.370   4.992  15.193  0.00  0.00    +0.000 A 
ATOM      3  C   UNL     1      48.144   6.044  14.697  0.00  0.00    +0.000 A 
ATOM      4  C   UNL     1      47.901   6.498  13.412  0.00  0.00    +0.000 A 
ATOM      5  N   UNL     1      46.966   5.972  12.595  0.00  0.00    +0.000 NA
ATOM      6  C   UNL     1      46.264   4.902  13.061  0.00  0.00    +0.000 A 
ATOM      7  C   UNL     1      46.432   4.398  14.346  0.00  0.00    +0.000 A 
BRANCH   6   8
ATOM      8  C   UNL     1      45.248   4.256  12.135  0.00  0.00    +0.000 C 
BRANCH   8   9
ATOM      9  N   UNL     1      44.915   5.069  10.955  0.00  0.00    +0.000 NA
ATOM     10  H   UNL     1      45.782   5.141  10.415  0.00  0.00    +0.000 HD
BRANCH   9  11
ATOM     11  C   UNL     1      43.917   4.400  10.105  0.00  0.00    +0.000 C 
BRANCH  11  12
ATOM     12  C   UNL     1      44.570   3.928   8.796  0.00  0.00    +0.000 C 
ATOM     13  C   UNL     1      45.225   2.560   8.920  0.00  0.00    +0.000 C 
ATOM     14  C   UNL     1      46.132   2.519   7.707  0.00  0.00    +0.000 C 
ATOM     15  C   UNL     1      46.498   3.976   7.449  0.00  0.00    +0.000 C 
ATOM     16  N   UNL     1      45.690   4.780   8.370  0.00  0.00    +0.000 NA
ATOM     17  H   UNL     1      45.343   5.618   7.909  0.00  0.00    +0.000 HD
ENDBRANCH  11  12
ENDBRANCH   9  11
ENDBRANCH   8   9
ENDBRANCH   6   8
ENDBRANCH   1   2
BRANCH   1  20
ATOM     18  O   UNL     1      48.784   4.711  19.128  0.00  0.00    +0.000 OA
ATOM     19  C   UNL     1      49.448   4.340  18.166  0.00  0.00    +0.000 C 
ATOM     20  N   UNL     1      48.926   4.234  16.902  0.00  0.00    +0.000 N 
ATOM     21  H   UNL     1      49.459   3.756  16.185  0.00  0.00    +0.000 HD
BRANCH  19  22
ATOM     22  C   UNL     1      50.879   4.028  18.289  0.00  0.00    +0.000 A 
ATOM     23  C   UNL     1      51.744   4.948  18.870  0.00  0.00    +0.000 A 
ATOM     24  S   UNL     1      53.370   4.436  18.895  0.00  0.00    +0.000 S 
ATOM     25  C   UNL     1      52.973   2.949  18.173  0.00  0.00    +0.000 A 
ATOM     26  N   UNL     1      53.928   2.011  17.930  0.00  0.00    +0.000 NA
ATOM     27  C   UNL     1      53.482   0.912  17.416  0.00  0.00    +0.000 A 
ATOM     28  N   UNL     1      52.167   0.672  17.113  0.00  0.00    +0.000 N 
ATOM     29  C   UNL     1      51.181   1.616  17.269  0.00  0.00    +0.000 A 
ATOM     30  O   UNL     1      50.045   1.414  16.858  0.00  0.00    +0.000 OA
ATOM     31  C   UNL     1      51.623   2.851  17.891  0.00  0.00    +0.000 A 
ATOM     32  H   UNL     1      51.885  -0.196  16.681  0.00  0.00    +0.000 HD
ENDBRANCH  19  22
ENDBRANCH   1  20
TORSDOF 7
ENDMDL
MODEL 9
REMARK VINA RESULT:    -7.251      3.589      4.387
REMARK INTER + INTRA:         -10.920
REMARK INTER:                 -10.084
REMARK INTRA:                  -0.836
REMARK UNBOUND:                -0.702
REMARK  Name = 
REMARK  7 active torsions:
REMARK  status: ('A' for Active; 'I' for Inactive)
REMARK    1  A    between atoms: C_2  and  C_19
REMARK    2  A    between atoms: N_3  and  C_4
REMARK    3  A    between atoms: C_4  and  C_5
REMARK    4  A    between atoms: C_9  and  C_10
REMARK    5  A    between atoms: C_10  and  N_11
REMARK    6  A    between atoms: N_11  and  C_12
REMARK    7  A    between atoms: C_12  and  C_13
REMARK                            x       y       z     vdW  Elec       q    Type
REMARK                         _______ _______ _______ _____ _____    ______ ____
ROOT
ATOM      1  C   UNL     1      46.952   4.888  14.152  0.00  0.00    +0.000 C 
ENDROOT
BRANCH   1   2
ATOM      2  C   UNL     1      45.782   5.029  13.221  0.00  0.00    +0.000 A 
ATOM      3  C   UNL     1      45.256   6.280  12.890  0.00  0.00    +0.000 A 
ATOM      4  C   UNL     1      44.147   6.336  12.061  0.00  0.00    +0.000 A 
ATOM      5  N   UNL     1      43.549   5.248  11.537  0.00  0.00    +0.000 NA
ATOM      6  C   UNL     1      44.109   4.037  11.809  0.00  0.00    +0.000 A 
ATOM      7  C   UNL     1      45.208   3.892  12.648  0.00  0.00    +0.000 A 
BRANCH   6   8
ATOM      8  C   UNL     1      43.485   2.804  11.180  0.00  0.00    +0.000 C 
BRANCH   8   9
ATOM      9  N   UNL     1      44.330   2.160  10.162  0.00  0.00    +0.000 NA
ATOM     10  H   UNL     1      43.774   1.385   9.791  0.00  0.00    +0.000 HD
BRANCH   9  11
ATOM     11  C   UNL     1      44.617   3.074   9.044  0.00  0.00    +0.000 C 
BRANCH  11  12
ATOM     12  C   UNL     1      45.965   2.714   8.399  0.00  0.00    +0.000 C 
ATOM     13  C   UNL     1      46.074   3.179   6.955  0.00  0.00    +0.000 C 
ATOM     14  C   UNL     1      47.238   2.359   6.434  0.00  0.00    +0.000 C 
ATOM     15  C   UNL     1      47.203   1.075   7.253  0.00  0.00    +0.000 C 
ATOM     16  N   UNL     1      46.180   1.264   8.285  0.00  0.00    +0.000 NA
ATOM     17  H   UNL     1      46.488   0.880   9.176  0.00  0.00    +0.000 HD
ENDBRANCH  11  12
ENDBRANCH   9  11
ENDBRANCH   8   9
ENDBRANCH   6   8
ENDBRANCH   1   2
BRANCH   1  20
ATOM     18  O   UNL     1      49.043   6.387  12.970  0.00  0.00    +0.000 OA
ATOM     19  C   UNL     1      48.446   6.848  13.938  0.00  0.00    +0.000 C 
ATOM     20  N   UNL     1      47.444   6.169  14.583  0.00  0.00    +0.000 N 
ATOM     21  H   UNL     1      46.864   6.660  15.253  0.00  0.00    +0.000 HD
BRANCH  19  22
ATOM     22  C   UNL     1      48.798   8.155  14.512  0.00  0.00    +0.000 A 
ATOM     23  C   UNL     1      48.953   9.259  13.684  0.00  0.00    +0.000 A 
ATOM     24  S   UNL     1      49.398  10.680  14.515  0.00  0.00    +0.000 S 
ATOM     25  C   UNL     1      49.353   9.884  16.017  0.00  0.00    +0.000 A 
ATOM     26  N   UNL     1      49.619  10.552  17.172  0.00  0.00    +0.000 NA
ATOM     27  C   UNL     1      49.509   9.836  18.242  0.00  0.00    +0.000 A 
ATOM     28  N   UNL     1      49.170   8.508  18.260  0.00  0.00    +0.000 N 
ATOM     29  C   UNL     1      48.969   7.774  17.115  0.00  0.00    +0.000 A 
ATOM     30  O   UNL     1      48.805   6.562  17.165  0.00  0.00    +0.000 OA
ATOM     31  C   UNL     1      49.031   8.546  15.888  0.00  0.00    +0.000 A 
ATOM     32  H   UNL     1      49.133   7.994  19.127  0.00  0.00    +0.000 HD
ENDBRANCH  19  22
ENDBRANCH   1  20
TORSDOF 7
ENDMDL
