MODEL 1
REMARK VINA RESULT:    -8.362      0.000      0.000
REMARK INTER + INTRA:         -13.099
REMARK INTER:                 -11.784
REMARK INTRA:                  -1.316
REMARK UNBOUND:                -1.316
REMARK  Name = 
REMARK  8 active torsions:
REMARK  status: ('A' for Active; 'I' for Inactive)
REMARK    1  A    between atoms: C_1  and  O_2
REMARK    2  A    between atoms: O_2  and  C_3
REMARK    3  A    between atoms: C_10  and  C_11
REMARK    4  A    between atoms: N_13  and  C_14
REMARK    5  A    between atoms: C_14  and  C_15
REMARK    6  A    between atoms: C_18  and  N_19
REMARK    7  A    between atoms: N_19  and  C_20
REMARK    8  A    between atoms: C_20  and  C_21
REMARK                            x       y       z     vdW  Elec       q    Type
REMARK                         _______ _______ _______ _____ _____    ______ ____
ROOT
ATOM      1  C   UNL     1      47.769   7.125  13.719  0.00  0.00    +0.000 C 
ATOM      2  O   UNL     1      48.415   7.606  12.795  0.00  0.00    +0.000 OA
ATOM      3  N   UNL     1      46.400   7.097  13.695  0.00  0.00    +0.000 N 
ATOM      4  H   UNL     1      45.893   6.617  14.425  0.00  0.00    +0.000 HD
ENDROOT
BRANCH   1  12
ATOM      5  C   UNL     1      47.179   4.346  15.666  0.00  0.00    +0.000 A 
ATOM      6  N   UNL     1      47.151   3.372  16.598  0.00  0.00    +0.000 NA
ATOM      7  C   UNL     1      48.060   3.412  17.575  0.00  0.00    +0.000 A 
ATOM      8  N   UNL     1      49.018   4.320  17.741  0.00  0.00    +0.000 NA
ATOM      9  C   UNL     1      49.013   5.269  16.790  0.00  0.00    +0.000 A 
ATOM     10  S   UNL     1      50.172   6.508  16.837  0.00  0.00    +0.000 S 
ATOM     11  C   UNL     1      49.531   7.231  15.440  0.00  0.00    +0.000 A 
ATOM     12  C   UNL     1      48.433   6.561  14.910  0.00  0.00    +0.000 A 
ATOM     13  C   UNL     1      48.136   5.375  15.714  0.00  0.00    +0.000 A 
BRANCH   5  15
ATOM     14  C   UNL     1      46.784   3.542  13.503  0.00  0.00    +0.000 C 
ATOM     15  O   UNL     1      46.282   4.267  14.623  0.00  0.00    +0.000 OA
ENDBRANCH   5  15
ENDBRANCH   1  12
BRANCH   3  16
ATOM     16  C   UNL     1      45.636   7.628  12.597  0.00  0.00    +0.000 C 
BRANCH  16  17
ATOM     17  C   UNL     1      45.244   6.548  11.620  0.00  0.00    +0.000 A 
ATOM     18  C   UNL     1      46.041   6.264  10.506  0.00  0.00    +0.000 A 
ATOM     19  C   UNL     1      45.710   5.215   9.634  0.00  0.00    +0.000 A 
ATOM     20  C   UNL     1      44.587   4.411   9.859  0.00  0.00    +0.000 A 
ATOM     21  C   UNL     1      43.734   4.774  10.909  0.00  0.00    +0.000 A 
ATOM     22  C   UNL     1      44.062   5.815  11.789  0.00  0.00    +0.000 A 
BRANCH  20  23
ATOM     23  N   UNL     1      44.203   3.341   9.028  0.00  0.00    +0.000 N 
ATOM     24  H   UNL     1      44.036   3.681   8.082  0.00  0.00    +0.000 HD
BRANCH  23  25
ATOM     25  C   UNL     1      45.090   2.181   9.017  0.00  0.00    +0.000 C 
BRANCH  25  26
ATOM     26  C   UNL     1      45.958   2.219   7.799  0.00  0.00    +0.000 C 
ATOM     27  C   UNL     1      45.938   3.165   6.848  0.00  0.00    +0.000 C 
ATOM     28  C   UNL     1      46.954   2.926   5.785  0.00  0.00    +0.000 C 
ATOM     29  C   UNL     1      47.801   1.791   6.354  0.00  0.00    +0.000 C 
ATOM     30  C   UNL     1      47.015   1.194   7.527  0.00  0.00    +0.000 C 
ENDBRANCH  25  26
ENDBRANCH  23  25
ENDBRANCH  20  23
ENDBRANCH  16  17
ENDBRANCH   3  16
TORSDOF 7
ENDMDL
MODEL 2
REMARK VINA RESULT:    -7.869      1.126      1.558
REMARK INTER + INTRA:         -12.405
REMARK INTER:                 -11.089
REMARK INTRA:                  -1.316
REMARK UNBOUND:                -1.316
REMARK  Name = 
REMARK  8 active torsions:
REMARK  status: ('A' for Active; 'I' for Inactive)
REMARK    1  A    between atoms: C_1  and  O_2
REMARK    2  A    between atoms: O_2  and  C_3
REMARK    3  A    between atoms: C_10  and  C_11
REMARK    4  A    between atoms: N_13  and  C_14
REMARK    5  A    between atoms: C_14  and  C_15
REMARK    6  A    between atoms: C_18  and  N_19
REMARK    7  A    between atoms: N_19  and  C_20
REMARK    8  A    between atoms: C_20  and  C_21
REMARK                            x       y       z     vdW  Elec       q    Type
REMARK                         _______ _______ _______ _____ _____    ______ ____
ROOT
ATOM      1  C   UNL     1      48.908   6.980  14.920  0.00  0.00    +0.000 C 
ATOM      2  O   UNL     1      49.814   7.391  14.203  0.00  0.00    +0.000 OA
ATOM      3  N   UNL     1      47.600   7.298  14.669  0.00  0.00    +0.000 N 
ATOM      4  H   UNL     1      46.864   6.878  15.219  0.00  0.00    +0.000 HD
ENDROOT
BRANCH   1  12
ATOM      5  C   UNL     1      47.325   4.240  16.279  0.00  0.00    +0.000 A 
ATOM      6  N   UNL     1      46.891   3.205  17.027  0.00  0.00    +0.000 NA
ATOM      7  C   UNL     1      47.579   2.896  18.129  0.00  0.00    +0.000 A 
ATOM      8  N   UNL     1      48.672   3.500  18.586  0.00  0.00    +0.000 NA
ATOM      9  C   UNL     1      49.071   4.523  17.811  0.00  0.00    +0.000 A 
ATOM     10  S   UNL     1      50.455   5.407  18.238  0.00  0.00    +0.000 S 
ATOM     11  C   UNL     1      50.281   6.428  16.891  0.00  0.00    +0.000 A 
ATOM     12  C   UNL     1      49.180   6.130  16.095  0.00  0.00    +0.000 A 
ATOM     13  C   UNL     1      48.467   4.976  16.641  0.00  0.00    +0.000 A 
BRANCH   5  15
ATOM     14  C   UNL     1      47.025   3.663  14.030  0.00  0.00    +0.000 C 
ATOM     15  O   UNL     1      46.652   4.516  15.108  0.00  0.00    +0.000 OA
ENDBRANCH   5  15
ENDBRANCH   1  12
BRANCH   3  16
ATOM     16  C   UNL     1      47.206   8.131  13.563  0.00  0.00    +0.000 C 
BRANCH  16  17
ATOM     17  C   UNL     1      46.365   7.371  12.569  0.00  0.00    +0.000 A 
ATOM     18  C   UNL     1      46.960   6.661  11.521  0.00  0.00    +0.000 A 
ATOM     19  C   UNL     1      46.180   5.901  10.635  0.00  0.00    +0.000 A 
ATOM     20  C   UNL     1      44.791   5.813  10.781  0.00  0.00    +0.000 A 
ATOM     21  C   UNL     1      44.195   6.616  11.761  0.00  0.00    +0.000 A 
ATOM     22  C   UNL     1      44.967   7.372  12.654  0.00  0.00    +0.000 A 
BRANCH  20  23
ATOM     23  N   UNL     1      43.954   5.063   9.932  0.00  0.00    +0.000 N 
ATOM     24  H   UNL     1      44.054   5.390   8.973  0.00  0.00    +0.000 HD
BRANCH  23  25
ATOM     25  C   UNL     1      44.091   3.611  10.007  0.00  0.00    +0.000 C 
BRANCH  25  26
ATOM     26  C   UNL     1      44.959   3.127   8.889  0.00  0.00    +0.000 C 
ATOM     27  C   UNL     1      45.380   3.859   7.846  0.00  0.00    +0.000 C 
ATOM     28  C   UNL     1      46.262   3.086   6.927  0.00  0.00    +0.000 C 
ATOM     29  C   UNL     1      46.533   1.797   7.697  0.00  0.00    +0.000 C 
ATOM     30  C   UNL     1      45.512   1.736   8.838  0.00  0.00    +0.000 C 
ENDBRANCH  25  26
ENDBRANCH  23  25
ENDBRANCH  20  23
ENDBRANCH  16  17
ENDBRANCH   3  16
TORSDOF 7
ENDMDL
MODEL 3
REMARK VINA RESULT:    -7.544      1.900      2.684
REMARK INTER + INTRA:         -11.948
REMARK INTER:                 -11.022
REMARK INTRA:                  -0.925
REMARK UNBOUND:                -1.316
REMARK  Name = 
REMARK  8 active torsions:
REMARK  status: ('A' for Active; 'I' for Inactive)
REMARK    1  A    between atoms: C_1  and  O_2
REMARK    2  A    between atoms: O_2  and  C_3
REMARK    3  A    between atoms: C_10  and  C_11
REMARK    4  A    between atoms: N_13  and  C_14
REMARK    5  A    between atoms: C_14  and  C_15
REMARK    6  A    between atoms: C_18  and  N_19
REMARK    7  A    between atoms: N_19  and  C_20
REMARK    8  A    between atoms: C_20  and  C_21
REMARK                            x       y       z     vdW  Elec       q    Type
REMARK                         _______ _______ _______ _____ _____    ______ ____
ROOT
ATOM      1  C   UNL     1      47.954   5.724  14.993  0.00  0.00    +0.000 C 
ATOM      2  O   UNL     1      48.940   6.267  14.505  0.00  0.00    +0.000 OA
ATOM      3  N   UNL     1      46.734   5.768  14.371  0.00  0.00    +0.000 N 
ATOM      4  H   UNL     1      45.958   5.241  14.745  0.00  0.00    +0.000 HD
ENDROOT
BRANCH   1  12
ATOM      5  C   UNL     1      48.689   6.698  18.213  0.00  0.00    +0.000 A 
ATOM      6  N   UNL     1      48.973   6.797  19.528  0.00  0.00    +0.000 NA
ATOM      7  C   UNL     1      48.931   5.683  20.263  0.00  0.00    +0.000 A 
ATOM      8  N   UNL     1      48.631   4.457  19.844  0.00  0.00    +0.000 NA
ATOM      9  C   UNL     1      48.353   4.403  18.531  0.00  0.00    +0.000 A 
ATOM     10  S   UNL     1      47.942   2.918  17.821  0.00  0.00    +0.000 S 
ATOM     11  C   UNL     1      47.775   3.637  16.291  0.00  0.00    +0.000 A 
ATOM     12  C   UNL     1      48.028   5.004  16.279  0.00  0.00    +0.000 A 
ATOM     13  C   UNL     1      48.358   5.463  17.628  0.00  0.00    +0.000 A 
BRANCH   5  15
ATOM     14  C   UNL     1      49.971   8.331  17.131  0.00  0.00    +0.000 C 
ATOM     15  O   UNL     1      48.670   7.857  17.468  0.00  0.00    +0.000 OA
ENDBRANCH   5  15
ENDBRANCH   1  12
BRANCH   3  16
ATOM     16  C   UNL     1      46.529   6.451  13.120  0.00  0.00    +0.000 C 
BRANCH  16  17
ATOM     17  C   UNL     1      45.896   5.546  12.092  0.00  0.00    +0.000 A 
ATOM     18  C   UNL     1      45.739   5.966  10.767  0.00  0.00    +0.000 A 
ATOM     19  C   UNL     1      45.210   5.100   9.798  0.00  0.00    +0.000 A 
ATOM     20  C   UNL     1      44.843   3.788  10.118  0.00  0.00    +0.000 A 
ATOM     21  C   UNL     1      44.897   3.415  11.467  0.00  0.00    +0.000 A 
ATOM     22  C   UNL     1      45.431   4.273  12.440  0.00  0.00    +0.000 A 
BRANCH  20  23
ATOM     23  N   UNL     1      44.313   2.868   9.192  0.00  0.00    +0.000 N 
ATOM     24  H   UNL     1      44.024   3.357   8.347  0.00  0.00    +0.000 HD
BRANCH  23  25
ATOM     25  C   UNL     1      45.155   1.719   8.870  0.00  0.00    +0.000 C 
BRANCH  25  26
ATOM     26  C   UNL     1      46.028   2.044   7.699  0.00  0.00    +0.000 C 
ATOM     27  C   UNL     1      45.905   3.114   6.900  0.00  0.00    +0.000 C 
ATOM     28  C   UNL     1      46.958   3.162   5.847  0.00  0.00    +0.000 C 
ATOM     29  C   UNL     1      47.929   2.062   6.266  0.00  0.00    +0.000 C 
ATOM     30  C   UNL     1      47.206   1.205   7.312  0.00  0.00    +0.000 C 
ENDBRANCH  25  26
ENDBRANCH  23  25
ENDBRANCH  20  23
ENDBRANCH  16  17
ENDBRANCH   3  16
TORSDOF 7
ENDMDL
MODEL 4
REMARK VINA RESULT:    -7.390      1.819      2.451
REMARK INTER + INTRA:         -11.730
REMARK INTER:                 -10.712
REMARK INTRA:                  -1.017
REMARK UNBOUND:                -1.316
REMARK  Name = 
REMARK  8 active torsions:
REMARK  status: ('A' for Active; 'I' for Inactive)
REMARK    1  A    between atoms: C_1  and  O_2
REMARK    2  A    between atoms: O_2  and  C_3
REMARK    3  A    between atoms: C_10  and  C_11
REMARK    4  A    between atoms: N_13  and  C_14
REMARK    5  A    between atoms: C_14  and  C_15
REMARK    6  A    between atoms: C_18  and  N_19
REMARK    7  A    between atoms: N_19  and  C_20
REMARK    8  A    between atoms: C_20  and  C_21
REMARK                            x       y       z     vdW  Elec       q    Type
REMARK                         _______ _______ _______ _____ _____    ______ ____
ROOT
ATOM      1  C   UNL     1      48.896   7.173  15.382  0.00  0.00    +0.000 C 
ATOM      2  O   UNL     1      49.942   6.993  14.766  0.00  0.00    +0.000 OA
ATOM      3  N   UNL     1      47.713   7.393  14.729  0.00  0.00    +0.000 N 
ATOM      4  H   UNL     1      46.851   7.451  15.253  0.00  0.00    +0.000 HD
ENDROOT
BRANCH   1  12
ATOM      5  C   UNL     1      48.769   4.672  17.746  0.00  0.00    +0.000 A 
ATOM      6  N   UNL     1      48.680   3.911  18.856  0.00  0.00    +0.000 NA
ATOM      7  C   UNL     1      48.616   4.531  20.037  0.00  0.00    +0.000 A 
ATOM      8  N   UNL     1      48.635   5.842  20.256  0.00  0.00    +0.000 NA
ATOM      9  C   UNL     1      48.727   6.563  19.126  0.00  0.00    +0.000 A 
ATOM     10  S   UNL     1      48.770   8.257  19.214  0.00  0.00    +0.000 S 
ATOM     11  C   UNL     1      48.864   8.393  17.523  0.00  0.00    +0.000 A 
ATOM     12  C   UNL     1      48.861   7.172  16.857  0.00  0.00    +0.000 A 
ATOM     13  C   UNL     1      48.796   6.076  17.823  0.00  0.00    +0.000 A 
BRANCH   5  15
ATOM     14  C   UNL     1      48.241   2.769  16.490  0.00  0.00    +0.000 C 
ATOM     15  O   UNL     1      48.900   4.032  16.533  0.00  0.00    +0.000 OA
ENDBRANCH   5  15
ENDBRANCH   1  12
BRANCH   3  16
ATOM     16  C   UNL     1      47.618   7.432  13.293  0.00  0.00    +0.000 C 
BRANCH  16  17
ATOM     17  C   UNL     1      46.804   6.280  12.759  0.00  0.00    +0.000 A 
ATOM     18  C   UNL     1      46.023   6.425  11.608  0.00  0.00    +0.000 A 
ATOM     19  C   UNL     1      45.318   5.334  11.076  0.00  0.00    +0.000 A 
ATOM     20  C   UNL     1      45.388   4.067  11.666  0.00  0.00    +0.000 A 
ATOM     21  C   UNL     1      46.079   3.958  12.879  0.00  0.00    +0.000 A 
ATOM     22  C   UNL     1      46.791   5.042  13.413  0.00  0.00    +0.000 A 
BRANCH  20  23
ATOM     23  N   UNL     1      44.712   2.931  11.179  0.00  0.00    +0.000 N 
ATOM     24  H   UNL     1      43.998   2.643  11.845  0.00  0.00    +0.000 HD
BRANCH  23  25
ATOM     25  C   UNL     1      44.158   3.037   9.832  0.00  0.00    +0.000 C 
BRANCH  25  26
ATOM     26  C   UNL     1      45.225   2.750   8.823  0.00  0.00    +0.000 C 
ATOM     27  C   UNL     1      45.791   1.554   8.594  0.00  0.00    +0.000 C 
ATOM     28  C   UNL     1      46.797   1.601   7.497  0.00  0.00    +0.000 C 
ATOM     29  C   UNL     1      46.598   2.988   6.892  0.00  0.00    +0.000 C 
ATOM     30  C   UNL     1      45.760   3.793   7.892  0.00  0.00    +0.000 C 
ENDBRANCH  25  26
ENDBRANCH  23  25
ENDBRANCH  20  23
ENDBRANCH  16  17
ENDBRANCH   3  16
TORSDOF 7
ENDMDL
MODEL 5
REMARK VINA RESULT:    -7.344      2.149      3.648
REMARK INTER + INTRA:         -11.665
REMARK INTER:                 -10.415
REMARK INTRA:                  -1.249
REMARK UNBOUND:                -1.316
REMARK  Name = 
REMARK  8 active torsions:
REMARK  status: ('A' for Active; 'I' for Inactive)
REMARK    1  A    between atoms: C_1  and  O_2
REMARK    2  A    between atoms: O_2  and  C_3
REMARK    3  A    between atoms: C_10  and  C_11
REMARK    4  A    between atoms: N_13  and  C_14
REMARK    5  A    between atoms: C_14  and  C_15
REMARK    6  A    between atoms: C_18  and  N_19
REMARK    7  A    between atoms: N_19  and  C_20
REMARK    8  A    between atoms: C_20  and  C_21
REMARK                            x       y       z     vdW  Elec       q    Type
REMARK                         _______ _______ _______ _____ _____    ______ ____
ROOT
ATOM      1  C   UNL     1      48.425   5.814  15.877  0.00  0.00    +0.000 C 
ATOM      2  O   UNL     1      48.703   4.813  16.529  0.00  0.00    +0.000 OA
ATOM      3  N   UNL     1      47.482   5.780  14.884  0.00  0.00    +0.000 N 
ATOM      4  H   UNL     1      47.207   6.634  14.421  0.00  0.00    +0.000 HD
ENDROOT
BRANCH   1  12
ATOM      5  C   UNL     1      49.915   8.136  13.815  0.00  0.00    +0.000 A 
ATOM      6  N   UNL     1      50.583   9.164  13.255  0.00  0.00    +0.000 NA
ATOM      7  C   UNL     1      51.068  10.111  14.063  0.00  0.00    +0.000 A 
ATOM      8  N   UNL     1      50.964  10.163  15.388  0.00  0.00    +0.000 NA
ATOM      9  C   UNL     1      50.291   9.122  15.904  0.00  0.00    +0.000 A 
ATOM     10  S   UNL     1      50.055   9.025  17.582  0.00  0.00    +0.000 S 
ATOM     11  C   UNL     1      49.216   7.555  17.432  0.00  0.00    +0.000 A 
ATOM     12  C   UNL     1      49.098   7.104  16.121  0.00  0.00    +0.000 A 
ATOM     13  C   UNL     1      49.730   8.055  15.207  0.00  0.00    +0.000 A 
BRANCH   5  15
ATOM     14  C   UNL     1      49.288   7.622  11.618  0.00  0.00    +0.000 C 
ATOM     15  O   UNL     1      49.359   7.194  12.976  0.00  0.00    +0.000 OA
ENDBRANCH   5  15
ENDBRANCH   1  12
BRANCH   3  16
ATOM     16  C   UNL     1      46.766   4.579  14.540  0.00  0.00    +0.000 C 
BRANCH  16  17
ATOM     17  C   UNL     1      46.210   4.648  13.139  0.00  0.00    +0.000 A 
ATOM     18  C   UNL     1      46.309   5.822  12.385  0.00  0.00    +0.000 A 
ATOM     19  C   UNL     1      45.849   5.864  11.059  0.00  0.00    +0.000 A 
ATOM     20  C   UNL     1      45.297   4.734  10.446  0.00  0.00    +0.000 A 
ATOM     21  C   UNL     1      45.099   3.600  11.243  0.00  0.00    +0.000 A 
ATOM     22  C   UNL     1      45.562   3.548  12.566  0.00  0.00    +0.000 A 
BRANCH  20  23
ATOM     23  N   UNL     1      44.825   4.708   9.119  0.00  0.00    +0.000 N 
ATOM     24  H   UNL     1      45.464   5.221   8.515  0.00  0.00    +0.000 HD
BRANCH  23  25
ATOM     25  C   UNL     1      44.525   3.391   8.565  0.00  0.00    +0.000 C 
BRANCH  25  26
ATOM     26  C   UNL     1      45.737   2.842   7.880  0.00  0.00    +0.000 C 
ATOM     27  C   UNL     1      46.281   1.634   8.091  0.00  0.00    +0.000 C 
ATOM     28  C   UNL     1      47.463   1.382   7.221  0.00  0.00    +0.000 C 
ATOM     29  C   UNL     1      47.432   2.547   6.235  0.00  0.00    +0.000 C 
ATOM     30  C   UNL     1      46.470   3.592   6.811  0.00  0.00    +0.000 C 
ENDBRANCH  25  26
ENDBRANCH  23  25
ENDBRANCH  20  23
ENDBRANCH  16  17
ENDBRANCH   3  16
TORSDOF 7
ENDMDL
MODEL 6
REMARK VINA RESULT:    -7.174      2.150      3.089
REMARK INTER + INTRA:         -11.425
REMARK INTER:                 -10.552
REMARK INTRA:                  -0.873
REMARK UNBOUND:                -1.316
REMARK  Name = 
REMARK  8 active torsions:
REMARK  status: ('A' for Active; 'I' for Inactive)
REMARK    1  A    between atoms: C_1  and  O_2
REMARK    2  A    between atoms: O_2  and  C_3
REMARK    3  A    between atoms: C_10  and  C_11
REMARK    4  A    between atoms: N_13  and  C_14
REMARK    5  A    between atoms: C_14  and  C_15
REMARK    6  A    between atoms: C_18  and  N_19
REMARK    7  A    between atoms: N_19  and  C_20
REMARK    8  A    between atoms: C_20  and  C_21
REMARK                            x       y       z     vdW  Elec       q    Type
REMARK                         _______ _______ _______ _____ _____    ______ ____
ROOT
ATOM      1  C   UNL     1      47.743   4.958  16.439  0.00  0.00    +0.000 C 
ATOM      2  O   UNL     1      47.118   4.347  17.300  0.00  0.00    +0.000 OA
ATOM      3  N   UNL     1      47.317   4.994  15.138  0.00  0.00    +0.000 N 
ATOM      4  H   UNL     1      47.798   5.574  14.466  0.00  0.00    +0.000 HD
ENDROOT
BRANCH   1  12
ATOM      5  C   UNL     1      50.751   3.986  17.807  0.00  0.00    +0.000 A 
ATOM      6  N   UNL     1      51.983   3.889  18.346  0.00  0.00    +0.000 NA
ATOM      7  C   UNL     1      52.717   5.001  18.439  0.00  0.00    +0.000 A 
ATOM      8  N   UNL     1      52.370   6.224  18.049  0.00  0.00    +0.000 NA
ATOM      9  C   UNL     1      51.137   6.277  17.517  0.00  0.00    +0.000 A 
ATOM     10  S   UNL     1      50.529   7.759  16.958  0.00  0.00    +0.000 S 
ATOM     11  C   UNL     1      49.059   7.041  16.499  0.00  0.00    +0.000 A 
ATOM     12  C   UNL     1      48.992   5.676  16.758  0.00  0.00    +0.000 A 
ATOM     13  C   UNL     1      50.247   5.218  17.354  0.00  0.00    +0.000 A 
BRANCH   5  15
ATOM     14  C   UNL     1      50.764   1.770  17.053  0.00  0.00    +0.000 C 
ATOM     15  O   UNL     1      50.020   2.828  17.652  0.00  0.00    +0.000 OA
ENDBRANCH   5  15
ENDBRANCH   1  12
BRANCH   3  16
ATOM     16  C   UNL     1      46.123   4.321  14.697  0.00  0.00    +0.000 C 
BRANCH  16  17
ATOM     17  C   UNL     1      45.869   4.549  13.228  0.00  0.00    +0.000 A 
ATOM     18  C   UNL     1      46.248   5.746  12.611  0.00  0.00    +0.000 A 
ATOM     19  C   UNL     1      46.070   5.930  11.231  0.00  0.00    +0.000 A 
ATOM     20  C   UNL     1      45.529   4.920  10.427  0.00  0.00    +0.000 A 
ATOM     21  C   UNL     1      45.050   3.772  11.070  0.00  0.00    +0.000 A 
ATOM     22  C   UNL     1      45.230   3.578  12.447  0.00  0.00    +0.000 A 
BRANCH  20  23
ATOM     23  N   UNL     1      45.331   5.039   9.037  0.00  0.00    +0.000 N 
ATOM     24  H   UNL     1      46.206   5.294   8.585  0.00  0.00    +0.000 HD
BRANCH  23  25
ATOM     25  C   UNL     1      44.712   3.895   8.373  0.00  0.00    +0.000 C 
BRANCH  25  26
ATOM     26  C   UNL     1      45.759   3.097   7.662  0.00  0.00    +0.000 C 
ATOM     27  C   UNL     1      46.478   3.505   6.605  0.00  0.00    +0.000 C 
ATOM     28  C   UNL     1      47.463   2.483   6.156  0.00  0.00    +0.000 C 
ATOM     29  C   UNL     1      47.423   1.440   7.270  0.00  0.00    +0.000 C 
ATOM     30  C   UNL     1      46.168   1.725   8.102  0.00  0.00    +0.000 C 
ENDBRANCH  25  26
ENDBRANCH  23  25
ENDBRANCH  20  23
ENDBRANCH  16  17
ENDBRANCH   3  16
TORSDOF 7
ENDMDL
MODEL 7
REMARK VINA RESULT:    -6.902      2.205      3.264
REMARK INTER + INTRA:         -11.043
REMARK INTER:                 -10.107
REMARK INTRA:                  -0.936
REMARK UNBOUND:                -1.316
REMARK  Name = 
REMARK  8 active torsions:
REMARK  status: ('A' for Active; 'I' for Inactive)
REMARK    1  A    between atoms: C_1  and  O_2
REMARK    2  A    between atoms: O_2  and  C_3
REMARK    3  A    between atoms: C_10  and  C_11
REMARK    4  A    between atoms: N_13  and  C_14
REMARK    5  A    between atoms: C_14  and  C_15
REMARK    6  A    between atoms: C_18  and  N_19
REMARK    7  A    between atoms: N_19  and  C_20
REMARK    8  A    between atoms: C_20  and  C_21
REMARK                            x       y       z     vdW  Elec       q    Type
REMARK                         _______ _______ _______ _____ _____    ______ ____
ROOT
ATOM      1  C   UNL     1      48.694   6.816  15.710  0.00  0.00    +0.000 C 
ATOM      2  O   UNL     1      48.963   8.013  15.697  0.00  0.00    +0.000 OA
ATOM      3  N   UNL     1      47.952   6.240  14.714  0.00  0.00    +0.000 N 
ATOM      4  H   UNL     1      47.818   5.239  14.700  0.00  0.00    +0.000 HD
ENDROOT
BRANCH   1  12
ATOM      5  C   UNL     1      51.801   5.837  16.829  0.00  0.00    +0.000 A 
ATOM      6  N   UNL     1      52.866   5.274  17.434  0.00  0.00    +0.000 NA
ATOM      7  C   UNL     1      52.640   4.422  18.436  0.00  0.00    +0.000 A 
ATOM      8  N   UNL     1      51.459   4.056  18.925  0.00  0.00    +0.000 NA
ATOM      9  C   UNL     1      50.425   4.641  18.297  0.00  0.00    +0.000 A 
ATOM     10  S   UNL     1      48.839   4.296  18.793  0.00  0.00    +0.000 S 
ATOM     11  C   UNL     1      48.190   5.320  17.602  0.00  0.00    +0.000 A 
ATOM     12  C   UNL     1      49.148   5.938  16.806  0.00  0.00    +0.000 A 
ATOM     13  C   UNL     1      50.488   5.541  17.237  0.00  0.00    +0.000 A 
BRANCH   5  15
ATOM     14  C   UNL     1      53.241   7.502  16.033  0.00  0.00    +0.000 C 
ATOM     15  O   UNL     1      52.037   6.765  15.837  0.00  0.00    +0.000 OA
ENDBRANCH   5  15
ENDBRANCH   1  12
BRANCH   3  16
ATOM     16  C   UNL     1      47.439   6.992  13.599  0.00  0.00    +0.000 C 
BRANCH  16  17
ATOM     17  C   UNL     1      46.595   6.133  12.692  0.00  0.00    +0.000 A 
ATOM     18  C   UNL     1      46.178   6.602  11.442  0.00  0.00    +0.000 A 
ATOM     19  C   UNL     1      45.447   5.778  10.572  0.00  0.00    +0.000 A 
ATOM     20  C   UNL     1      45.130   4.459  10.917  0.00  0.00    +0.000 A 
ATOM     21  C   UNL     1      45.452   4.036  12.212  0.00  0.00    +0.000 A 
ATOM     22  C   UNL     1      46.188   4.851  13.084  0.00  0.00    +0.000 A 
BRANCH  20  23
ATOM     23  N   UNL     1      44.407   3.579  10.087  0.00  0.00    +0.000 N 
ATOM     24  H   UNL     1      43.437   3.536  10.393  0.00  0.00    +0.000 HD
BRANCH  23  25
ATOM     25  C   UNL     1      44.494   3.826   8.651  0.00  0.00    +0.000 C 
BRANCH  25  26
ATOM     26  C   UNL     1      45.601   3.009   8.063  0.00  0.00    +0.000 C 
ATOM     27  C   UNL     1      45.842   1.714   8.316  0.00  0.00    +0.000 C 
ATOM     28  C   UNL     1      47.000   1.188   7.541  0.00  0.00    +0.000 C 
ATOM     29  C   UNL     1      47.306   2.313   6.555  0.00  0.00    +0.000 C 
ATOM     30  C   UNL     1      46.562   3.557   7.054  0.00  0.00    +0.000 C 
ENDBRANCH  25  26
ENDBRANCH  23  25
ENDBRANCH  20  23
ENDBRANCH  16  17
ENDBRANCH   3  16
TORSDOF 7
ENDMDL
MODEL 8
REMARK VINA RESULT:    -6.736      1.946      2.762
REMARK INTER + INTRA:         -10.808
REMARK INTER:                  -9.475
REMARK INTRA:                  -1.333
REMARK UNBOUND:                -1.316
REMARK  Name = 
REMARK  8 active torsions:
REMARK  status: ('A' for Active; 'I' for Inactive)
REMARK    1  A    between atoms: C_1  and  O_2
REMARK    2  A    between atoms: O_2  and  C_3
REMARK    3  A    between atoms: C_10  and  C_11
REMARK    4  A    between atoms: N_13  and  C_14
REMARK    5  A    between atoms: C_14  and  C_15
REMARK    6  A    between atoms: C_18  and  N_19
REMARK    7  A    between atoms: N_19  and  C_20
REMARK    8  A    between atoms: C_20  and  C_21
REMARK                            x       y       z     vdW  Elec       q    Type
REMARK                         _______ _______ _______ _____ _____    ______ ____
ROOT
ATOM      1  C   UNL     1      49.331   7.618  15.436  0.00  0.00    +0.000 C 
ATOM      2  O   UNL     1      48.919   8.735  15.730  0.00  0.00    +0.000 OA
ATOM      3  N   UNL     1      48.708   6.855  14.485  0.00  0.00    +0.000 N 
ATOM      4  H   UNL     1      49.116   5.977  14.197  0.00  0.00    +0.000 HD
ENDROOT
BRANCH   1  12
ATOM      5  C   UNL     1      49.892   4.651  17.093  0.00  0.00    +0.000 A 
ATOM      6  N   UNL     1      50.365   3.611  17.809  0.00  0.00    +0.000 NA
ATOM      7  C   UNL     1      51.627   3.668  18.240  0.00  0.00    +0.000 A 
ATOM      8  N   UNL     1      52.499   4.652  18.038  0.00  0.00    +0.000 NA
ATOM      9  C   UNL     1      51.989   5.667  17.320  0.00  0.00    +0.000 A 
ATOM     10  S   UNL     1      52.962   7.009  16.959  0.00  0.00    +0.000 S 
ATOM     11  C   UNL     1      51.693   7.769  16.123  0.00  0.00    +0.000 A 
ATOM     12  C   UNL     1      50.513   7.034  16.100  0.00  0.00    +0.000 A 
ATOM     13  C   UNL     1      50.700   5.766  16.804  0.00  0.00    +0.000 A 
BRANCH   5  15
ATOM     14  C   UNL     1      47.930   3.378  16.999  0.00  0.00    +0.000 C 
ATOM     15  O   UNL     1      48.611   4.563  16.594  0.00  0.00    +0.000 OA
ENDBRANCH   5  15
ENDBRANCH   1  12
BRANCH   3  16
ATOM     16  C   UNL     1      47.539   7.305  13.777  0.00  0.00    +0.000 C 
BRANCH  16  17
ATOM     17  C   UNL     1      46.717   6.147  13.269  0.00  0.00    +0.000 A 
ATOM     18  C   UNL     1      45.524   6.364  12.572  0.00  0.00    +0.000 A 
ATOM     19  C   UNL     1      44.795   5.287  12.044  0.00  0.00    +0.000 A 
ATOM     20  C   UNL     1      45.244   3.969  12.180  0.00  0.00    +0.000 A 
ATOM     21  C   UNL     1      46.376   3.753  12.975  0.00  0.00    +0.000 A 
ATOM     22  C   UNL     1      47.114   4.824  13.500  0.00  0.00    +0.000 A 
BRANCH  20  23
ATOM     23  N   UNL     1      44.564   2.847  11.668  0.00  0.00    +0.000 N 
ATOM     24  H   UNL     1      43.964   2.449  12.388  0.00  0.00    +0.000 HD
BRANCH  23  25
ATOM     25  C   UNL     1      43.825   3.050  10.425  0.00  0.00    +0.000 C 
BRANCH  25  26
ATOM     26  C   UNL     1      44.763   2.977   9.262  0.00  0.00    +0.000 C 
ATOM     27  C   UNL     1      45.188   4.016   8.527  0.00  0.00    +0.000 C 
ATOM     28  C   UNL     1      46.147   3.607   7.463  0.00  0.00    +0.000 C 
ATOM     29  C   UNL     1      46.455   2.152   7.804  0.00  0.00    +0.000 C 
ATOM     30  C   UNL     1      45.391   1.695   8.809  0.00  0.00    +0.000 C 
ENDBRANCH  25  26
ENDBRANCH  23  25
ENDBRANCH  20  23
ENDBRANCH  16  17
ENDBRANCH   3  16
TORSDOF 7
ENDMDL
MODEL 9
REMARK VINA RESULT:    -6.387      4.025      8.860
REMARK INTER + INTRA:         -10.317
REMARK INTER:                  -9.303
REMARK INTRA:                  -1.014
REMARK UNBOUND:                -1.316
REMARK  Name = 
REMARK  8 active torsions:
REMARK  status: ('A' for Active; 'I' for Inactive)
REMARK    1  A    between atoms: C_1  and  O_2
REMARK    2  A    between atoms: O_2  and  C_3
REMARK    3  A    between atoms: C_10  and  C_11
REMARK    4  A    between atoms: N_13  and  C_14
REMARK    5  A    between atoms: C_14  and  C_15
REMARK    6  A    between atoms: C_18  and  N_19
REMARK    7  A    between atoms: N_19  and  C_20
REMARK    8  A    between atoms: C_20  and  C_21
REMARK                            x       y       z     vdW  Elec       q    Type
REMARK                         _______ _______ _______ _____ _____    ______ ____
ROOT
ATOM      1  C   UNL     1      46.941   4.336  14.495  0.00  0.00    +0.000 C 
ATOM      2  O   UNL     1      47.177   3.238  14.003  0.00  0.00    +0.000 OA
ATOM      3  N   UNL     1      47.039   4.551  15.844  0.00  0.00    +0.000 N 
ATOM      4  H   UNL     1      46.926   5.483  16.216  0.00  0.00    +0.000 HD
ENDROOT
BRANCH   1  12
ATOM      5  C   UNL     1      44.093   5.052  12.696  0.00  0.00    +0.000 A 
ATOM      6  N   UNL     1      43.132   5.554  11.894  0.00  0.00    +0.000 NA
ATOM      7  C   UNL     1      43.364   6.725  11.295  0.00  0.00    +0.000 A 
ATOM      8  N   UNL     1      44.456   7.477  11.402  0.00  0.00    +0.000 NA
ATOM      9  C   UNL     1      45.386   6.942  12.211  0.00  0.00    +0.000 A 
ATOM     10  S   UNL     1      46.845   7.768  12.472  0.00  0.00    +0.000 S 
ATOM     11  C   UNL     1      47.418   6.538  13.495  0.00  0.00    +0.000 A 
ATOM     12  C   UNL     1      46.529   5.481  13.660  0.00  0.00    +0.000 A 
ATOM     13  C   UNL     1      45.304   5.735  12.902  0.00  0.00    +0.000 A 
BRANCH   5  15
ATOM     14  C   UNL     1      43.760   2.742  12.501  0.00  0.00    +0.000 C 
ATOM     15  O   UNL     1      43.827   3.876  13.363  0.00  0.00    +0.000 OA
ENDBRANCH   5  15
ENDBRANCH   1  12
BRANCH   3  16
ATOM     16  C   UNL     1      47.417   3.512  16.766  0.00  0.00    +0.000 C 
BRANCH  16  17
ATOM     17  C   UNL     1      48.898   3.537  17.052  0.00  0.00    +0.000 A 
ATOM     18  C   UNL     1      49.557   4.741  17.322  0.00  0.00    +0.000 A 
ATOM     19  C   UNL     1      50.921   4.755  17.652  0.00  0.00    +0.000 A 
ATOM     20  C   UNL     1      51.659   3.569  17.741  0.00  0.00    +0.000 A 
ATOM     21  C   UNL     1      51.021   2.383  17.359  0.00  0.00    +0.000 A 
ATOM     22  C   UNL     1      49.656   2.360  17.035  0.00  0.00    +0.000 A 
BRANCH  20  23
ATOM     23  N   UNL     1      53.027   3.514  18.073  0.00  0.00    +0.000 N 
ATOM     24  H   UNL     1      53.348   4.435  18.365  0.00  0.00    +0.000 HD
BRANCH  23  25
ATOM     25  C   UNL     1      53.416   2.492  19.042  0.00  0.00    +0.000 C 
BRANCH  25  26
ATOM     26  C   UNL     1      54.358   1.522  18.402  0.00  0.00    +0.000 C 
ATOM     27  C   UNL     1      54.909   0.452  18.995  0.00  0.00    +0.000 C 
ATOM     28  C   UNL     1      55.775  -0.330  18.069  0.00  0.00    +0.000 C 
ATOM     29  C   UNL     1      55.483   0.289  16.705  0.00  0.00    +0.000 C 
ATOM     30  C   UNL     1      54.760   1.615  16.962  0.00  0.00    +0.000 C 
ENDBRANCH  25  26
ENDBRANCH  23  25
ENDBRANCH  20  23
ENDBRANCH  16  17
ENDBRANCH   3  16
TORSDOF 7
ENDMDL
