MODEL 1
REMARK VINA RESULT:    -9.108      0.000      0.000
REMARK INTER + INTRA:         -12.214
REMARK INTER:                 -11.770
REMARK INTRA:                  -0.443
REMARK UNBOUND:                -0.443
REMARK  Name = 
REMARK  7 active torsions:
REMARK  status: ('A' for Active; 'I' for Inactive)
REMARK    1  A    between atoms: C_1  and  O_2
REMARK    2  A    between atoms: O_2  and  C_3
REMARK    3  A    between atoms: C_6  and  C_7
REMARK    4  A    between atoms: C_11  and  C_12
REMARK    5  A    between atoms: C_12  and  N_13
REMARK    6  A    between atoms: C_17  and  C_18
REMARK    7  A    between atoms: C_21  and  C_22
REMARK                            x       y       z     vdW  Elec       q    Type
REMARK                         _______ _______ _______ _____ _____    ______ ____
ROOT
ATOM      1  C   UNL     1      43.546   4.835  11.014  0.00  0.00    +0.000 C 
ENDROOT
BRANCH   1   2
ATOM      2  N   UNL     1      43.761   4.903   9.587  0.00  0.00    +0.000 N 
ATOM      3  C   UNL     1      44.581   3.904   9.086  0.00  0.00    +0.000 A 
ATOM      4  N   UNL     1      44.593   2.688   9.642  0.00  0.00    +0.000 NA
ATOM      5  C   UNL     1      45.397   1.764   9.071  0.00  0.00    +0.000 A 
ATOM      6  C   UNL     1      46.185   1.989   7.960  0.00  0.00    +0.000 A 
ATOM      7  C   UNL     1      46.130   3.281   7.463  0.00  0.00    +0.000 A 
ATOM      8  C   UNL     1      46.886   3.772   6.265  0.00  0.00    +0.000 C 
ATOM      9  N   UNL     1      45.331   4.233   8.028  0.00  0.00    +0.000 NA
ATOM     10  H   UNL     1      44.124   5.785   9.243  0.00  0.00    +0.000 HD
BRANCH   6  11
ATOM     11  C   UNL     1      47.041   0.908   7.425  0.00  0.00    +0.000 C 
ATOM     12  N   UNL     1      46.629  -0.385   7.612  0.00  0.00    +0.000 N 
ATOM     13  O   UNL     1      48.090   1.134   6.838  0.00  0.00    +0.000 OA
ATOM     14  H   UNL     1      45.718  -0.658   7.953  0.00  0.00    +0.000 HD
ATOM     15  H   UNL     1      47.201  -1.105   7.188  0.00  0.00    +0.000 HD
ENDBRANCH   6  11
ENDBRANCH   1   2
BRANCH   1  20
ATOM     16  C   UNL     1      46.425   5.489  13.471  0.00  0.00    +0.000 A 
ATOM     17  C   UNL     1      46.835   6.758  13.021  0.00  0.00    +0.000 A 
ATOM     18  C   UNL     1      46.157   7.426  11.996  0.00  0.00    +0.000 A 
ATOM     19  C   UNL     1      45.074   6.823  11.367  0.00  0.00    +0.000 A 
ATOM     20  C   UNL     1      44.662   5.542  11.750  0.00  0.00    +0.000 A 
ATOM     21  C   UNL     1      45.320   4.907  12.822  0.00  0.00    +0.000 A 
BRANCH  16  25
ATOM     22  C   UNL     1      48.447   3.426  16.593  0.00  0.00    +0.000 A 
ATOM     23  C   UNL     1      48.339   4.801  16.694  0.00  0.00    +0.000 A 
ATOM     24  C   UNL     1      47.665   5.490  15.683  0.00  0.00    +0.000 A 
ATOM     25  C   UNL     1      47.126   4.805  14.581  0.00  0.00    +0.000 A 
ATOM     26  C   UNL     1      47.304   3.418  14.600  0.00  0.00    +0.000 A 
ATOM     27  N   UNL     1      47.935   2.717  15.572  0.00  0.00    +0.000 NA
BRANCH  22  29
ATOM     28  C   UNL     1      50.290   2.092  17.110  0.00  0.00    +0.000 C 
ATOM     29  O   UNL     1      49.140   2.779  17.596  0.00  0.00    +0.000 OA
ENDBRANCH  22  29
ENDBRANCH  16  25
ENDBRANCH   1  20
TORSDOF 5
ENDMDL
MODEL 2
REMARK VINA RESULT:    -8.258      2.930      4.170
REMARK INTER + INTRA:         -11.115
REMARK INTER:                 -10.969
REMARK INTRA:                  -0.146
REMARK UNBOUND:                -0.443
REMARK  Name = 
REMARK  7 active torsions:
REMARK  status: ('A' for Active; 'I' for Inactive)
REMARK    1  A    between atoms: C_1  and  O_2
REMARK    2  A    between atoms: O_2  and  C_3
REMARK    3  A    between atoms: C_6  and  C_7
REMARK    4  A    between atoms: C_11  and  C_12
REMARK    5  A    between atoms: C_12  and  N_13
REMARK    6  A    between atoms: C_17  and  C_18
REMARK    7  A    between atoms: C_21  and  C_22
REMARK                            x       y       z     vdW  Elec       q    Type
REMARK                         _______ _______ _______ _____ _____    ______ ____
ROOT
ATOM      1  C   UNL     1      43.488   4.690  11.004  0.00  0.00    +0.000 C 
ENDROOT
BRANCH   1   2
ATOM      2  N   UNL     1      43.765   4.842   9.594  0.00  0.00    +0.000 N 
ATOM      3  C   UNL     1      44.570   3.848   9.060  0.00  0.00    +0.000 A 
ATOM      4  N   UNL     1      44.516   2.599   9.535  0.00  0.00    +0.000 NA
ATOM      5  C   UNL     1      45.311   1.684   8.937  0.00  0.00    +0.000 A 
ATOM      6  C   UNL     1      46.152   1.951   7.874  0.00  0.00    +0.000 A 
ATOM      7  C   UNL     1      46.162   3.273   7.462  0.00  0.00    +0.000 A 
ATOM      8  C   UNL     1      46.985   3.812   6.330  0.00  0.00    +0.000 C 
ATOM      9  N   UNL     1      45.374   4.216   8.056  0.00  0.00    +0.000 NA
ATOM     10  H   UNL     1      44.173   5.730   9.323  0.00  0.00    +0.000 HD
BRANCH   6  11
ATOM     11  C   UNL     1      46.991   0.876   7.303  0.00  0.00    +0.000 C 
ATOM     12  N   UNL     1      46.715  -0.414   7.672  0.00  0.00    +0.000 N 
ATOM     13  O   UNL     1      47.912   1.104   6.531  0.00  0.00    +0.000 OA
ATOM     14  H   UNL     1      45.894  -0.706   8.184  0.00  0.00    +0.000 HD
ATOM     15  H   UNL     1      47.266  -1.138   7.225  0.00  0.00    +0.000 HD
ENDBRANCH   6  11
ENDBRANCH   1   2
BRANCH   1  20
ATOM     16  C   UNL     1      46.576   6.374  12.547  0.00  0.00    +0.000 A 
ATOM     17  C   UNL     1      46.992   5.350  13.418  0.00  0.00    +0.000 A 
ATOM     18  C   UNL     1      46.341   4.113  13.460  0.00  0.00    +0.000 A 
ATOM     19  C   UNL     1      45.228   3.884  12.659  0.00  0.00    +0.000 A 
ATOM     20  C   UNL     1      44.750   4.891  11.813  0.00  0.00    +0.000 A 
ATOM     21  C   UNL     1      45.453   6.110  11.741  0.00  0.00    +0.000 A 
BRANCH  16  25
ATOM     22  C   UNL     1      48.742  10.031  12.376  0.00  0.00    +0.000 A 
ATOM     23  C   UNL     1      47.405  10.056  12.023  0.00  0.00    +0.000 A 
ATOM     24  C   UNL     1      46.678   8.866  12.088  0.00  0.00    +0.000 A 
ATOM     25  C   UNL     1      47.295   7.667  12.484  0.00  0.00    +0.000 A 
ATOM     26  C   UNL     1      48.649   7.778  12.814  0.00  0.00    +0.000 A 
ATOM     27  N   UNL     1      49.379   8.918  12.780  0.00  0.00    +0.000 NA
BRANCH  22  29
ATOM     28  C   UNL     1      50.620  11.226  13.072  0.00  0.00    +0.000 C 
ATOM     29  O   UNL     1      49.437  11.219  12.277  0.00  0.00    +0.000 OA
ENDBRANCH  22  29
ENDBRANCH  16  25
ENDBRANCH   1  20
TORSDOF 5
ENDMDL
MODEL 3
REMARK VINA RESULT:    -8.176      1.624      2.206
REMARK INTER + INTRA:         -11.009
REMARK INTER:                 -10.577
REMARK INTRA:                  -0.432
REMARK UNBOUND:                -0.443
REMARK  Name = 
REMARK  7 active torsions:
REMARK  status: ('A' for Active; 'I' for Inactive)
REMARK    1  A    between atoms: C_1  and  O_2
REMARK    2  A    between atoms: O_2  and  C_3
REMARK    3  A    between atoms: C_6  and  C_7
REMARK    4  A    between atoms: C_11  and  C_12
REMARK    5  A    between atoms: C_12  and  N_13
REMARK    6  A    between atoms: C_17  and  C_18
REMARK    7  A    between atoms: C_21  and  C_22
REMARK                            x       y       z     vdW  Elec       q    Type
REMARK                         _______ _______ _______ _____ _____    ______ ____
ROOT
ATOM      1  C   UNL     1      43.426   3.625  11.012  0.00  0.00    +0.000 C 
ENDROOT
BRANCH   1   2
ATOM      2  N   UNL     1      44.380   2.552  10.837  0.00  0.00    +0.000 N 
ATOM      3  C   UNL     1      45.097   2.615   9.653  0.00  0.00    +0.000 A 
ATOM      4  N   UNL     1      45.407   3.794   9.104  0.00  0.00    +0.000 NA
ATOM      5  C   UNL     1      46.136   3.765   7.967  0.00  0.00    +0.000 A 
ATOM      6  C   UNL     1      46.587   2.613   7.354  0.00  0.00    +0.000 A 
ATOM      7  C   UNL     1      46.202   1.437   7.976  0.00  0.00    +0.000 A 
ATOM      8  C   UNL     1      46.567   0.060   7.509  0.00  0.00    +0.000 C 
ATOM      9  N   UNL     1      45.458   1.442   9.121  0.00  0.00    +0.000 NA
ATOM     10  H   UNL     1      43.998   1.616  10.904  0.00  0.00    +0.000 HD
BRANCH   6  11
ATOM     11  C   UNL     1      47.367   2.695   6.100  0.00  0.00    +0.000 C 
ATOM     12  N   UNL     1      48.726   2.536   6.182  0.00  0.00    +0.000 N 
ATOM     13  O   UNL     1      46.844   2.905   5.015  0.00  0.00    +0.000 OA
ATOM     14  H   UNL     1      49.222   2.219   7.003  0.00  0.00    +0.000 HD
ATOM     15  H   UNL     1      49.233   2.538   5.305  0.00  0.00    +0.000 HD
ENDBRANCH   6  11
ENDBRANCH   1   2
BRANCH   1  20
ATOM     16  C   UNL     1      45.793   5.711  13.202  0.00  0.00    +0.000 A 
ATOM     17  C   UNL     1      45.449   7.001  12.758  0.00  0.00    +0.000 A 
ATOM     18  C   UNL     1      44.425   7.208  11.827  0.00  0.00    +0.000 A 
ATOM     19  C   UNL     1      43.748   6.122  11.284  0.00  0.00    +0.000 A 
ATOM     20  C   UNL     1      44.090   4.819  11.660  0.00  0.00    +0.000 A 
ATOM     21  C   UNL     1      45.084   4.632  12.642  0.00  0.00    +0.000 A 
BRANCH  16  25
ATOM     22  C   UNL     1      48.878   5.229  16.091  0.00  0.00    +0.000 A 
ATOM     23  C   UNL     1      47.856   4.297  16.077  0.00  0.00    +0.000 A 
ATOM     24  C   UNL     1      46.845   4.434  15.124  0.00  0.00    +0.000 A 
ATOM     25  C   UNL     1      46.853   5.506  14.215  0.00  0.00    +0.000 A 
ATOM     26  C   UNL     1      47.941   6.376  14.335  0.00  0.00    +0.000 A 
ATOM     27  N   UNL     1      48.948   6.263  15.233  0.00  0.00    +0.000 NA
BRANCH  22  29
ATOM     28  C   UNL     1      49.554   4.021  17.969  0.00  0.00    +0.000 C 
ATOM     29  O   UNL     1      49.849   5.078  17.060  0.00  0.00    +0.000 OA
ENDBRANCH  22  29
ENDBRANCH  16  25
ENDBRANCH   1  20
TORSDOF 5
ENDMDL
MODEL 4
REMARK VINA RESULT:    -7.777      1.932      8.737
REMARK INTER + INTRA:         -10.493
REMARK INTER:                  -9.974
REMARK INTRA:                  -0.519
REMARK UNBOUND:                -0.443
REMARK  Name = 
REMARK  7 active torsions:
REMARK  status: ('A' for Active; 'I' for Inactive)
REMARK    1  A    between atoms: C_1  and  O_2
REMARK    2  A    between atoms: O_2  and  C_3
REMARK    3  A    between atoms: C_6  and  C_7
REMARK    4  A    between atoms: C_11  and  C_12
REMARK    5  A    between atoms: C_12  and  N_13
REMARK    6  A    between atoms: C_17  and  C_18
REMARK    7  A    between atoms: C_21  and  C_22
REMARK                            x       y       z     vdW  Elec       q    Type
REMARK                         _______ _______ _______ _____ _____    ______ ____
ROOT
ATOM      1  C   UNL     1      46.175   5.095  14.162  0.00  0.00    +0.000 C 
ENDROOT
BRANCH   1   2
ATOM      2  N   UNL     1      46.756   3.868  14.657  0.00  0.00    +0.000 N 
ATOM      3  C   UNL     1      47.413   3.997  15.871  0.00  0.00    +0.000 A 
ATOM      4  N   UNL     1      46.991   4.879  16.785  0.00  0.00    +0.000 NA
ATOM      5  C   UNL     1      47.669   4.918  17.953  0.00  0.00    +0.000 A 
ATOM      6  C   UNL     1      48.743   4.108  18.264  0.00  0.00    +0.000 A 
ATOM      7  C   UNL     1      49.127   3.242  17.253  0.00  0.00    +0.000 A 
ATOM      8  C   UNL     1      50.258   2.261  17.347  0.00  0.00    +0.000 C 
ATOM      9  N   UNL     1      48.463   3.191  16.062  0.00  0.00    +0.000 NA
ATOM     10  H   UNL     1      47.394   3.402  14.024  0.00  0.00    +0.000 HD
BRANCH   6  11
ATOM     11  C   UNL     1      49.423   4.244  19.570  0.00  0.00    +0.000 C 
ATOM     12  N   UNL     1      48.729   3.877  20.693  0.00  0.00    +0.000 N 
ATOM     13  O   UNL     1      50.563   4.675  19.673  0.00  0.00    +0.000 OA
ATOM     14  H   UNL     1      47.848   3.381  20.692  0.00  0.00    +0.000 HD
ATOM     15  H   UNL     1      49.235   3.924  21.570  0.00  0.00    +0.000 HD
ENDBRANCH   6  11
ENDBRANCH   1   2
BRANCH   1  20
ATOM     16  C   UNL     1      44.767   4.008  10.758  0.00  0.00    +0.000 A 
ATOM     17  C   UNL     1      43.390   4.094  11.034  0.00  0.00    +0.000 A 
ATOM     18  C   UNL     1      42.917   4.561  12.265  0.00  0.00    +0.000 A 
ATOM     19  C   UNL     1      43.813   4.916  13.267  0.00  0.00    +0.000 A 
ATOM     20  C   UNL     1      45.190   4.801  13.053  0.00  0.00    +0.000 A 
ATOM     21  C   UNL     1      45.651   4.383  11.788  0.00  0.00    +0.000 A 
BRANCH  16  25
ATOM     22  C   UNL     1      46.215   2.790   6.949  0.00  0.00    +0.000 A 
ATOM     23  C   UNL     1      45.867   1.803   7.852  0.00  0.00    +0.000 A 
ATOM     24  C   UNL     1      45.376   2.188   9.101  0.00  0.00    +0.000 A 
ATOM     25  C   UNL     1      45.258   3.546   9.440  0.00  0.00    +0.000 A 
ATOM     26  C   UNL     1      45.643   4.443   8.438  0.00  0.00    +0.000 A 
ATOM     27  N   UNL     1      46.104   4.104   7.211  0.00  0.00    +0.000 NA
BRANCH  22  29
ATOM     28  C   UNL     1      48.139   2.253   5.742  0.00  0.00    +0.000 C 
ATOM     29  O   UNL     1      46.719   2.375   5.732  0.00  0.00    +0.000 OA
ENDBRANCH  22  29
ENDBRANCH  16  25
ENDBRANCH   1  20
TORSDOF 5
ENDMDL
MODEL 5
REMARK VINA RESULT:    -7.121      3.554      7.545
REMARK INTER + INTRA:          -9.645
REMARK INTER:                  -9.009
REMARK INTRA:                  -0.636
REMARK UNBOUND:                -0.443
REMARK  Name = 
REMARK  7 active torsions:
REMARK  status: ('A' for Active; 'I' for Inactive)
REMARK    1  A    between atoms: C_1  and  O_2
REMARK    2  A    between atoms: O_2  and  C_3
REMARK    3  A    between atoms: C_6  and  C_7
REMARK    4  A    between atoms: C_11  and  C_12
REMARK    5  A    between atoms: C_12  and  N_13
REMARK    6  A    between atoms: C_17  and  C_18
REMARK    7  A    between atoms: C_21  and  C_22
REMARK                            x       y       z     vdW  Elec       q    Type
REMARK                         _______ _______ _______ _____ _____    ______ ____
ROOT
ATOM      1  C   UNL     1      45.290   7.122  12.879  0.00  0.00    +0.000 C 
ENDROOT
BRANCH   1   2
ATOM      2  N   UNL     1      45.928   8.018  11.941  0.00  0.00    +0.000 N 
ATOM      3  C   UNL     1      47.307   8.081  12.060  0.00  0.00    +0.000 A 
ATOM      4  N   UNL     1      48.008   7.009  12.445  0.00  0.00    +0.000 NA
ATOM      5  C   UNL     1      49.351   7.148  12.504  0.00  0.00    +0.000 A 
ATOM      6  C   UNL     1      50.035   8.304  12.183  0.00  0.00    +0.000 A 
ATOM      7  C   UNL     1      49.230   9.370  11.818  0.00  0.00    +0.000 A 
ATOM      8  C   UNL     1      49.731  10.727  11.421  0.00  0.00    +0.000 C 
ATOM      9  N   UNL     1      47.872   9.256  11.759  0.00  0.00    +0.000 NA
ATOM     10  H   UNL     1      45.586   8.972  11.949  0.00  0.00    +0.000 HD
BRANCH   6  11
ATOM     11  C   UNL     1      51.509   8.351  12.297  0.00  0.00    +0.000 C 
ATOM     12  N   UNL     1      52.056   8.242  13.549  0.00  0.00    +0.000 N 
ATOM     13  O   UNL     1      52.237   8.490  11.325  0.00  0.00    +0.000 OA
ATOM     14  H   UNL     1      51.547   7.983  14.382  0.00  0.00    +0.000 HD
ATOM     15  H   UNL     1      53.068   8.219  13.597  0.00  0.00    +0.000 HD
ENDBRANCH   6  11
ENDBRANCH   1   2
BRANCH   1  20
ATOM     16  C   UNL     1      44.662   4.239  10.420  0.00  0.00    +0.000 A 
ATOM     17  C   UNL     1      43.399   3.814  10.873  0.00  0.00    +0.000 A 
ATOM     18  C   UNL     1      42.726   4.483  11.900  0.00  0.00    +0.000 A 
ATOM     19  C   UNL     1      43.318   5.572  12.530  0.00  0.00    +0.000 A 
ATOM     20  C   UNL     1      44.593   5.999  12.144  0.00  0.00    +0.000 A 
ATOM     21  C   UNL     1      45.234   5.350  11.069  0.00  0.00    +0.000 A 
BRANCH  16  25
ATOM     22  C   UNL     1      46.591   2.149   7.257  0.00  0.00    +0.000 A 
ATOM     23  C   UNL     1      46.608   3.531   7.221  0.00  0.00    +0.000 A 
ATOM     24  C   UNL     1      45.992   4.231   8.261  0.00  0.00    +0.000 A 
ATOM     25  C   UNL     1      45.351   3.547   9.308  0.00  0.00    +0.000 A 
ATOM     26  C   UNL     1      45.405   2.152   9.225  0.00  0.00    +0.000 A 
ATOM     27  N   UNL     1      46.010   1.442   8.243  0.00  0.00    +0.000 NA
BRANCH  22  29
ATOM     28  C   UNL     1      47.742   2.383   5.241  0.00  0.00    +0.000 C 
ATOM     29  O   UNL     1      47.188   1.488   6.203  0.00  0.00    +0.000 OA
ENDBRANCH  22  29
ENDBRANCH  16  25
ENDBRANCH   1  20
TORSDOF 5
ENDMDL
MODEL 6
REMARK VINA RESULT:    -6.940      3.188      7.937
REMARK INTER + INTRA:          -9.412
REMARK INTER:                  -8.684
REMARK INTRA:                  -0.729
REMARK UNBOUND:                -0.443
REMARK  Name = 
REMARK  7 active torsions:
REMARK  status: ('A' for Active; 'I' for Inactive)
REMARK    1  A    between atoms: C_1  and  O_2
REMARK    2  A    between atoms: O_2  and  C_3
REMARK    3  A    between atoms: C_6  and  C_7
REMARK    4  A    between atoms: C_11  and  C_12
REMARK    5  A    between atoms: C_12  and  N_13
REMARK    6  A    between atoms: C_17  and  C_18
REMARK    7  A    between atoms: C_21  and  C_22
REMARK                            x       y       z     vdW  Elec       q    Type
REMARK                         _______ _______ _______ _____ _____    ______ ____
ROOT
ATOM      1  C   UNL     1      45.290   7.011  12.803  0.00  0.00    +0.000 C 
ENDROOT
BRANCH   1   2
ATOM      2  N   UNL     1      46.457   7.428  12.059  0.00  0.00    +0.000 N 
ATOM      3  C   UNL     1      47.594   7.602  12.833  0.00  0.00    +0.000 A 
ATOM      4  N   UNL     1      47.806   6.845  13.914  0.00  0.00    +0.000 NA
ATOM      5  C   UNL     1      48.955   7.058  14.593  0.00  0.00    +0.000 A 
ATOM      6  C   UNL     1      49.916   7.984  14.237  0.00  0.00    +0.000 A 
ATOM      7  C   UNL     1      49.605   8.740  13.119  0.00  0.00    +0.000 A 
ATOM      8  C   UNL     1      50.484   9.803  12.531  0.00  0.00    +0.000 C 
ATOM      9  N   UNL     1      48.447   8.548  12.423  0.00  0.00    +0.000 NA
ATOM     10  H   UNL     1      46.343   8.270  11.507  0.00  0.00    +0.000 HD
BRANCH   6  11
ATOM     11  C   UNL     1      51.133   8.145  15.061  0.00  0.00    +0.000 C 
ATOM     12  N   UNL     1      52.253   7.452  14.688  0.00  0.00    +0.000 N 
ATOM     13  O   UNL     1      51.163   8.862  16.052  0.00  0.00    +0.000 OA
ATOM     14  H   UNL     1      52.363   6.956  13.814  0.00  0.00    +0.000 HD
ATOM     15  H   UNL     1      53.091   7.622  15.233  0.00  0.00    +0.000 HD
ENDBRANCH   6  11
ENDBRANCH   1   2
BRANCH   1  20
ATOM     16  C   UNL     1      44.739   4.028  10.448  0.00  0.00    +0.000 A 
ATOM     17  C   UNL     1      43.542   3.520  10.987  0.00  0.00    +0.000 A 
ATOM     18  C   UNL     1      42.882   4.162  12.040  0.00  0.00    +0.000 A 
ATOM     19  C   UNL     1      43.426   5.308  12.609  0.00  0.00    +0.000 A 
ATOM     20  C   UNL     1      44.639   5.820  12.136  0.00  0.00    +0.000 A 
ATOM     21  C   UNL     1      45.261   5.194  11.038  0.00  0.00    +0.000 A 
BRANCH  16  25
ATOM     22  C   UNL     1      46.624   2.011   7.212  0.00  0.00    +0.000 A 
ATOM     23  C   UNL     1      46.581   3.392   7.173  0.00  0.00    +0.000 A 
ATOM     24  C   UNL     1      45.978   4.069   8.235  0.00  0.00    +0.000 A 
ATOM     25  C   UNL     1      45.411   3.361   9.309  0.00  0.00    +0.000 A 
ATOM     26  C   UNL     1      45.522   1.970   9.227  0.00  0.00    +0.000 A 
ATOM     27  N   UNL     1      46.116   1.283   8.223  0.00  0.00    +0.000 NA
BRANCH  22  29
ATOM     28  C   UNL     1      47.901   2.274   5.277  0.00  0.00    +0.000 C 
ATOM     29  O   UNL     1      47.206   1.372   6.135  0.00  0.00    +0.000 OA
ENDBRANCH  22  29
ENDBRANCH  16  25
ENDBRANCH   1  20
TORSDOF 5
ENDMDL
MODEL 7
REMARK VINA RESULT:    -6.834      3.359      6.364
REMARK INTER + INTRA:          -9.275
REMARK INTER:                  -8.684
REMARK INTRA:                  -0.591
REMARK UNBOUND:                -0.443
REMARK  Name = 
REMARK  7 active torsions:
REMARK  status: ('A' for Active; 'I' for Inactive)
REMARK    1  A    between atoms: C_1  and  O_2
REMARK    2  A    between atoms: O_2  and  C_3
REMARK    3  A    between atoms: C_6  and  C_7
REMARK    4  A    between atoms: C_11  and  C_12
REMARK    5  A    between atoms: C_12  and  N_13
REMARK    6  A    between atoms: C_17  and  C_18
REMARK    7  A    between atoms: C_21  and  C_22
REMARK                            x       y       z     vdW  Elec       q    Type
REMARK                         _______ _______ _______ _____ _____    ______ ____
ROOT
ATOM      1  C   UNL     1      47.309   4.448  16.723  0.00  0.00    +0.000 C 
ENDROOT
BRANCH   1   2
ATOM      2  N   UNL     1      47.198   3.583  15.571  0.00  0.00    +0.000 N 
ATOM      3  C   UNL     1      46.776   4.224  14.416  0.00  0.00    +0.000 A 
ATOM      4  N   UNL     1      47.104   5.499  14.185  0.00  0.00    +0.000 NA
ATOM      5  C   UNL     1      46.679   6.037  13.020  0.00  0.00    +0.000 A 
ATOM      6  C   UNL     1      45.952   5.358  12.062  0.00  0.00    +0.000 A 
ATOM      7  C   UNL     1      45.638   4.050  12.393  0.00  0.00    +0.000 A 
ATOM      8  C   UNL     1      44.863   3.107  11.521  0.00  0.00    +0.000 C 
ATOM      9  N   UNL     1      46.048   3.489  13.567  0.00  0.00    +0.000 NA
ATOM     10  H   UNL     1      46.604   2.771  15.692  0.00  0.00    +0.000 HD
BRANCH   6  11
ATOM     11  C   UNL     1      45.525   6.049  10.826  0.00  0.00    +0.000 C 
ATOM     12  N   UNL     1      44.592   7.045  10.941  0.00  0.00    +0.000 N 
ATOM     13  O   UNL     1      45.969   5.755   9.725  0.00  0.00    +0.000 OA
ATOM     14  H   UNL     1      44.281   7.448  11.814  0.00  0.00    +0.000 HD
ATOM     15  H   UNL     1      44.357   7.542  10.090  0.00  0.00    +0.000 HD
ENDBRANCH   6  11
ENDBRANCH   1   2
BRANCH   1  20
ATOM     16  C   UNL     1      51.009   3.875  17.581  0.00  0.00    +0.000 A 
ATOM     17  C   UNL     1      51.488   5.192  17.450  0.00  0.00    +0.000 A 
ATOM     18  C   UNL     1      50.630   6.259  17.164  0.00  0.00    +0.000 A 
ATOM     19  C   UNL     1      49.274   6.029  16.960  0.00  0.00    +0.000 A 
ATOM     20  C   UNL     1      48.763   4.728  17.033  0.00  0.00    +0.000 A 
ATOM     21  C   UNL     1      49.630   3.673  17.378  0.00  0.00    +0.000 A 
BRANCH  16  25
ATOM     22  C   UNL     1      53.670   0.730  18.639  0.00  0.00    +0.000 A 
ATOM     23  C   UNL     1      52.617   0.427  17.796  0.00  0.00    +0.000 A 
ATOM     24  C   UNL     1      51.743   1.453  17.428  0.00  0.00    +0.000 A 
ATOM     25  C   UNL     1      51.919   2.758  17.919  0.00  0.00    +0.000 A 
ATOM     26  C   UNL     1      53.021   2.931  18.762  0.00  0.00    +0.000 A 
ATOM     27  N   UNL     1      53.898   1.964  19.123  0.00  0.00    +0.000 NA
BRANCH  22  29
ATOM     28  C   UNL     1      54.858  -1.135  17.894  0.00  0.00    +0.000 C 
ATOM     29  O   UNL     1      54.501  -0.311  19.001  0.00  0.00    +0.000 OA
ENDBRANCH  22  29
ENDBRANCH  16  25
ENDBRANCH   1  20
TORSDOF 5
ENDMDL
MODEL 8
REMARK VINA RESULT:    -6.731      3.780      8.371
REMARK INTER + INTRA:          -9.141
REMARK INTER:                  -8.520
REMARK INTRA:                  -0.621
REMARK UNBOUND:                -0.443
REMARK  Name = 
REMARK  7 active torsions:
REMARK  status: ('A' for Active; 'I' for Inactive)
REMARK    1  A    between atoms: C_1  and  O_2
REMARK    2  A    between atoms: O_2  and  C_3
REMARK    3  A    between atoms: C_6  and  C_7
REMARK    4  A    between atoms: C_11  and  C_12
REMARK    5  A    between atoms: C_12  and  N_13
REMARK    6  A    between atoms: C_17  and  C_18
REMARK    7  A    between atoms: C_21  and  C_22
REMARK                            x       y       z     vdW  Elec       q    Type
REMARK                         _______ _______ _______ _____ _____    ______ ____
ROOT
ATOM      1  C   UNL     1      51.089   7.903  14.739  0.00  0.00    +0.000 C 
ENDROOT
BRANCH   1   2
ATOM      2  N   UNL     1      50.504   8.220  16.021  0.00  0.00    +0.000 N 
ATOM      3  C   UNL     1      50.040   7.119  16.724  0.00  0.00    +0.000 A 
ATOM      4  N   UNL     1      50.648   5.933  16.613  0.00  0.00    +0.000 NA
ATOM      5  C   UNL     1      50.150   4.920  17.357  0.00  0.00    +0.000 A 
ATOM      6  C   UNL     1      49.079   5.035  18.221  0.00  0.00    +0.000 A 
ATOM      7  C   UNL     1      48.496   6.291  18.257  0.00  0.00    +0.000 A 
ATOM      8  C   UNL     1      47.326   6.669  19.116  0.00  0.00    +0.000 C 
ATOM      9  N   UNL     1      48.976   7.326  17.508  0.00  0.00    +0.000 NA
ATOM     10  H   UNL     1      49.750   8.897  16.001  0.00  0.00    +0.000 HD
BRANCH   6  11
ATOM     11  C   UNL     1      48.606   3.856  18.979  0.00  0.00    +0.000 C 
ATOM     12  N   UNL     1      48.705   3.892  20.344  0.00  0.00    +0.000 N 
ATOM     13  O   UNL     1      48.145   2.866  18.428  0.00  0.00    +0.000 OA
ATOM     14  H   UNL     1      48.935   4.714  20.886  0.00  0.00    +0.000 HD
ATOM     15  H   UNL     1      48.322   3.098  20.845  0.00  0.00    +0.000 HD
ENDBRANCH   6  11
ENDBRANCH   1   2
BRANCH   1  20
ATOM     16  C   UNL     1      47.956   7.023  12.698  0.00  0.00    +0.000 A 
ATOM     17  C   UNL     1      47.980   8.076  11.764  0.00  0.00    +0.000 A 
ATOM     18  C   UNL     1      49.020   9.011  11.740  0.00  0.00    +0.000 A 
ATOM     19  C   UNL     1      50.043   8.941  12.679  0.00  0.00    +0.000 A 
ATOM     20  C   UNL     1      50.034   7.939  13.655  0.00  0.00    +0.000 A 
ATOM     21  C   UNL     1      49.010   6.971  13.630  0.00  0.00    +0.000 A 
BRANCH  16  25
ATOM     22  C   UNL     1      44.860   4.109  12.793  0.00  0.00    +0.000 A 
ATOM     23  C   UNL     1      44.888   4.984  11.724  0.00  0.00    +0.000 A 
ATOM     24  C   UNL     1      45.907   5.937  11.671  0.00  0.00    +0.000 A 
ATOM     25  C   UNL     1      46.870   6.017  12.692  0.00  0.00    +0.000 A 
ATOM     26  C   UNL     1      46.729   5.075  13.715  0.00  0.00    +0.000 A 
ATOM     27  N   UNL     1      45.766   4.126  13.788  0.00  0.00    +0.000 NA
BRANCH  22  29
ATOM     28  C   UNL     1      43.409   2.794  11.524  0.00  0.00    +0.000 C 
ATOM     29  O   UNL     1      43.826   3.195  12.827  0.00  0.00    +0.000 OA
ENDBRANCH  22  29
ENDBRANCH  16  25
ENDBRANCH   1  20
TORSDOF 5
ENDMDL
MODEL 9
REMARK VINA RESULT:    -6.673      3.196      7.975
REMARK INTER + INTRA:          -9.067
REMARK INTER:                  -8.667
REMARK INTRA:                  -0.400
REMARK UNBOUND:                -0.443
REMARK  Name = 
REMARK  7 active torsions:
REMARK  status: ('A' for Active; 'I' for Inactive)
REMARK    1  A    between atoms: C_1  and  O_2
REMARK    2  A    between atoms: O_2  and  C_3
REMARK    3  A    between atoms: C_6  and  C_7
REMARK    4  A    between atoms: C_11  and  C_12
REMARK    5  A    between atoms: C_12  and  N_13
REMARK    6  A    between atoms: C_17  and  C_18
REMARK    7  A    between atoms: C_21  and  C_22
REMARK                            x       y       z     vdW  Elec       q    Type
REMARK                         _______ _______ _______ _____ _____    ______ ____
ROOT
ATOM      1  C   UNL     1      49.168   8.442  15.948  0.00  0.00    +0.000 C 
ENDROOT
BRANCH   1   2
ATOM      2  N   UNL     1      48.417   7.509  16.756  0.00  0.00    +0.000 N 
ATOM      3  C   UNL     1      49.026   6.274  16.916  0.00  0.00    +0.000 A 
ATOM      4  N   UNL     1      50.359   6.171  16.954  0.00  0.00    +0.000 NA
ATOM      5  C   UNL     1      50.869   4.935  17.145  0.00  0.00    +0.000 A 
ATOM      6  C   UNL     1      50.114   3.791  17.315  0.00  0.00    +0.000 A 
ATOM      7  C   UNL     1      48.744   3.986  17.238  0.00  0.00    +0.000 A 
ATOM      8  C   UNL     1      47.715   2.907  17.394  0.00  0.00    +0.000 C 
ATOM      9  N   UNL     1      48.206   5.224  17.038  0.00  0.00    +0.000 NA
ATOM     10  H   UNL     1      47.467   7.333  16.449  0.00  0.00    +0.000 HD
BRANCH   6  11
ATOM     11  C   UNL     1      50.777   2.483  17.503  0.00  0.00    +0.000 C 
ATOM     12  N   UNL     1      51.800   2.411  18.412  0.00  0.00    +0.000 N 
ATOM     13  O   UNL     1      50.448   1.486  16.876  0.00  0.00    +0.000 OA
ATOM     14  H   UNL     1      52.040   3.138  19.071  0.00  0.00    +0.000 HD
ATOM     15  H   UNL     1      52.201   1.493  18.566  0.00  0.00    +0.000 HD
ENDBRANCH   6  11
ENDBRANCH   1   2
BRANCH   1  20
ATOM     16  C   UNL     1      47.732   7.013  12.684  0.00  0.00    +0.000 A 
ATOM     17  C   UNL     1      48.611   7.609  11.760  0.00  0.00    +0.000 A 
ATOM     18  C   UNL     1      49.690   8.396  12.176  0.00  0.00    +0.000 A 
ATOM     19  C   UNL     1      49.893   8.642  13.529  0.00  0.00    +0.000 A 
ATOM     20  C   UNL     1      49.016   8.110  14.480  0.00  0.00    +0.000 A 
ATOM     21  C   UNL     1      47.968   7.272  14.048  0.00  0.00    +0.000 A 
BRANCH  16  25
ATOM     22  C   UNL     1      44.541   4.574  11.285  0.00  0.00    +0.000 A 
ATOM     23  C   UNL     1      44.987   4.373  12.579  0.00  0.00    +0.000 A 
ATOM     24  C   UNL     1      46.024   5.176  13.056  0.00  0.00    +0.000 A 
ATOM     25  C   UNL     1      46.615   6.153  12.236  0.00  0.00    +0.000 A 
ATOM     26  C   UNL     1      46.072   6.255  10.951  0.00  0.00    +0.000 A 
ATOM     27  N   UNL     1      45.055   5.506  10.462  0.00  0.00    +0.000 NA
BRANCH  22  29
ATOM     28  C   UNL     1      43.288   2.654  11.718  0.00  0.00    +0.000 C 
ATOM     29  O   UNL     1      43.531   3.747  10.836  0.00  0.00    +0.000 OA
ENDBRANCH  22  29
ENDBRANCH  16  25
ENDBRANCH   1  20
TORSDOF 5
ENDMDL
