MODEL 1
REMARK VINA RESULT:    -7.860      0.000      0.000
REMARK INTER + INTRA:         -10.211
REMARK INTER:                  -9.697
REMARK INTRA:                  -0.514
REMARK UNBOUND:                -0.514
REMARK  Name = 
REMARK  4 active torsions:
REMARK  status: ('A' for Active; 'I' for Inactive)
REMARK    1  A    between atoms: C_2  and  C_4
REMARK    2  A    between atoms: N_8  and  C_9
REMARK    3  A    between atoms: C_9  and  C_10
REMARK    4  A    between atoms: C_10  and  C_11
REMARK                            x       y       z     vdW  Elec       q    Type
REMARK                         _______ _______ _______ _____ _____    ______ ____
ROOT
ATOM      1  C   UNL     1      46.427   2.382   7.804  0.00  0.00    +0.000 A 
ATOM      2  C   UNL     1      46.425   3.765   7.653  0.00  0.00    +0.000 A 
ATOM      3  C   UNL     1      45.528   4.526   8.404  0.00  0.00    +0.000 A 
ATOM      4  C   UNL     1      44.690   3.905   9.331  0.00  0.00    +0.000 A 
ATOM      5  N   UNL     1      43.780   4.704  10.048  0.00  0.00    +0.000 N 
ATOM      6  N   UNL     1      44.678   2.564   9.471  0.00  0.00    +0.000 NA
ATOM      7  C   UNL     1      45.524   1.832   8.700  0.00  0.00    +0.000 A 
ATOM      8  H   UNL     1      44.175   5.627  10.194  0.00  0.00    +0.000 HD
ENDROOT
BRANCH   1  10
ATOM      9  N   UNL     1      48.486   2.011   6.561  0.00  0.00    +0.000 N 
ATOM     10  C   UNL     1      47.318   1.485   7.037  0.00  0.00    +0.000 C 
ATOM     11  O   UNL     1      47.041   0.306   6.866  0.00  0.00    +0.000 OA
ATOM     12  H   UNL     1      49.129   1.356   6.133  0.00  0.00    +0.000 HD
ATOM     13  H   UNL     1      48.865   2.886   6.895  0.00  0.00    +0.000 HD
ENDBRANCH   1  10
BRANCH   5  14
ATOM     14  C   UNL     1      43.353   4.099  11.316  0.00  0.00    +0.000 C 
BRANCH  14  15
ATOM     15  C   UNL     1      43.523   5.120  12.449  0.00  0.00    +0.000 C 
BRANCH  15  16
ATOM     16  C   UNL     1      44.967   5.419  12.747  0.00  0.00    +0.000 A 
ATOM     17  C   UNL     1      45.495   6.699  12.565  0.00  0.00    +0.000 A 
ATOM     18  C   UNL     1      46.833   6.942  12.859  0.00  0.00    +0.000 A 
ATOM     19  C   UNL     1      47.602   5.891  13.329  0.00  0.00    +0.000 A 
ATOM     20  N   UNL     1      47.129   4.643  13.525  0.00  0.00    +0.000 NA
ATOM     21  C   UNL     1      45.824   4.437  13.232  0.00  0.00    +0.000 A 
ENDBRANCH  15  16
ENDBRANCH  14  15
ENDBRANCH   5  14
TORSDOF 4
ENDMDL
MODEL 2
REMARK VINA RESULT:    -7.409      2.739      6.294
REMARK INTER + INTRA:          -9.655
REMARK INTER:                  -9.258
REMARK INTRA:                  -0.397
REMARK UNBOUND:                -0.514
REMARK  Name = 
REMARK  4 active torsions:
REMARK  status: ('A' for Active; 'I' for Inactive)
REMARK    1  A    between atoms: C_2  and  C_4
REMARK    2  A    between atoms: N_8  and  C_9
REMARK    3  A    between atoms: C_9  and  C_10
REMARK    4  A    between atoms: C_10  and  C_11
REMARK                            x       y       z     vdW  Elec       q    Type
REMARK                         _______ _______ _______ _____ _____    ______ ____
ROOT
ATOM      1  C   UNL     1      46.862   5.592  13.186  0.00  0.00    +0.000 A 
ATOM      2  C   UNL     1      46.776   4.301  13.699  0.00  0.00    +0.000 A 
ATOM      3  C   UNL     1      45.966   3.368  13.049  0.00  0.00    +0.000 A 
ATOM      4  C   UNL     1      45.302   3.719  11.872  0.00  0.00    +0.000 A 
ATOM      5  N   UNL     1      44.474   2.758  11.261  0.00  0.00    +0.000 N 
ATOM      6  N   UNL     1      45.372   4.971  11.379  0.00  0.00    +0.000 NA
ATOM      7  C   UNL     1      46.127   5.882  12.048  0.00  0.00    +0.000 A 
ATOM      8  H   UNL     1      44.844   1.829  11.430  0.00  0.00    +0.000 HD
ENDROOT
BRANCH   1  10
ATOM      9  N   UNL     1      47.125   7.912  13.870  0.00  0.00    +0.000 N 
ATOM     10  C   UNL     1      47.669   6.660  13.815  0.00  0.00    +0.000 C 
ATOM     11  O   UNL     1      48.766   6.426  14.301  0.00  0.00    +0.000 OA
ATOM     12  H   UNL     1      47.646   8.602  14.399  0.00  0.00    +0.000 HD
ATOM     13  H   UNL     1      46.141   8.085  13.720  0.00  0.00    +0.000 HD
ENDBRANCH   1  10
BRANCH   5  14
ATOM     14  C   UNL     1      44.267   3.000   9.829  0.00  0.00    +0.000 C 
BRANCH  14  15
ATOM     15  C   UNL     1      44.702   1.759   9.036  0.00  0.00    +0.000 C 
BRANCH  15  16
ATOM     16  C   UNL     1      45.860   2.035   8.118  0.00  0.00    +0.000 A 
ATOM     17  C   UNL     1      46.076   3.309   7.586  0.00  0.00    +0.000 A 
ATOM     18  C   UNL     1      47.164   3.530   6.746  0.00  0.00    +0.000 A 
ATOM     19  C   UNL     1      48.003   2.466   6.466  0.00  0.00    +0.000 A 
ATOM     20  N   UNL     1      47.833   1.224   6.964  0.00  0.00    +0.000 NA
ATOM     21  C   UNL     1      46.769   1.038   7.779  0.00  0.00    +0.000 A 
ENDBRANCH  15  16
ENDBRANCH  14  15
ENDBRANCH   5  14
TORSDOF 4
ENDMDL
MODEL 3
REMARK VINA RESULT:    -7.299      2.980      6.532
REMARK INTER + INTRA:          -9.520
REMARK INTER:                  -9.179
REMARK INTRA:                  -0.341
REMARK UNBOUND:                -0.514
REMARK  Name = 
REMARK  4 active torsions:
REMARK  status: ('A' for Active; 'I' for Inactive)
REMARK    1  A    between atoms: C_2  and  C_4
REMARK    2  A    between atoms: N_8  and  C_9
REMARK    3  A    between atoms: C_9  and  C_10
REMARK    4  A    between atoms: C_10  and  C_11
REMARK                            x       y       z     vdW  Elec       q    Type
REMARK                         _______ _______ _______ _____ _____    ______ ____
ROOT
ATOM      1  C   UNL     1      45.527   6.836  12.525  0.00  0.00    +0.000 A 
ATOM      2  C   UNL     1      45.913   5.712  13.247  0.00  0.00    +0.000 A 
ATOM      3  C   UNL     1      45.559   4.448  12.771  0.00  0.00    +0.000 A 
ATOM      4  C   UNL     1      44.878   4.323  11.559  0.00  0.00    +0.000 A 
ATOM      5  N   UNL     1      44.515   3.034  11.127  0.00  0.00    +0.000 N 
ATOM      6  N   UNL     1      44.490   5.410  10.863  0.00  0.00    +0.000 NA
ATOM      7  C   UNL     1      44.800   6.635  11.362  0.00  0.00    +0.000 A 
ATOM      8  H   UNL     1      45.203   2.359  11.446  0.00  0.00    +0.000 HD
ENDROOT
BRANCH   1  10
ATOM      9  N   UNL     1      44.914   9.187  12.653  0.00  0.00    +0.000 N 
ATOM     10  C   UNL     1      45.828   8.218  12.957  0.00  0.00    +0.000 C 
ATOM     11  O   UNL     1      46.837   8.480  13.595  0.00  0.00    +0.000 OA
ATOM     12  H   UNL     1      45.086  10.103  13.050  0.00  0.00    +0.000 HD
ATOM     13  H   UNL     1      43.969   8.974  12.365  0.00  0.00    +0.000 HD
ENDBRANCH   1  10
BRANCH   5  14
ATOM     14  C   UNL     1      44.310   2.945   9.677  0.00  0.00    +0.000 C 
BRANCH  14  15
ATOM     15  C   UNL     1      44.992   1.678   9.144  0.00  0.00    +0.000 C 
BRANCH  15  16
ATOM     16  C   UNL     1      45.991   1.970   8.059  0.00  0.00    +0.000 A 
ATOM     17  C   UNL     1      46.057   3.227   7.453  0.00  0.00    +0.000 A 
ATOM     18  C   UNL     1      47.000   3.465   6.458  0.00  0.00    +0.000 A 
ATOM     19  C   UNL     1      47.851   2.434   6.101  0.00  0.00    +0.000 A 
ATOM     20  N   UNL     1      47.825   1.209   6.666  0.00  0.00    +0.000 NA
ATOM     21  C   UNL     1      46.899   1.006   7.631  0.00  0.00    +0.000 A 
ENDBRANCH  15  16
ENDBRANCH  14  15
ENDBRANCH   5  14
TORSDOF 4
ENDMDL
MODEL 4
REMARK VINA RESULT:    -6.641      3.018      6.047
REMARK INTER + INTRA:          -8.708
REMARK INTER:                  -8.190
REMARK INTRA:                  -0.517
REMARK UNBOUND:                -0.514
REMARK  Name = 
REMARK  4 active torsions:
REMARK  status: ('A' for Active; 'I' for Inactive)
REMARK    1  A    between atoms: C_2  and  C_4
REMARK    2  A    between atoms: N_8  and  C_9
REMARK    3  A    between atoms: C_9  and  C_10
REMARK    4  A    between atoms: C_10  and  C_11
REMARK                            x       y       z     vdW  Elec       q    Type
REMARK                         _______ _______ _______ _____ _____    ______ ____
ROOT
ATOM      1  C   UNL     1      47.802   6.419  12.745  0.00  0.00    +0.000 A 
ATOM      2  C   UNL     1      47.377   5.420  13.614  0.00  0.00    +0.000 A 
ATOM      3  C   UNL     1      46.178   4.757  13.348  0.00  0.00    +0.000 A 
ATOM      4  C   UNL     1      45.453   5.061  12.194  0.00  0.00    +0.000 A 
ATOM      5  N   UNL     1      44.235   4.390  11.975  0.00  0.00    +0.000 N 
ATOM      6  N   UNL     1      45.853   6.037  11.356  0.00  0.00    +0.000 NA
ATOM      7  C   UNL     1      46.998   6.707  11.653  0.00  0.00    +0.000 A 
ATOM      8  H   UNL     1      44.283   3.455  12.366  0.00  0.00    +0.000 HD
ENDROOT
BRANCH   1  10
ATOM      9  N   UNL     1      50.075   6.981  12.086  0.00  0.00    +0.000 N 
ATOM     10  C   UNL     1      49.042   7.199  12.953  0.00  0.00    +0.000 C 
ATOM     11  O   UNL     1      49.127   8.034  13.841  0.00  0.00    +0.000 OA
ATOM     12  H   UNL     1      50.873   7.600  12.179  0.00  0.00    +0.000 HD
ATOM     13  H   UNL     1      49.956   6.504  11.204  0.00  0.00    +0.000 HD
ENDBRANCH   1  10
BRANCH   5  14
ATOM     14  C   UNL     1      43.837   4.360  10.563  0.00  0.00    +0.000 C 
BRANCH  14  15
ATOM     15  C   UNL     1      44.083   2.954   9.996  0.00  0.00    +0.000 C 
BRANCH  15  16
ATOM     16  C   UNL     1      45.120   2.943   8.907  0.00  0.00    +0.000 A 
ATOM     17  C   UNL     1      45.827   1.780   8.592  0.00  0.00    +0.000 A 
ATOM     18  C   UNL     1      46.774   1.804   7.572  0.00  0.00    +0.000 A 
ATOM     19  C   UNL     1      46.983   2.995   6.899  0.00  0.00    +0.000 A 
ATOM     20  N   UNL     1      46.317   4.137   7.169  0.00  0.00    +0.000 NA
ATOM     21  C   UNL     1      45.401   4.084   8.163  0.00  0.00    +0.000 A 
ENDBRANCH  15  16
ENDBRANCH  14  15
ENDBRANCH   5  14
TORSDOF 4
ENDMDL
MODEL 5
REMARK VINA RESULT:    -6.527      2.909      6.485
REMARK INTER + INTRA:          -8.568
REMARK INTER:                  -8.244
REMARK INTRA:                  -0.324
REMARK UNBOUND:                -0.514
REMARK  Name = 
REMARK  4 active torsions:
REMARK  status: ('A' for Active; 'I' for Inactive)
REMARK    1  A    between atoms: C_2  and  C_4
REMARK    2  A    between atoms: N_8  and  C_9
REMARK    3  A    between atoms: C_9  and  C_10
REMARK    4  A    between atoms: C_10  and  C_11
REMARK                            x       y       z     vdW  Elec       q    Type
REMARK                         _______ _______ _______ _____ _____    ______ ____
ROOT
ATOM      1  C   UNL     1      47.163   5.141  14.402  0.00  0.00    +0.000 A 
ATOM      2  C   UNL     1      46.946   6.314  13.687  0.00  0.00    +0.000 A 
ATOM      3  C   UNL     1      46.346   6.238  12.429  0.00  0.00    +0.000 A 
ATOM      4  C   UNL     1      45.922   5.005  11.931  0.00  0.00    +0.000 A 
ATOM      5  N   UNL     1      45.346   4.967  10.647  0.00  0.00    +0.000 N 
ATOM      6  N   UNL     1      46.141   3.864  12.614  0.00  0.00    +0.000 NA
ATOM      7  C   UNL     1      46.769   3.948  13.816  0.00  0.00    +0.000 A 
ATOM      8  H   UNL     1      44.852   5.835  10.466  0.00  0.00    +0.000 HD
ENDROOT
BRANCH   1  10
ATOM      9  N   UNL     1      47.069   4.676  16.789  0.00  0.00    +0.000 N 
ATOM     10  C   UNL     1      47.815   5.111  15.730  0.00  0.00    +0.000 C 
ATOM     11  O   UNL     1      48.988   5.425  15.869  0.00  0.00    +0.000 OA
ATOM     12  H   UNL     1      47.564   4.561  17.665  0.00  0.00    +0.000 HD
ATOM     13  H   UNL     1      46.201   4.173  16.674  0.00  0.00    +0.000 HD
ENDBRANCH   1  10
BRANCH   5  14
ATOM     14  C   UNL     1      44.477   3.803  10.437  0.00  0.00    +0.000 C 
BRANCH  14  15
ATOM     15  C   UNL     1      44.269   3.589   8.931  0.00  0.00    +0.000 C 
BRANCH  15  16
ATOM     16  C   UNL     1      45.400   2.831   8.292  0.00  0.00    +0.000 A 
ATOM     17  C   UNL     1      46.314   3.466   7.448  0.00  0.00    +0.000 A 
ATOM     18  C   UNL     1      47.353   2.735   6.882  0.00  0.00    +0.000 A 
ATOM     19  C   UNL     1      47.445   1.387   7.180  0.00  0.00    +0.000 A 
ATOM     20  N   UNL     1      46.588   0.738   7.995  0.00  0.00    +0.000 NA
ATOM     21  C   UNL     1      45.589   1.474   8.533  0.00  0.00    +0.000 A 
ENDBRANCH  15  16
ENDBRANCH  14  15
ENDBRANCH   5  14
TORSDOF 4
ENDMDL
MODEL 6
REMARK VINA RESULT:    -6.018      4.135      5.937
REMARK INTER + INTRA:          -7.939
REMARK INTER:                  -7.690
REMARK INTRA:                  -0.249
REMARK UNBOUND:                -0.514
REMARK  Name = 
REMARK  4 active torsions:
REMARK  status: ('A' for Active; 'I' for Inactive)
REMARK    1  A    between atoms: C_2  and  C_4
REMARK    2  A    between atoms: N_8  and  C_9
REMARK    3  A    between atoms: C_9  and  C_10
REMARK    4  A    between atoms: C_10  and  C_11
REMARK                            x       y       z     vdW  Elec       q    Type
REMARK                         _______ _______ _______ _____ _____    ______ ____
ROOT
ATOM      1  C   UNL     1      45.321   5.004  11.449  0.00  0.00    +0.000 A 
ATOM      2  C   UNL     1      46.065   6.120  11.818  0.00  0.00    +0.000 A 
ATOM      3  C   UNL     1      46.650   6.155  13.084  0.00  0.00    +0.000 A 
ATOM      4  C   UNL     1      46.531   5.058  13.939  0.00  0.00    +0.000 A 
ATOM      5  N   UNL     1      47.112   5.144  15.219  0.00  0.00    +0.000 N 
ATOM      6  N   UNL     1      45.801   3.980  13.593  0.00  0.00    +0.000 NA
ATOM      7  C   UNL     1      45.198   3.979  12.374  0.00  0.00    +0.000 A 
ATOM      8  H   UNL     1      47.941   5.727  15.181  0.00  0.00    +0.000 HD
ENDROOT
BRANCH   1  10
ATOM      9  N   UNL     1      45.420   4.884   9.022  0.00  0.00    +0.000 N 
ATOM     10  C   UNL     1      44.639   4.880  10.142  0.00  0.00    +0.000 C 
ATOM     11  O   UNL     1      43.427   4.742  10.068  0.00  0.00    +0.000 OA
ATOM     12  H   UNL     1      44.946   4.690   8.147  0.00  0.00    +0.000 HD
ATOM     13  H   UNL     1      46.419   4.736   9.052  0.00  0.00    +0.000 HD
ENDBRANCH   1  10
BRANCH   5  14
ATOM     14  C   UNL     1      47.405   3.833  15.809  0.00  0.00    +0.000 C 
BRANCH  14  15
ATOM     15  C   UNL     1      48.046   4.030  17.191  0.00  0.00    +0.000 C 
BRANCH  15  16
ATOM     16  C   UNL     1      49.385   3.355  17.309  0.00  0.00    +0.000 A 
ATOM     17  C   UNL     1      50.481   4.011  17.874  0.00  0.00    +0.000 A 
ATOM     18  C   UNL     1      51.702   3.353  17.976  0.00  0.00    +0.000 A 
ATOM     19  C   UNL     1      51.787   2.053  17.509  0.00  0.00    +0.000 A 
ATOM     20  N   UNL     1      50.751   1.381  16.964  0.00  0.00    +0.000 NA
ATOM     21  C   UNL     1      49.576   2.045  16.879  0.00  0.00    +0.000 A 
ENDBRANCH  15  16
ENDBRANCH  14  15
ENDBRANCH   5  14
TORSDOF 4
ENDMDL
MODEL 7
REMARK VINA RESULT:    -5.842      3.216      5.459
REMARK INTER + INTRA:          -7.722
REMARK INTER:                  -7.329
REMARK INTRA:                  -0.393
REMARK UNBOUND:                -0.514
REMARK  Name = 
REMARK  4 active torsions:
REMARK  status: ('A' for Active; 'I' for Inactive)
REMARK    1  A    between atoms: C_2  and  C_4
REMARK    2  A    between atoms: N_8  and  C_9
REMARK    3  A    between atoms: C_9  and  C_10
REMARK    4  A    between atoms: C_10  and  C_11
REMARK                            x       y       z     vdW  Elec       q    Type
REMARK                         _______ _______ _______ _____ _____    ______ ____
ROOT
ATOM      1  C   UNL     1      44.701   5.127  11.457  0.00  0.00    +0.000 A 
ATOM      2  C   UNL     1      44.720   6.517  11.443  0.00  0.00    +0.000 A 
ATOM      3  C   UNL     1      45.584   7.190  12.308  0.00  0.00    +0.000 A 
ATOM      4  C   UNL     1      46.452   6.469  13.129  0.00  0.00    +0.000 A 
ATOM      5  N   UNL     1      47.289   7.183  14.007  0.00  0.00    +0.000 N 
ATOM      6  N   UNL     1      46.429   5.122  13.155  0.00  0.00    +0.000 NA
ATOM      7  C   UNL     1      45.549   4.480  12.342  0.00  0.00    +0.000 A 
ATOM      8  H   UNL     1      47.534   8.078  13.595  0.00  0.00    +0.000 HD
ENDROOT
BRANCH   1  10
ATOM      9  N   UNL     1      43.862   4.532   9.252  0.00  0.00    +0.000 N 
ATOM     10  C   UNL     1      43.804   4.321  10.600  0.00  0.00    +0.000 C 
ATOM     11  O   UNL     1      43.065   3.470  11.075  0.00  0.00    +0.000 OA
ATOM     12  H   UNL     1      43.320   3.897   8.677  0.00  0.00    +0.000 HD
ATOM     13  H   UNL     1      44.624   5.025   8.809  0.00  0.00    +0.000 HD
ENDBRANCH   1  10
BRANCH   5  14
ATOM     14  C   UNL     1      48.485   6.432  14.407  0.00  0.00    +0.000 C 
BRANCH  14  15
ATOM     15  C   UNL     1      48.646   6.507  15.932  0.00  0.00    +0.000 C 
BRANCH  15  16
ATOM     16  C   UNL     1      48.386   5.189  16.607  0.00  0.00    +0.000 A 
ATOM     17  C   UNL     1      49.364   4.568  17.386  0.00  0.00    +0.000 A 
ATOM     18  C   UNL     1      49.085   3.352  18.004  0.00  0.00    +0.000 A 
ATOM     19  C   UNL     1      47.831   2.796  17.821  0.00  0.00    +0.000 A 
ATOM     20  N   UNL     1      46.857   3.367  17.082  0.00  0.00    +0.000 NA
ATOM     21  C   UNL     1      47.155   4.549  16.496  0.00  0.00    +0.000 A 
ENDBRANCH  15  16
ENDBRANCH  14  15
ENDBRANCH   5  14
TORSDOF 4
ENDMDL
MODEL 8
REMARK VINA RESULT:    -5.573      2.168      3.591
REMARK INTER + INTRA:          -7.391
REMARK INTER:                  -6.868
REMARK INTRA:                  -0.523
REMARK UNBOUND:                -0.514
REMARK  Name = 
REMARK  4 active torsions:
REMARK  status: ('A' for Active; 'I' for Inactive)
REMARK    1  A    between atoms: C_2  and  C_4
REMARK    2  A    between atoms: N_8  and  C_9
REMARK    3  A    between atoms: C_9  and  C_10
REMARK    4  A    between atoms: C_10  and  C_11
REMARK                            x       y       z     vdW  Elec       q    Type
REMARK                         _______ _______ _______ _____ _____    ______ ____
ROOT
ATOM      1  C   UNL     1      44.719   3.999   9.716  0.00  0.00    +0.000 A 
ATOM      2  C   UNL     1      43.718   3.917  10.678  0.00  0.00    +0.000 A 
ATOM      3  C   UNL     1      43.608   4.935  11.628  0.00  0.00    +0.000 A 
ATOM      4  C   UNL     1      44.458   6.040  11.569  0.00  0.00    +0.000 A 
ATOM      5  N   UNL     1      44.334   7.031  12.561  0.00  0.00    +0.000 N 
ATOM      6  N   UNL     1      45.438   6.117  10.647  0.00  0.00    +0.000 NA
ATOM      7  C   UNL     1      45.563   5.097   9.758  0.00  0.00    +0.000 A 
ATOM      8  H   UNL     1      43.367   7.094  12.864  0.00  0.00    +0.000 HD
ENDROOT
BRANCH   1  10
ATOM      9  N   UNL     1      44.815   1.656   9.068  0.00  0.00    +0.000 N 
ATOM     10  C   UNL     1      44.937   2.961   8.684  0.00  0.00    +0.000 C 
ATOM     11  O   UNL     1      45.179   3.260   7.524  0.00  0.00    +0.000 OA
ATOM     12  H   UNL     1      44.861   0.967   8.326  0.00  0.00    +0.000 HD
ATOM     13  H   UNL     1      44.370   1.380   9.931  0.00  0.00    +0.000 HD
ENDBRANCH   1  10
BRANCH   5  14
ATOM     14  C   UNL     1      44.848   8.339  12.139  0.00  0.00    +0.000 C 
BRANCH  14  15
ATOM     15  C   UNL     1      45.904   8.818  13.146  0.00  0.00    +0.000 C 
BRANCH  15  16
ATOM     16  C   UNL     1      47.267   8.245  12.872  0.00  0.00    +0.000 A 
ATOM     17  C   UNL     1      48.062   8.730  11.831  0.00  0.00    +0.000 A 
ATOM     18  C   UNL     1      49.322   8.181  11.613  0.00  0.00    +0.000 A 
ATOM     19  C   UNL     1      49.748   7.163  12.448  0.00  0.00    +0.000 A 
ATOM     20  N   UNL     1      49.013   6.672  13.468  0.00  0.00    +0.000 NA
ATOM     21  C   UNL     1      47.794   7.225  13.658  0.00  0.00    +0.000 A 
ENDBRANCH  15  16
ENDBRANCH  14  15
ENDBRANCH   5  14
TORSDOF 4
ENDMDL
MODEL 9
REMARK VINA RESULT:    -5.551      4.774      8.069
REMARK INTER + INTRA:          -7.363
REMARK INTER:                  -7.108
REMARK INTRA:                  -0.255
REMARK UNBOUND:                -0.514
REMARK  Name = 
REMARK  4 active torsions:
REMARK  status: ('A' for Active; 'I' for Inactive)
REMARK    1  A    between atoms: C_2  and  C_4
REMARK    2  A    between atoms: N_8  and  C_9
REMARK    3  A    between atoms: C_9  and  C_10
REMARK    4  A    between atoms: C_10  and  C_11
REMARK                            x       y       z     vdW  Elec       q    Type
REMARK                         _______ _______ _______ _____ _____    ______ ____
ROOT
ATOM      1  C   UNL     1      49.401   4.500  17.879  0.00  0.00    +0.000 A 
ATOM      2  C   UNL     1      48.476   3.462  17.896  0.00  0.00    +0.000 A 
ATOM      3  C   UNL     1      47.475   3.432  16.923  0.00  0.00    +0.000 A 
ATOM      4  C   UNL     1      47.446   4.403  15.921  0.00  0.00    +0.000 A 
ATOM      5  N   UNL     1      46.405   4.354  14.975  0.00  0.00    +0.000 N 
ATOM      6  N   UNL     1      48.332   5.418  15.907  0.00  0.00    +0.000 NA
ATOM      7  C   UNL     1      49.273   5.460  16.888  0.00  0.00    +0.000 A 
ATOM      8  H   UNL     1      46.128   3.391  14.819  0.00  0.00    +0.000 HD
ENDROOT
BRANCH   1  10
ATOM      9  N   UNL     1      51.452   3.675  18.895  0.00  0.00    +0.000 N 
ATOM     10  C   UNL     1      50.483   4.638  18.879  0.00  0.00    +0.000 C 
ATOM     11  O   UNL     1      50.530   5.596  19.637  0.00  0.00    +0.000 OA
ATOM     12  H   UNL     1      52.238   3.844  19.513  0.00  0.00    +0.000 HD
ATOM     13  H   UNL     1      51.589   3.026  18.134  0.00  0.00    +0.000 HD
ENDBRANCH   1  10
BRANCH   5  14
ATOM     14  C   UNL     1      46.736   5.027  13.714  0.00  0.00    +0.000 C 
BRANCH  14  15
ATOM     15  C   UNL     1      45.450   5.563  13.070  0.00  0.00    +0.000 C 
BRANCH  15  16
ATOM     16  C   UNL     1      45.140   4.900  11.757  0.00  0.00    +0.000 A 
ATOM     17  C   UNL     1      45.564   5.453  10.547  0.00  0.00    +0.000 A 
ATOM     18  C   UNL     1      45.267   4.807   9.351  0.00  0.00    +0.000 A 
ATOM     19  C   UNL     1      44.552   3.623   9.405  0.00  0.00    +0.000 A 
ATOM     20  N   UNL     1      44.129   3.053  10.552  0.00  0.00    +0.000 NA
ATOM     21  C   UNL     1      44.435   3.701  11.699  0.00  0.00    +0.000 A 
ENDBRANCH  15  16
ENDBRANCH  14  15
ENDBRANCH   5  14
TORSDOF 4
ENDMDL
