MODEL 1
REMARK VINA RESULT:    -8.647      0.000      0.000
REMARK INTER + INTRA:         -12.525
REMARK INTER:                 -11.932
REMARK INTRA:                  -0.593
REMARK UNBOUND:                -0.593
REMARK  Name = 
REMARK  8 active torsions:
REMARK  status: ('A' for Active; 'I' for Inactive)
REMARK    1  A    between atoms: C_1  and  C_2
REMARK    2  A    between atoms: C_2  and  O_3
REMARK    3  A    between atoms: O_3  and  C_4
REMARK    4  A    between atoms: C_8  and  C_9
REMARK    5  A    between atoms: C_9  and  C_10
REMARK    6  A    between atoms: C_10  and  N_11
REMARK    7  A    between atoms: C_15  and  C_16
REMARK    8  A    between atoms: C_23  and  O_24
REMARK                            x       y       z     vdW  Elec       q    Type
REMARK                         _______ _______ _______ _____ _____    ______ ____
ROOT
ATOM      1  C   UNL     1      43.643   5.443  12.366  0.00  0.00    +0.000 C 
ENDROOT
BRANCH   1   6
ATOM      2  C   UNL     1      47.003   4.674  14.003  0.00  0.00    +0.000 A 
ATOM      3  C   UNL     1      47.823   5.657  13.466  0.00  0.00    +0.000 A 
ATOM      4  C   UNL     1      47.268   6.626  12.620  0.00  0.00    +0.000 A 
ATOM      5  C   UNL     1      45.909   6.589  12.285  0.00  0.00    +0.000 A 
ATOM      6  C   UNL     1      45.094   5.562  12.767  0.00  0.00    +0.000 A 
ATOM      7  C   UNL     1      45.652   4.624  13.642  0.00  0.00    +0.000 A 
BRANCH   2   8
ATOM      8  O   UNL     1      47.371   3.678  14.862  0.00  0.00    +0.000 OA
BRANCH   8  10
ATOM      9  C   UNL     1      47.848   5.374  16.560  0.00  0.00    +0.000 C 
ATOM     10  C   UNL     1      47.658   3.920  16.251  0.00  0.00    +0.000 C 
ATOM     11  C   UNL     1      47.332   2.943  17.354  0.00  0.00    +0.000 C 
ATOM     12  C   UNL     1      48.713   2.954  16.781  0.00  0.00    +0.000 C 
BRANCH  12  13
ATOM     13  O   UNL     1      49.030   1.807  15.969  0.00  0.00    +0.000 OA
ATOM     14  H   UNL     1      49.653   2.048  15.259  0.00  0.00    +0.000 HD
ENDBRANCH  12  13
ENDBRANCH   8  10
ENDBRANCH   2   8
ENDBRANCH   1   6
BRANCH   1  15
ATOM     15  C   UNL     1      43.471   5.059  10.895  0.00  0.00    +0.000 C 
BRANCH  15  16
ATOM     16  N   UNL     1      43.690   3.617  10.711  0.00  0.00    +0.000 N 
ATOM     17  C   UNL     1      44.594   3.338   9.672  0.00  0.00    +0.000 A 
ATOM     18  C   UNL     1      44.890   2.008   9.373  0.00  0.00    +0.000 A 
ATOM     19  C   UNL     1      45.801   1.719   8.352  0.00  0.00    +0.000 A 
ATOM     20  C   UNL     1      46.408   2.761   7.648  0.00  0.00    +0.000 A 
ATOM     21  C   UNL     1      46.066   4.048   8.018  0.00  0.00    +0.000 A 
ATOM     22  N   UNL     1      45.186   4.348   9.007  0.00  0.00    +0.000 NA
ATOM     23  H   UNL     1      42.825   3.114  10.529  0.00  0.00    +0.000 HD
BRANCH  20  24
ATOM     24  C   UNL     1      47.371   2.459   6.563  0.00  0.00    +0.000 C 
ATOM     25  N   UNL     1      47.343   3.210   5.420  0.00  0.00    +0.000 N 
ATOM     26  O   UNL     1      48.187   1.552   6.679  0.00  0.00    +0.000 OA
ATOM     27  H   UNL     1      46.705   3.963   5.213  0.00  0.00    +0.000 HD
ATOM     28  H   UNL     1      48.016   2.966   4.704  0.00  0.00    +0.000 HD
ENDBRANCH  20  24
ENDBRANCH  15  16
ENDBRANCH   1  15
TORSDOF 7
ENDMDL
MODEL 2
REMARK VINA RESULT:    -7.891      2.328      3.464
REMARK INTER + INTRA:         -11.483
REMARK INTER:                 -10.596
REMARK INTRA:                  -0.888
REMARK UNBOUND:                -0.593
REMARK  Name = 
REMARK  8 active torsions:
REMARK  status: ('A' for Active; 'I' for Inactive)
REMARK    1  A    between atoms: C_1  and  C_2
REMARK    2  A    between atoms: C_2  and  O_3
REMARK    3  A    between atoms: O_3  and  C_4
REMARK    4  A    between atoms: C_8  and  C_9
REMARK    5  A    between atoms: C_9  and  C_10
REMARK    6  A    between atoms: C_10  and  N_11
REMARK    7  A    between atoms: C_15  and  C_16
REMARK    8  A    between atoms: C_23  and  O_24
REMARK                            x       y       z     vdW  Elec       q    Type
REMARK                         _______ _______ _______ _____ _____    ______ ____
ROOT
ATOM      1  C   UNL     1      43.284   4.773  12.415  0.00  0.00    +0.000 C 
ENDROOT
BRANCH   1   6
ATOM      2  C   UNL     1      46.652   6.300  13.356  0.00  0.00    +0.000 A 
ATOM      3  C   UNL     1      47.401   5.178  13.685  0.00  0.00    +0.000 A 
ATOM      4  C   UNL     1      46.835   3.906  13.531  0.00  0.00    +0.000 A 
ATOM      5  C   UNL     1      45.515   3.760  13.086  0.00  0.00    +0.000 A 
ATOM      6  C   UNL     1      44.734   4.888  12.820  0.00  0.00    +0.000 A 
ATOM      7  C   UNL     1      45.324   6.150  12.940  0.00  0.00    +0.000 A 
BRANCH   2   8
ATOM      8  O   UNL     1      47.057   7.603  13.418  0.00  0.00    +0.000 OA
BRANCH   8  10
ATOM      9  C   UNL     1      48.600   8.150  15.236  0.00  0.00    +0.000 C 
ATOM     10  C   UNL     1      48.402   7.981  13.760  0.00  0.00    +0.000 C 
ATOM     11  C   UNL     1      49.588   7.762  12.853  0.00  0.00    +0.000 C 
ATOM     12  C   UNL     1      48.917   9.098  12.858  0.00  0.00    +0.000 C 
BRANCH  12  13
ATOM     13  O   UNL     1      48.162   9.389  11.666  0.00  0.00    +0.000 OA
ATOM     14  H   UNL     1      48.096  10.352  11.526  0.00  0.00    +0.000 HD
ENDBRANCH  12  13
ENDBRANCH   8  10
ENDBRANCH   2   8
ENDBRANCH   1   6
BRANCH   1  15
ATOM     15  C   UNL     1      43.110   4.165  11.022  0.00  0.00    +0.000 C 
BRANCH  15  16
ATOM     16  N   UNL     1      43.928   4.890  10.038  0.00  0.00    +0.000 N 
ATOM     17  C   UNL     1      44.770   4.038   9.304  0.00  0.00    +0.000 A 
ATOM     18  C   UNL     1      45.615   4.589   8.342  0.00  0.00    +0.000 A 
ATOM     19  C   UNL     1      46.445   3.749   7.593  0.00  0.00    +0.000 A 
ATOM     20  C   UNL     1      46.416   2.369   7.811  0.00  0.00    +0.000 A 
ATOM     21  C   UNL     1      45.539   1.908   8.776  0.00  0.00    +0.000 A 
ATOM     22  N   UNL     1      44.725   2.709   9.511  0.00  0.00    +0.000 NA
ATOM     23  H   UNL     1      44.498   5.615  10.468  0.00  0.00    +0.000 HD
BRANCH  20  24
ATOM     24  C   UNL     1      47.295   1.475   7.023  0.00  0.00    +0.000 C 
ATOM     25  N   UNL     1      48.409   1.997   6.422  0.00  0.00    +0.000 N 
ATOM     26  O   UNL     1      47.040   0.283   6.906  0.00  0.00    +0.000 OA
ATOM     27  H   UNL     1      48.701   2.962   6.437  0.00  0.00    +0.000 HD
ATOM     28  H   UNL     1      48.979   1.351   5.891  0.00  0.00    +0.000 HD
ENDBRANCH  20  24
ENDBRANCH  15  16
ENDBRANCH   1  15
TORSDOF 7
ENDMDL
MODEL 3
REMARK VINA RESULT:    -7.729      3.248      4.977
REMARK INTER + INTRA:         -11.259
REMARK INTER:                 -10.724
REMARK INTRA:                  -0.535
REMARK UNBOUND:                -0.593
REMARK  Name = 
REMARK  8 active torsions:
REMARK  status: ('A' for Active; 'I' for Inactive)
REMARK    1  A    between atoms: C_1  and  C_2
REMARK    2  A    between atoms: C_2  and  O_3
REMARK    3  A    between atoms: O_3  and  C_4
REMARK    4  A    between atoms: C_8  and  C_9
REMARK    5  A    between atoms: C_9  and  C_10
REMARK    6  A    between atoms: C_10  and  N_11
REMARK    7  A    between atoms: C_15  and  C_16
REMARK    8  A    between atoms: C_23  and  O_24
REMARK                            x       y       z     vdW  Elec       q    Type
REMARK                         _______ _______ _______ _____ _____    ______ ____
ROOT
ATOM      1  C   UNL     1      43.761   4.617  12.604  0.00  0.00    +0.000 C 
ENDROOT
BRANCH   1   6
ATOM      2  C   UNL     1      45.585   7.968  12.674  0.00  0.00    +0.000 A 
ATOM      3  C   UNL     1      46.917   7.577  12.687  0.00  0.00    +0.000 A 
ATOM      4  C   UNL     1      47.233   6.215  12.597  0.00  0.00    +0.000 A 
ATOM      5  C   UNL     1      46.220   5.249  12.533  0.00  0.00    +0.000 A 
ATOM      6  C   UNL     1      44.878   5.633  12.590  0.00  0.00    +0.000 A 
ATOM      7  C   UNL     1      44.577   6.998  12.640  0.00  0.00    +0.000 A 
BRANCH   2   8
ATOM      8  O   UNL     1      45.105   9.246  12.724  0.00  0.00    +0.000 OA
BRANCH   8  10
ATOM      9  C   UNL     1      46.566  10.828  11.563  0.00  0.00    +0.000 C 
ATOM     10  C   UNL     1      45.225  10.162  11.621  0.00  0.00    +0.000 C 
ATOM     11  C   UNL     1      44.343  10.115  10.397  0.00  0.00    +0.000 C 
ATOM     12  C   UNL     1      43.997  11.060  11.504  0.00  0.00    +0.000 C 
BRANCH  12  13
ATOM     13  O   UNL     1      42.828  10.688  12.260  0.00  0.00    +0.000 OA
ATOM     14  H   UNL     1      43.040   9.983  12.898  0.00  0.00    +0.000 HD
ENDBRANCH  12  13
ENDBRANCH   8  10
ENDBRANCH   2   8
ENDBRANCH   1   6
BRANCH   1  15
ATOM     15  C   UNL     1      43.156   4.392  11.217  0.00  0.00    +0.000 C 
BRANCH  15  16
ATOM     16  N   UNL     1      44.014   4.983  10.179  0.00  0.00    +0.000 N 
ATOM     17  C   UNL     1      44.760   4.018   9.482  0.00  0.00    +0.000 A 
ATOM     18  C   UNL     1      45.631   4.435   8.476  0.00  0.00    +0.000 A 
ATOM     19  C   UNL     1      46.366   3.481   7.764  0.00  0.00    +0.000 A 
ATOM     20  C   UNL     1      46.218   2.125   8.063  0.00  0.00    +0.000 A 
ATOM     21  C   UNL     1      45.324   1.801   9.068  0.00  0.00    +0.000 A 
ATOM     22  N   UNL     1      44.602   2.712   9.768  0.00  0.00    +0.000 NA
ATOM     23  H   UNL     1      44.656   5.676  10.557  0.00  0.00    +0.000 HD
BRANCH  20  24
ATOM     24  C   UNL     1      46.997   1.112   7.315  0.00  0.00    +0.000 C 
ATOM     25  N   UNL     1      46.874  -0.208   7.655  0.00  0.00    +0.000 N 
ATOM     26  O   UNL     1      47.744   1.440   6.400  0.00  0.00    +0.000 OA
ATOM     27  H   UNL     1      46.307  -0.584   8.398  0.00  0.00    +0.000 HD
ATOM     28  H   UNL     1      47.429  -0.864   7.119  0.00  0.00    +0.000 HD
ENDBRANCH  20  24
ENDBRANCH  15  16
ENDBRANCH   1  15
TORSDOF 7
ENDMDL
MODEL 4
REMARK VINA RESULT:    -7.586      2.028      2.547
REMARK INTER + INTRA:         -11.062
REMARK INTER:                 -10.838
REMARK INTRA:                  -0.225
REMARK UNBOUND:                -0.593
REMARK  Name = 
REMARK  8 active torsions:
REMARK  status: ('A' for Active; 'I' for Inactive)
REMARK    1  A    between atoms: C_1  and  C_2
REMARK    2  A    between atoms: C_2  and  O_3
REMARK    3  A    between atoms: O_3  and  C_4
REMARK    4  A    between atoms: C_8  and  C_9
REMARK    5  A    between atoms: C_9  and  C_10
REMARK    6  A    between atoms: C_10  and  N_11
REMARK    7  A    between atoms: C_15  and  C_16
REMARK    8  A    between atoms: C_23  and  O_24
REMARK                            x       y       z     vdW  Elec       q    Type
REMARK                         _______ _______ _______ _____ _____    ______ ____
ROOT
ATOM      1  C   UNL     1      43.650   3.913  12.825  0.00  0.00    +0.000 C 
ENDROOT
BRANCH   1   6
ATOM      2  C   UNL     1      46.704   6.171  13.196  0.00  0.00    +0.000 A 
ATOM      3  C   UNL     1      46.268   7.353  12.613  0.00  0.00    +0.000 A 
ATOM      4  C   UNL     1      44.946   7.447  12.159  0.00  0.00    +0.000 A 
ATOM      5  C   UNL     1      44.078   6.352  12.255  0.00  0.00    +0.000 A 
ATOM      6  C   UNL     1      44.532   5.138  12.778  0.00  0.00    +0.000 A 
ATOM      7  C   UNL     1      45.842   5.071  13.263  0.00  0.00    +0.000 A 
BRANCH   2   8
ATOM      8  O   UNL     1      47.943   5.921  13.714  0.00  0.00    +0.000 OA
BRANCH   8  10
ATOM      9  C   UNL     1      49.686   7.463  12.959  0.00  0.00    +0.000 C 
ATOM     10  C   UNL     1      48.847   6.971  14.100  0.00  0.00    +0.000 C 
ATOM     11  C   UNL     1      48.663   7.822  15.333  0.00  0.00    +0.000 C 
ATOM     12  C   UNL     1      49.572   6.636  15.401  0.00  0.00    +0.000 C 
BRANCH  12  13
ATOM     13  O   UNL     1      49.061   5.539  16.181  0.00  0.00    +0.000 OA
ATOM     14  H   UNL     1      49.756   5.173  16.759  0.00  0.00    +0.000 HD
ENDBRANCH  12  13
ENDBRANCH   8  10
ENDBRANCH   2   8
ENDBRANCH   1   6
BRANCH   1  15
ATOM     15  C   UNL     1      43.372   3.336  11.436  0.00  0.00    +0.000 C 
BRANCH  15  16
ATOM     16  N   UNL     1      43.847   4.256  10.393  0.00  0.00    +0.000 N 
ATOM     17  C   UNL     1      44.727   3.638   9.488  0.00  0.00    +0.000 A 
ATOM     18  C   UNL     1      45.270   4.394   8.450  0.00  0.00    +0.000 A 
ATOM     19  C   UNL     1      46.133   3.785   7.533  0.00  0.00    +0.000 A 
ATOM     20  C   UNL     1      46.438   2.428   7.663  0.00  0.00    +0.000 A 
ATOM     21  C   UNL     1      45.845   1.752   8.714  0.00  0.00    +0.000 A 
ATOM     22  N   UNL     1      45.005   2.326   9.612  0.00  0.00    +0.000 NA
ATOM     23  H   UNL     1      44.308   5.076  10.780  0.00  0.00    +0.000 HD
BRANCH  20  24
ATOM     24  C   UNL     1      47.354   1.779   6.697  0.00  0.00    +0.000 C 
ATOM     25  N   UNL     1      48.429   2.481   6.224  0.00  0.00    +0.000 N 
ATOM     26  O   UNL     1      47.163   0.628   6.322  0.00  0.00    +0.000 OA
ATOM     27  H   UNL     1      48.669   3.433   6.450  0.00  0.00    +0.000 HD
ATOM     28  H   UNL     1      49.026   1.999   5.563  0.00  0.00    +0.000 HD
ENDBRANCH  20  24
ENDBRANCH  15  16
ENDBRANCH   1  15
TORSDOF 7
ENDMDL
MODEL 5
REMARK VINA RESULT:    -7.076      2.920      3.784
REMARK INTER + INTRA:         -10.358
REMARK INTER:                  -9.587
REMARK INTRA:                  -0.771
REMARK UNBOUND:                -0.593
REMARK  Name = 
REMARK  8 active torsions:
REMARK  status: ('A' for Active; 'I' for Inactive)
REMARK    1  A    between atoms: C_1  and  C_2
REMARK    2  A    between atoms: C_2  and  O_3
REMARK    3  A    between atoms: O_3  and  C_4
REMARK    4  A    between atoms: C_8  and  C_9
REMARK    5  A    between atoms: C_9  and  C_10
REMARK    6  A    between atoms: C_10  and  N_11
REMARK    7  A    between atoms: C_15  and  C_16
REMARK    8  A    between atoms: C_23  and  O_24
REMARK                            x       y       z     vdW  Elec       q    Type
REMARK                         _______ _______ _______ _____ _____    ______ ____
ROOT
ATOM      1  C   UNL     1      44.246   4.573  12.270  0.00  0.00    +0.000 C 
ENDROOT
BRANCH   1   6
ATOM      2  C   UNL     1      45.998   7.919  12.820  0.00  0.00    +0.000 A 
ATOM      3  C   UNL     1      45.322   8.752  11.940  0.00  0.00    +0.000 A 
ATOM      4  C   UNL     1      44.237   8.246  11.212  0.00  0.00    +0.000 A 
ATOM      5  C   UNL     1      43.856   6.904  11.337  0.00  0.00    +0.000 A 
ATOM      6  C   UNL     1      44.577   6.043  12.169  0.00  0.00    +0.000 A 
ATOM      7  C   UNL     1      45.633   6.571  12.919  0.00  0.00    +0.000 A 
BRANCH   2   8
ATOM      8  O   UNL     1      47.051   8.255  13.622  0.00  0.00    +0.000 OA
BRANCH   8  10
ATOM      9  C   UNL     1      49.151   7.023  13.383  0.00  0.00    +0.000 C 
ATOM     10  C   UNL     1      48.407   8.301  13.142  0.00  0.00    +0.000 C 
ATOM     11  C   UNL     1      48.892   9.281  12.102  0.00  0.00    +0.000 C 
ATOM     12  C   UNL     1      49.101   9.597  13.549  0.00  0.00    +0.000 C 
BRANCH  12  13
ATOM     13  O   UNL     1      48.273  10.664  14.051  0.00  0.00    +0.000 OA
ATOM     14  H   UNL     1      48.805  11.303  14.559  0.00  0.00    +0.000 HD
ENDBRANCH  12  13
ENDBRANCH   8  10
ENDBRANCH   2   8
ENDBRANCH   1   6
BRANCH   1  15
ATOM     15  C   UNL     1      43.464   4.063  11.059  0.00  0.00    +0.000 C 
BRANCH  15  16
ATOM     16  N   UNL     1      43.930   2.723  10.673  0.00  0.00    +0.000 N 
ATOM     17  C   UNL     1      44.765   2.748   9.543  0.00  0.00    +0.000 A 
ATOM     18  C   UNL     1      45.273   1.545   9.052  0.00  0.00    +0.000 A 
ATOM     19  C   UNL     1      46.119   1.559   7.939  0.00  0.00    +0.000 A 
ATOM     20  C   UNL     1      46.450   2.774   7.334  0.00  0.00    +0.000 A 
ATOM     21  C   UNL     1      45.911   3.918   7.893  0.00  0.00    +0.000 A 
ATOM     22  N   UNL     1      45.091   3.923   8.974  0.00  0.00    +0.000 NA
ATOM     23  H   UNL     1      43.161   2.083  10.491  0.00  0.00    +0.000 HD
BRANCH  20  24
ATOM     24  C   UNL     1      47.343   2.793   6.152  0.00  0.00    +0.000 C 
ATOM     25  N   UNL     1      48.684   2.584   6.326  0.00  0.00    +0.000 N 
ATOM     26  O   UNL     1      46.896   2.992   5.028  0.00  0.00    +0.000 OA
ATOM     27  H   UNL     1      49.157   2.431   7.203  0.00  0.00    +0.000 HD
ATOM     28  H   UNL     1      49.256   2.610   5.491  0.00  0.00    +0.000 HD
ENDBRANCH  20  24
ENDBRANCH  15  16
ENDBRANCH   1  15
TORSDOF 7
ENDMDL
MODEL 6
REMARK VINA RESULT:    -6.794      3.546      8.455
REMARK INTER + INTRA:          -9.968
REMARK INTER:                  -9.500
REMARK INTRA:                  -0.468
REMARK UNBOUND:                -0.593
REMARK  Name = 
REMARK  8 active torsions:
REMARK  status: ('A' for Active; 'I' for Inactive)
REMARK    1  A    between atoms: C_1  and  C_2
REMARK    2  A    between atoms: C_2  and  O_3
REMARK    3  A    between atoms: O_3  and  C_4
REMARK    4  A    between atoms: C_8  and  C_9
REMARK    5  A    between atoms: C_9  and  C_10
REMARK    6  A    between atoms: C_10  and  N_11
REMARK    7  A    between atoms: C_15  and  C_16
REMARK    8  A    between atoms: C_23  and  O_24
REMARK                            x       y       z     vdW  Elec       q    Type
REMARK                         _______ _______ _______ _____ _____    ______ ____
ROOT
ATOM      1  C   UNL     1      46.252   6.183  13.302  0.00  0.00    +0.000 C 
ENDROOT
BRANCH   1   6
ATOM      2  C   UNL     1      44.662   4.877  10.087  0.00  0.00    +0.000 A 
ATOM      3  C   UNL     1      43.351   4.647  10.481  0.00  0.00    +0.000 A 
ATOM      4  C   UNL     1      42.956   4.986  11.781  0.00  0.00    +0.000 A 
ATOM      5  C   UNL     1      43.876   5.518  12.693  0.00  0.00    +0.000 A 
ATOM      6  C   UNL     1      45.213   5.687  12.324  0.00  0.00    +0.000 A 
ATOM      7  C   UNL     1      45.585   5.381  11.011  0.00  0.00    +0.000 A 
BRANCH   2   8
ATOM      8  O   UNL     1      45.204   4.634   8.857  0.00  0.00    +0.000 OA
BRANCH   8  10
ATOM      9  C   UNL     1      45.179   2.245   9.382  0.00  0.00    +0.000 C 
ATOM     10  C   UNL     1      45.390   3.304   8.343  0.00  0.00    +0.000 C 
ATOM     11  C   UNL     1      45.317   2.957   6.876  0.00  0.00    +0.000 C 
ATOM     12  C   UNL     1      46.655   3.203   7.496  0.00  0.00    +0.000 C 
BRANCH  12  13
ATOM     13  O   UNL     1      47.282   4.435   7.090  0.00  0.00    +0.000 OA
ATOM     14  H   UNL     1      48.185   4.499   7.451  0.00  0.00    +0.000 HD
ENDBRANCH  12  13
ENDBRANCH   8  10
ENDBRANCH   2   8
ENDBRANCH   1   6
BRANCH   1  15
ATOM     15  C   UNL     1      47.304   5.122  13.628  0.00  0.00    +0.000 C 
BRANCH  15  16
ATOM     16  N   UNL     1      46.802   4.199  14.657  0.00  0.00    +0.000 N 
ATOM     17  C   UNL     1      47.484   4.330  15.878  0.00  0.00    +0.000 A 
ATOM     18  C   UNL     1      47.124   3.506  16.945  0.00  0.00    +0.000 A 
ATOM     19  C   UNL     1      47.786   3.639  18.170  0.00  0.00    +0.000 A 
ATOM     20  C   UNL     1      48.794   4.595  18.315  0.00  0.00    +0.000 A 
ATOM     21  C   UNL     1      49.078   5.375  17.209  0.00  0.00    +0.000 A 
ATOM     22  N   UNL     1      48.446   5.262  16.014  0.00  0.00    +0.000 NA
ATOM     23  H   UNL     1      46.851   3.227  14.362  0.00  0.00    +0.000 HD
BRANCH  20  24
ATOM     24  C   UNL     1      49.500   4.736  19.609  0.00  0.00    +0.000 C 
ATOM     25  N   UNL     1      49.007   4.092  20.711  0.00  0.00    +0.000 N 
ATOM     26  O   UNL     1      50.515   5.417  19.703  0.00  0.00    +0.000 OA
ATOM     27  H   UNL     1      48.174   3.525  20.750  0.00  0.00    +0.000 HD
ATOM     28  H   UNL     1      49.519   4.220  21.575  0.00  0.00    +0.000 HD
ENDBRANCH  20  24
ENDBRANCH  15  16
ENDBRANCH   1  15
TORSDOF 7
ENDMDL
MODEL 7
REMARK VINA RESULT:    -6.735      2.840      7.640
REMARK INTER + INTRA:          -9.888
REMARK INTER:                  -9.675
REMARK INTRA:                  -0.213
REMARK UNBOUND:                -0.593
REMARK  Name = 
REMARK  8 active torsions:
REMARK  status: ('A' for Active; 'I' for Inactive)
REMARK    1  A    between atoms: C_1  and  C_2
REMARK    2  A    between atoms: C_2  and  O_3
REMARK    3  A    between atoms: O_3  and  C_4
REMARK    4  A    between atoms: C_8  and  C_9
REMARK    5  A    between atoms: C_9  and  C_10
REMARK    6  A    between atoms: C_10  and  N_11
REMARK    7  A    between atoms: C_15  and  C_16
REMARK    8  A    between atoms: C_23  and  O_24
REMARK                            x       y       z     vdW  Elec       q    Type
REMARK                         _______ _______ _______ _____ _____    ______ ____
ROOT
ATOM      1  C   UNL     1      45.984   7.068  11.753  0.00  0.00    +0.000 C 
ENDROOT
BRANCH   1   6
ATOM      2  C   UNL     1      44.562   4.297   9.547  0.00  0.00    +0.000 A 
ATOM      3  C   UNL     1      43.756   3.599  10.436  0.00  0.00    +0.000 A 
ATOM      4  C   UNL     1      43.612   4.071  11.747  0.00  0.00    +0.000 A 
ATOM      5  C   UNL     1      44.299   5.214  12.175  0.00  0.00    +0.000 A 
ATOM      6  C   UNL     1      45.165   5.880  11.305  0.00  0.00    +0.000 A 
ATOM      7  C   UNL     1      45.270   5.421   9.988  0.00  0.00    +0.000 A 
BRANCH   2   8
ATOM      8  O   UNL     1      44.789   3.995   8.235  0.00  0.00    +0.000 OA
BRANCH   8  10
ATOM      9  C   UNL     1      45.528   1.726   8.775  0.00  0.00    +0.000 C 
ATOM     10  C   UNL     1      45.607   2.883   7.827  0.00  0.00    +0.000 C 
ATOM     11  C   UNL     1      46.094   2.678   6.413  0.00  0.00    +0.000 C 
ATOM     12  C   UNL     1      47.000   3.339   7.402  0.00  0.00    +0.000 C 
BRANCH  12  13
ATOM     13  O   UNL     1      47.197   4.749   7.179  0.00  0.00    +0.000 OA
ATOM     14  H   UNL     1      46.840   5.014   6.312  0.00  0.00    +0.000 HD
ENDBRANCH  12  13
ENDBRANCH   8  10
ENDBRANCH   2   8
ENDBRANCH   1   6
BRANCH   1  15
ATOM     15  C   UNL     1      47.477   6.749  11.846  0.00  0.00    +0.000 C 
BRANCH  15  16
ATOM     16  N   UNL     1      48.015   7.185  13.143  0.00  0.00    +0.000 N 
ATOM     17  C   UNL     1      47.917   6.190  14.130  0.00  0.00    +0.000 A 
ATOM     18  C   UNL     1      48.376   6.467  15.417  0.00  0.00    +0.000 A 
ATOM     19  C   UNL     1      48.298   5.477  16.403  0.00  0.00    +0.000 A 
ATOM     20  C   UNL     1      47.767   4.224  16.089  0.00  0.00    +0.000 A 
ATOM     21  C   UNL     1      47.347   4.033  14.785  0.00  0.00    +0.000 A 
ATOM     22  N   UNL     1      47.416   4.980  13.816  0.00  0.00    +0.000 NA
ATOM     23  H   UNL     1      47.561   8.027  13.488  0.00  0.00    +0.000 HD
BRANCH  20  24
ATOM     24  C   UNL     1      47.679   3.175  17.130  0.00  0.00    +0.000 C 
ATOM     25  N   UNL     1      48.827   2.566  17.561  0.00  0.00    +0.000 N 
ATOM     26  O   UNL     1      46.599   2.850  17.608  0.00  0.00    +0.000 OA
ATOM     27  H   UNL     1      49.761   2.741  17.225  0.00  0.00    +0.000 HD
ATOM     28  H   UNL     1      48.719   1.852  18.271  0.00  0.00    +0.000 HD
ENDBRANCH  20  24
ENDBRANCH  15  16
ENDBRANCH   1  15
TORSDOF 7
ENDMDL
MODEL 8
REMARK VINA RESULT:    -6.641      3.770      7.683
REMARK INTER + INTRA:          -9.758
REMARK INTER:                  -8.776
REMARK INTRA:                  -0.982
REMARK UNBOUND:                -0.593
REMARK  Name = 
REMARK  8 active torsions:
REMARK  status: ('A' for Active; 'I' for Inactive)
REMARK    1  A    between atoms: C_1  and  C_2
REMARK    2  A    between atoms: C_2  and  O_3
REMARK    3  A    between atoms: O_3  and  C_4
REMARK    4  A    between atoms: C_8  and  C_9
REMARK    5  A    between atoms: C_9  and  C_10
REMARK    6  A    between atoms: C_10  and  N_11
REMARK    7  A    between atoms: C_15  and  C_16
REMARK    8  A    between atoms: C_23  and  O_24
REMARK                            x       y       z     vdW  Elec       q    Type
REMARK                         _______ _______ _______ _____ _____    ______ ____
ROOT
ATOM      1  C   UNL     1      48.443   8.908  12.954  0.00  0.00    +0.000 C 
ENDROOT
BRANCH   1   6
ATOM      2  C   UNL     1      45.533   7.033  11.349  0.00  0.00    +0.000 A 
ATOM      3  C   UNL     1      44.517   7.977  11.390  0.00  0.00    +0.000 A 
ATOM      4  C   UNL     1      44.794   9.262  11.875  0.00  0.00    +0.000 A 
ATOM      5  C   UNL     1      46.071   9.587  12.351  0.00  0.00    +0.000 A 
ATOM      6  C   UNL     1      47.078   8.620  12.376  0.00  0.00    +0.000 A 
ATOM      7  C   UNL     1      46.799   7.353  11.853  0.00  0.00    +0.000 A 
BRANCH   2   8
ATOM      8  O   UNL     1      45.444   5.752  10.883  0.00  0.00    +0.000 OA
BRANCH   8  10
ATOM      9  C   UNL     1      45.319   3.933  12.515  0.00  0.00    +0.000 C 
ATOM     10  C   UNL     1      44.598   4.762  11.496  0.00  0.00    +0.000 C 
ATOM     11  C   UNL     1      43.091   4.842  11.506  0.00  0.00    +0.000 C 
ATOM     12  C   UNL     1      43.765   4.017  10.457  0.00  0.00    +0.000 C 
BRANCH  12  13
ATOM     13  O   UNL     1      43.705   4.575   9.130  0.00  0.00    +0.000 OA
ATOM     14  H   UNL     1      42.905   4.271   8.664  0.00  0.00    +0.000 HD
ENDBRANCH  12  13
ENDBRANCH   8  10
ENDBRANCH   2   8
ENDBRANCH   1   6
BRANCH   1  15
ATOM     15  C   UNL     1      49.248   7.635  13.221  0.00  0.00    +0.000 C 
BRANCH  15  16
ATOM     16  N   UNL     1      49.761   7.630  14.599  0.00  0.00    +0.000 N 
ATOM     17  C   UNL     1      49.190   6.614  15.383  0.00  0.00    +0.000 A 
ATOM     18  C   UNL     1      49.572   6.497  16.719  0.00  0.00    +0.000 A 
ATOM     19  C   UNL     1      49.023   5.478  17.505  0.00  0.00    +0.000 A 
ATOM     20  C   UNL     1      48.103   4.588  16.944  0.00  0.00    +0.000 A 
ATOM     21  C   UNL     1      47.791   4.771  15.610  0.00  0.00    +0.000 A 
ATOM     22  N   UNL     1      48.315   5.752  14.832  0.00  0.00    +0.000 NA
ATOM     23  H   UNL     1      49.616   8.520  15.069  0.00  0.00    +0.000 HD
BRANCH  20  24
ATOM     24  C   UNL     1      47.516   3.510  17.773  0.00  0.00    +0.000 C 
ATOM     25  N   UNL     1      48.164   3.118  18.913  0.00  0.00    +0.000 N 
ATOM     26  O   UNL     1      46.463   2.971  17.453  0.00  0.00    +0.000 OA
ATOM     27  H   UNL     1      49.040   3.478  19.258  0.00  0.00    +0.000 HD
ATOM     28  H   UNL     1      47.728   2.376  19.446  0.00  0.00    +0.000 HD
ENDBRANCH  20  24
ENDBRANCH  15  16
ENDBRANCH   1  15
TORSDOF 7
ENDMDL
MODEL 9
REMARK VINA RESULT:    -6.570      2.516      4.082
REMARK INTER + INTRA:          -9.660
REMARK INTER:                  -8.766
REMARK INTRA:                  -0.894
REMARK UNBOUND:                -0.593
REMARK  Name = 
REMARK  8 active torsions:
REMARK  status: ('A' for Active; 'I' for Inactive)
REMARK    1  A    between atoms: C_1  and  C_2
REMARK    2  A    between atoms: C_2  and  O_3
REMARK    3  A    between atoms: O_3  and  C_4
REMARK    4  A    between atoms: C_8  and  C_9
REMARK    5  A    between atoms: C_9  and  C_10
REMARK    6  A    between atoms: C_10  and  N_11
REMARK    7  A    between atoms: C_15  and  C_16
REMARK    8  A    between atoms: C_23  and  O_24
REMARK                            x       y       z     vdW  Elec       q    Type
REMARK                         _______ _______ _______ _____ _____    ______ ____
ROOT
ATOM      1  C   UNL     1      48.443   8.189  13.089  0.00  0.00    +0.000 C 
ENDROOT
BRANCH   1   6
ATOM      2  C   UNL     1      49.002   6.331  16.375  0.00  0.00    +0.000 A 
ATOM      3  C   UNL     1      48.851   7.343  17.314  0.00  0.00    +0.000 A 
ATOM      4  C   UNL     1      48.491   8.628  16.885  0.00  0.00    +0.000 A 
ATOM      5  C   UNL     1      48.320   8.906  15.523  0.00  0.00    +0.000 A 
ATOM      6  C   UNL     1      48.539   7.908  14.570  0.00  0.00    +0.000 A 
ATOM      7  C   UNL     1      48.860   6.621  15.014  0.00  0.00    +0.000 A 
BRANCH   2   8
ATOM      8  O   UNL     1      49.319   5.026  16.621  0.00  0.00    +0.000 OA
BRANCH   8  10
ATOM      9  C   UNL     1      49.161   4.078  18.871  0.00  0.00    +0.000 C 
ATOM     10  C   UNL     1      48.548   4.196  17.508  0.00  0.00    +0.000 C 
ATOM     11  C   UNL     1      47.087   3.881  17.300  0.00  0.00    +0.000 C 
ATOM     12  C   UNL     1      48.114   2.902  16.828  0.00  0.00    +0.000 C 
BRANCH  12  13
ATOM     13  O   UNL     1      48.251   2.826  15.396  0.00  0.00    +0.000 OA
ATOM     14  H   UNL     1      49.189   2.873  15.136  0.00  0.00    +0.000 HD
ENDBRANCH  12  13
ENDBRANCH   8  10
ENDBRANCH   2   8
ENDBRANCH   1   6
BRANCH   1  15
ATOM     15  C   UNL     1      47.018   8.528  12.648  0.00  0.00    +0.000 C 
BRANCH  15  16
ATOM     16  N   UNL     1      46.053   7.619  13.282  0.00  0.00    +0.000 N 
ATOM     17  C   UNL     1      45.595   6.622  12.405  0.00  0.00    +0.000 A 
ATOM     18  C   UNL     1      44.662   5.693  12.866  0.00  0.00    +0.000 A 
ATOM     19  C   UNL     1      44.212   4.685  12.007  0.00  0.00    +0.000 A 
ATOM     20  C   UNL     1      44.703   4.616  10.701  0.00  0.00    +0.000 A 
ATOM     21  C   UNL     1      45.634   5.569  10.332  0.00  0.00    +0.000 A 
ATOM     22  N   UNL     1      46.083   6.553  11.152  0.00  0.00    +0.000 NA
ATOM     23  H   UNL     1      45.246   8.112  13.659  0.00  0.00    +0.000 HD
BRANCH  20  24
ATOM     24  C   UNL     1      44.226   3.552   9.787  0.00  0.00    +0.000 C 
ATOM     25  N   UNL     1      44.233   3.782   8.438  0.00  0.00    +0.000 N 
ATOM     26  O   UNL     1      43.831   2.477  10.221  0.00  0.00    +0.000 OA
ATOM     27  H   UNL     1      44.518   4.632   7.976  0.00  0.00    +0.000 HD
ATOM     28  H   UNL     1      43.895   3.029   7.851  0.00  0.00    +0.000 HD
ENDBRANCH  20  24
ENDBRANCH  15  16
ENDBRANCH   1  15
TORSDOF 7
ENDMDL
