MODEL 1
REMARK VINA RESULT:    -8.285      0.000      0.000
REMARK INTER + INTRA:         -10.917
REMARK INTER:                 -10.222
REMARK INTRA:                  -0.695
REMARK UNBOUND:                -0.695
REMARK  Name = 
REMARK  6 active torsions:
REMARK  status: ('A' for Active; 'I' for Inactive)
REMARK    1  A    between atoms: C_1  and  C_2
REMARK    2  A    between atoms: C_5  and  C_6
REMARK    3  A    between atoms: C_6  and  C_7
REMARK    4  A    between atoms: C_6  and  N_8
REMARK    5  A    between atoms: N_8  and  C_9
REMARK    6  A    between atoms: C_12  and  C_13
REMARK                            x       y       z     vdW  Elec       q    Type
REMARK                         _______ _______ _______ _____ _____    ______ ____
ROOT
ATOM      1  N   UNL     1      43.741   4.844   9.832  0.00  0.00    +0.000 N 
ATOM      2  H   UNL     1      43.915   5.806   9.541  0.00  0.00    +0.000 HD
ENDROOT
BRANCH   1   3
ATOM      3  C   UNL     1      44.551   3.944   9.131  0.00  0.00    +0.000 A 
ATOM      4  C   UNL     1      45.547   4.325   8.233  0.00  0.00    +0.000 A 
ATOM      5  C   UNL     1      46.385   3.375   7.642  0.00  0.00    +0.000 A 
ATOM      6  C   UNL     1      46.211   2.042   7.978  0.00  0.00    +0.000 A 
ATOM      7  N   UNL     1      45.279   1.607   8.864  0.00  0.00    +0.000 NA
ATOM      8  C   UNL     1      44.499   2.574   9.423  0.00  0.00    +0.000 A 
BRANCH   6   9
ATOM      9  C   UNL     1      47.089   1.006   7.345  0.00  0.00    +0.000 C 
ATOM     10  N   UNL     1      46.789  -0.291   7.652  0.00  0.00    +0.000 N 
ATOM     11  O   UNL     1      48.016   1.291   6.597  0.00  0.00    +0.000 OA
ATOM     12  H   UNL     1      46.019  -0.494   8.281  0.00  0.00    +0.000 HD
ATOM     13  H   UNL     1      47.347  -1.039   7.264  0.00  0.00    +0.000 HD
ENDBRANCH   6   9
ENDBRANCH   1   3
BRANCH   1  14
ATOM     14  C   UNL     1      43.572   4.757  11.291  0.00  0.00    +0.000 C 
ATOM     15  C   UNL     1      42.361   5.566  11.769  0.00  0.00    +0.000 C 
BRANCH  14  20
ATOM     16  C   UNL     1      48.450   6.797  13.809  0.00  0.00    +0.000 C 
ATOM     17  C   UNL     1      47.200   6.281  13.159  0.00  0.00    +0.000 A 
ATOM     18  C   UNL     1      46.555   7.009  12.152  0.00  0.00    +0.000 A 
ATOM     19  C   UNL     1      45.386   6.520  11.560  0.00  0.00    +0.000 A 
ATOM     20  C   UNL     1      44.837   5.292  11.960  0.00  0.00    +0.000 A 
ATOM     21  C   UNL     1      45.486   4.573  12.978  0.00  0.00    +0.000 A 
ATOM     22  C   UNL     1      46.656   5.060  13.566  0.00  0.00    +0.000 A 
ENDBRANCH  14  20
ENDBRANCH   1  14
TORSDOF 4
ENDMDL
MODEL 2
REMARK VINA RESULT:    -7.406      1.603      1.994
REMARK INTER + INTRA:          -9.833
REMARK INTER:                  -9.258
REMARK INTRA:                  -0.574
REMARK UNBOUND:                -0.695
REMARK  Name = 
REMARK  6 active torsions:
REMARK  status: ('A' for Active; 'I' for Inactive)
REMARK    1  A    between atoms: C_1  and  C_2
REMARK    2  A    between atoms: C_5  and  C_6
REMARK    3  A    between atoms: C_6  and  C_7
REMARK    4  A    between atoms: C_6  and  N_8
REMARK    5  A    between atoms: N_8  and  C_9
REMARK    6  A    between atoms: C_12  and  C_13
REMARK                            x       y       z     vdW  Elec       q    Type
REMARK                         _______ _______ _______ _____ _____    ______ ____
ROOT
ATOM      1  N   UNL     1      43.945   4.429  10.406  0.00  0.00    +0.000 N 
ATOM      2  H   UNL     1      43.514   5.265  10.011  0.00  0.00    +0.000 HD
ENDROOT
BRANCH   1   3
ATOM      3  C   UNL     1      44.855   3.854   9.512  0.00  0.00    +0.000 A 
ATOM      4  C   UNL     1      45.028   2.480   9.350  0.00  0.00    +0.000 A 
ATOM      5  C   UNL     1      45.884   1.974   8.368  0.00  0.00    +0.000 A 
ATOM      6  C   UNL     1      46.553   2.869   7.549  0.00  0.00    +0.000 A 
ATOM      7  N   UNL     1      46.409   4.217   7.637  0.00  0.00    +0.000 NA
ATOM      8  C   UNL     1      45.551   4.658   8.598  0.00  0.00    +0.000 A 
BRANCH   6   9
ATOM      9  C   UNL     1      47.487   2.348   6.500  0.00  0.00    +0.000 C 
ATOM     10  N   UNL     1      47.421   2.973   5.286  0.00  0.00    +0.000 N 
ATOM     11  O   UNL     1      48.265   1.426   6.706  0.00  0.00    +0.000 OA
ATOM     12  H   UNL     1      46.760   3.729   5.145  0.00  0.00    +0.000 HD
ATOM     13  H   UNL     1      48.020   2.665   4.533  0.00  0.00    +0.000 HD
ENDBRANCH   6   9
ENDBRANCH   1   3
BRANCH   1  14
ATOM     14  C   UNL     1      44.277   4.627  11.825  0.00  0.00    +0.000 C 
ATOM     15  C   UNL     1      43.016   4.779  12.684  0.00  0.00    +0.000 C 
BRANCH  14  20
ATOM     16  C   UNL     1      47.565   9.452  12.263  0.00  0.00    +0.000 C 
ATOM     17  C   UNL     1      46.716   8.221  12.149  0.00  0.00    +0.000 A 
ATOM     18  C   UNL     1      45.363   8.305  11.803  0.00  0.00    +0.000 A 
ATOM     19  C   UNL     1      44.580   7.149  11.708  0.00  0.00    +0.000 A 
ATOM     20  C   UNL     1      45.135   5.884  11.953  0.00  0.00    +0.000 A 
ATOM     21  C   UNL     1      46.492   5.810  12.310  0.00  0.00    +0.000 A 
ATOM     22  C   UNL     1      47.274   6.964  12.401  0.00  0.00    +0.000 A 
ENDBRANCH  14  20
ENDBRANCH   1  14
TORSDOF 4
ENDMDL
MODEL 3
REMARK VINA RESULT:    -7.299      3.068      6.007
REMARK INTER + INTRA:          -9.700
REMARK INTER:                  -9.712
REMARK INTRA:                   0.012
REMARK UNBOUND:                -0.695
REMARK  Name = 
REMARK  6 active torsions:
REMARK  status: ('A' for Active; 'I' for Inactive)
REMARK    1  A    between atoms: C_1  and  C_2
REMARK    2  A    between atoms: C_5  and  C_6
REMARK    3  A    between atoms: C_6  and  C_7
REMARK    4  A    between atoms: C_6  and  N_8
REMARK    5  A    between atoms: N_8  and  C_9
REMARK    6  A    between atoms: C_12  and  C_13
REMARK                            x       y       z     vdW  Elec       q    Type
REMARK                         _______ _______ _______ _____ _____    ______ ____
ROOT
ATOM      1  N   UNL     1      44.158   5.333  10.647  0.00  0.00    +0.000 N 
ATOM      2  H   UNL     1      43.342   5.877  10.927  0.00  0.00    +0.000 HD
ENDROOT
BRANCH   1   3
ATOM      3  C   UNL     1      45.221   5.510  11.539  0.00  0.00    +0.000 A 
ATOM      4  C   UNL     1      46.355   6.273  11.260  0.00  0.00    +0.000 A 
ATOM      5  C   UNL     1      47.333   6.489  12.234  0.00  0.00    +0.000 A 
ATOM      6  C   UNL     1      47.148   5.934  13.490  0.00  0.00    +0.000 A 
ATOM      7  N   UNL     1      46.057   5.204  13.834  0.00  0.00    +0.000 NA
ATOM      8  C   UNL     1      45.125   5.037  12.854  0.00  0.00    +0.000 A 
BRANCH   6   9
ATOM      9  C   UNL     1      48.193   6.141  14.545  0.00  0.00    +0.000 C 
ATOM     10  N   UNL     1      47.831   5.785  15.814  0.00  0.00    +0.000 N 
ATOM     11  O   UNL     1      49.303   6.594  14.297  0.00  0.00    +0.000 OA
ATOM     12  H   UNL     1      46.901   5.419  15.987  0.00  0.00    +0.000 HD
ATOM     13  H   UNL     1      48.487   5.906  16.573  0.00  0.00    +0.000 HD
ENDBRANCH   6   9
ENDBRANCH   1   3
BRANCH   1  14
ATOM     14  C   UNL     1      43.762   3.997  10.172  0.00  0.00    +0.000 C 
ATOM     15  C   UNL     1      43.623   3.004  11.331  0.00  0.00    +0.000 C 
BRANCH  14  20
ATOM     16  C   UNL     1      47.798   2.078   6.387  0.00  0.00    +0.000 C 
ATOM     17  C   UNL     1      46.764   2.578   7.354  0.00  0.00    +0.000 A 
ATOM     18  C   UNL     1      46.420   3.933   7.408  0.00  0.00    +0.000 A 
ATOM     19  C   UNL     1      45.461   4.387   8.320  0.00  0.00    +0.000 A 
ATOM     20  C   UNL     1      44.824   3.495   9.195  0.00  0.00    +0.000 A 
ATOM     21  C   UNL     1      45.183   2.137   9.141  0.00  0.00    +0.000 A 
ATOM     22  C   UNL     1      46.138   1.684   8.227  0.00  0.00    +0.000 A 
ENDBRANCH  14  20
ENDBRANCH   1  14
TORSDOF 4
ENDMDL
MODEL 4
REMARK VINA RESULT:    -6.873      3.311      6.727
REMARK INTER + INTRA:          -9.175
REMARK INTER:                  -8.622
REMARK INTRA:                  -0.552
REMARK UNBOUND:                -0.695
REMARK  Name = 
REMARK  6 active torsions:
REMARK  status: ('A' for Active; 'I' for Inactive)
REMARK    1  A    between atoms: C_1  and  C_2
REMARK    2  A    between atoms: C_5  and  C_6
REMARK    3  A    between atoms: C_6  and  C_7
REMARK    4  A    between atoms: C_6  and  N_8
REMARK    5  A    between atoms: N_8  and  C_9
REMARK    6  A    between atoms: C_12  and  C_13
REMARK                            x       y       z     vdW  Elec       q    Type
REMARK                         _______ _______ _______ _____ _____    ______ ____
ROOT
ATOM      1  N   UNL     1      45.180   4.453  11.820  0.00  0.00    +0.000 N 
ATOM      2  H   UNL     1      46.056   3.932  11.790  0.00  0.00    +0.000 HD
ENDROOT
BRANCH   1   3
ATOM      3  C   UNL     1      45.406   5.824  11.986  0.00  0.00    +0.000 A 
ATOM      4  C   UNL     1      46.562   6.362  12.551  0.00  0.00    +0.000 A 
ATOM      5  C   UNL     1      46.765   7.744  12.596  0.00  0.00    +0.000 A 
ATOM      6  C   UNL     1      45.793   8.571  12.056  0.00  0.00    +0.000 A 
ATOM      7  N   UNL     1      44.658   8.112  11.469  0.00  0.00    +0.000 NA
ATOM      8  C   UNL     1      44.517   6.757  11.436  0.00  0.00    +0.000 A 
BRANCH   6   9
ATOM      9  C   UNL     1      45.983  10.057  12.107  0.00  0.00    +0.000 C 
ATOM     10  N   UNL     1      44.838  10.798  12.180  0.00  0.00    +0.000 N 
ATOM     11  O   UNL     1      47.088  10.584  12.088  0.00  0.00    +0.000 OA
ATOM     12  H   UNL     1      43.937  10.332  12.186  0.00  0.00    +0.000 HD
ATOM     13  H   UNL     1      44.896  11.806  12.210  0.00  0.00    +0.000 HD
ENDBRANCH   6   9
ENDBRANCH   1   3
BRANCH   1  14
ATOM     14  C   UNL     1      44.228   3.943  10.821  0.00  0.00    +0.000 C 
ATOM     15  C   UNL     1      43.402   2.775  11.372  0.00  0.00    +0.000 C 
BRANCH  14  20
ATOM     16  C   UNL     1      47.277   2.143   6.157  0.00  0.00    +0.000 C 
ATOM     17  C   UNL     1      46.495   2.596   7.354  0.00  0.00    +0.000 A 
ATOM     18  C   UNL     1      45.950   1.673   8.254  0.00  0.00    +0.000 A 
ATOM     19  C   UNL     1      45.216   2.109   9.362  0.00  0.00    +0.000 A 
ATOM     20  C   UNL     1      45.013   3.477   9.596  0.00  0.00    +0.000 A 
ATOM     21  C   UNL     1      45.555   4.396   8.683  0.00  0.00    +0.000 A 
ATOM     22  C   UNL     1      46.292   3.961   7.578  0.00  0.00    +0.000 A 
ENDBRANCH  14  20
ENDBRANCH   1  14
TORSDOF 4
ENDMDL
MODEL 5
REMARK VINA RESULT:    -6.799      3.577      6.661
REMARK INTER + INTRA:          -9.083
REMARK INTER:                  -8.489
REMARK INTRA:                  -0.594
REMARK UNBOUND:                -0.695
REMARK  Name = 
REMARK  6 active torsions:
REMARK  status: ('A' for Active; 'I' for Inactive)
REMARK    1  A    between atoms: C_1  and  C_2
REMARK    2  A    between atoms: C_5  and  C_6
REMARK    3  A    between atoms: C_6  and  C_7
REMARK    4  A    between atoms: C_6  and  N_8
REMARK    5  A    between atoms: N_8  and  C_9
REMARK    6  A    between atoms: C_12  and  C_13
REMARK                            x       y       z     vdW  Elec       q    Type
REMARK                         _______ _______ _______ _____ _____    ______ ____
ROOT
ATOM      1  N   UNL     1      45.233   4.104  12.188  0.00  0.00    +0.000 N 
ATOM      2  H   UNL     1      45.536   3.143  12.036  0.00  0.00    +0.000 HD
ENDROOT
BRANCH   1   3
ATOM      3  C   UNL     1      46.208   4.846  12.864  0.00  0.00    +0.000 A 
ATOM      4  C   UNL     1      46.608   6.130  12.495  0.00  0.00    +0.000 A 
ATOM      5  C   UNL     1      47.516   6.852  13.273  0.00  0.00    +0.000 A 
ATOM      6  C   UNL     1      48.005   6.267  14.431  0.00  0.00    +0.000 A 
ATOM      7  N   UNL     1      47.636   5.033  14.861  0.00  0.00    +0.000 NA
ATOM      8  C   UNL     1      46.737   4.379  14.075  0.00  0.00    +0.000 A 
BRANCH   6   9
ATOM      9  C   UNL     1      48.991   7.019  15.273  0.00  0.00    +0.000 C 
ATOM     10  N   UNL     1      48.454   7.897  16.171  0.00  0.00    +0.000 N 
ATOM     11  O   UNL     1      50.201   6.862  15.173  0.00  0.00    +0.000 OA
ATOM     12  H   UNL     1      47.447   8.010  16.224  0.00  0.00    +0.000 HD
ATOM     13  H   UNL     1      49.065   8.441  16.764  0.00  0.00    +0.000 HD
ENDBRANCH   6   9
ENDBRANCH   1   3
BRANCH   1  14
ATOM     14  C   UNL     1      44.545   4.634  11.001  0.00  0.00    +0.000 C 
ATOM     15  C   UNL     1      43.040   4.343  11.043  0.00  0.00    +0.000 C 
BRANCH  14  20
ATOM     16  C   UNL     1      46.917   2.135   6.266  0.00  0.00    +0.000 C 
ATOM     17  C   UNL     1      46.307   2.767   7.482  0.00  0.00    +0.000 A 
ATOM     18  C   UNL     1      45.674   1.992   8.460  0.00  0.00    +0.000 A 
ATOM     19  C   UNL     1      45.102   2.596   9.585  0.00  0.00    +0.000 A 
ATOM     20  C   UNL     1      45.153   3.987   9.758  0.00  0.00    +0.000 A 
ATOM     21  C   UNL     1      45.781   4.759   8.766  0.00  0.00    +0.000 A 
ATOM     22  C   UNL     1      46.356   4.155   7.644  0.00  0.00    +0.000 A 
ENDBRANCH  14  20
ENDBRANCH   1  14
TORSDOF 4
ENDMDL
MODEL 6
REMARK VINA RESULT:    -6.797      3.596      6.742
REMARK INTER + INTRA:          -9.082
REMARK INTER:                  -8.483
REMARK INTRA:                  -0.598
REMARK UNBOUND:                -0.695
REMARK  Name = 
REMARK  6 active torsions:
REMARK  status: ('A' for Active; 'I' for Inactive)
REMARK    1  A    between atoms: C_1  and  C_2
REMARK    2  A    between atoms: C_5  and  C_6
REMARK    3  A    between atoms: C_6  and  C_7
REMARK    4  A    between atoms: C_6  and  N_8
REMARK    5  A    between atoms: N_8  and  C_9
REMARK    6  A    between atoms: C_12  and  C_13
REMARK                            x       y       z     vdW  Elec       q    Type
REMARK                         _______ _______ _______ _____ _____    ______ ____
ROOT
ATOM      1  N   UNL     1      45.413   4.030  12.377  0.00  0.00    +0.000 N 
ATOM      2  H   UNL     1      46.125   3.317  12.219  0.00  0.00    +0.000 HD
ENDROOT
BRANCH   1   3
ATOM      3  C   UNL     1      45.989   5.262  12.707  0.00  0.00    +0.000 A 
ATOM      4  C   UNL     1      45.397   6.496  12.444  0.00  0.00    +0.000 A 
ATOM      5  C   UNL     1      45.982   7.684  12.888  0.00  0.00    +0.000 A 
ATOM      6  C   UNL     1      47.164   7.609  13.608  0.00  0.00    +0.000 A 
ATOM      7  N   UNL     1      47.779   6.439  13.920  0.00  0.00    +0.000 NA
ATOM      8  C   UNL     1      47.159   5.310  13.478  0.00  0.00    +0.000 A 
BRANCH   6   9
ATOM      9  C   UNL     1      47.817   8.872  14.082  0.00  0.00    +0.000 C 
ATOM     10  N   UNL     1      47.561   9.220  15.378  0.00  0.00    +0.000 N 
ATOM     11  O   UNL     1      48.537   9.554  13.364  0.00  0.00    +0.000 OA
ATOM     12  H   UNL     1      46.954   8.638  15.945  0.00  0.00    +0.000 HD
ATOM     13  H   UNL     1      47.965  10.065  15.758  0.00  0.00    +0.000 HD
ENDBRANCH   6   9
ENDBRANCH   1   3
BRANCH   1  14
ATOM     14  C   UNL     1      44.331   3.923  11.387  0.00  0.00    +0.000 C 
ATOM     15  C   UNL     1      43.342   2.809  11.748  0.00  0.00    +0.000 C 
BRANCH  14  20
ATOM     16  C   UNL     1      46.743   2.789   6.173  0.00  0.00    +0.000 C 
ATOM     17  C   UNL     1      46.124   3.071   7.511  0.00  0.00    +0.000 A 
ATOM     18  C   UNL     1      45.653   2.034   8.323  0.00  0.00    +0.000 A 
ATOM     19  C   UNL     1      45.071   2.312   9.564  0.00  0.00    +0.000 A 
ATOM     20  C   UNL     1      44.949   3.632  10.021  0.00  0.00    +0.000 A 
ATOM     21  C   UNL     1      45.415   4.669   9.194  0.00  0.00    +0.000 A 
ATOM     22  C   UNL     1      46.000   4.390   7.956  0.00  0.00    +0.000 A 
ENDBRANCH  14  20
ENDBRANCH   1  14
TORSDOF 4
ENDMDL
MODEL 7
REMARK VINA RESULT:    -5.824      3.308      5.215
REMARK INTER + INTRA:          -7.881
REMARK INTER:                  -7.305
REMARK INTRA:                  -0.576
REMARK UNBOUND:                -0.695
REMARK  Name = 
REMARK  6 active torsions:
REMARK  status: ('A' for Active; 'I' for Inactive)
REMARK    1  A    between atoms: C_1  and  C_2
REMARK    2  A    between atoms: C_5  and  C_6
REMARK    3  A    between atoms: C_6  and  C_7
REMARK    4  A    between atoms: C_6  and  N_8
REMARK    5  A    between atoms: N_8  and  C_9
REMARK    6  A    between atoms: C_12  and  C_13
REMARK                            x       y       z     vdW  Elec       q    Type
REMARK                         _______ _______ _______ _____ _____    ______ ____
ROOT
ATOM      1  N   UNL     1      46.871   6.905  13.650  0.00  0.00    +0.000 N 
ATOM      2  H   UNL     1      46.494   7.845  13.533  0.00  0.00    +0.000 HD
ENDROOT
BRANCH   1   3
ATOM      3  C   UNL     1      46.086   5.954  12.989  0.00  0.00    +0.000 A 
ATOM      4  C   UNL     1      45.642   6.085  11.674  0.00  0.00    +0.000 A 
ATOM      5  C   UNL     1      44.945   5.051  11.044  0.00  0.00    +0.000 A 
ATOM      6  C   UNL     1      44.713   3.884  11.753  0.00  0.00    +0.000 A 
ATOM      7  N   UNL     1      45.140   3.681  13.025  0.00  0.00    +0.000 NA
ATOM      8  C   UNL     1      45.829   4.713  13.588  0.00  0.00    +0.000 A 
BRANCH   6   9
ATOM      9  C   UNL     1      43.954   2.767  11.100  0.00  0.00    +0.000 C 
ATOM     10  N   UNL     1      44.498   2.278   9.947  0.00  0.00    +0.000 N 
ATOM     11  O   UNL     1      42.915   2.314  11.564  0.00  0.00    +0.000 OA
ATOM     12  H   UNL     1      45.356   2.680   9.584  0.00  0.00    +0.000 HD
ATOM     13  H   UNL     1      44.032   1.529   9.453  0.00  0.00    +0.000 HD
ENDBRANCH   6   9
ENDBRANCH   1   3
BRANCH   1  14
ATOM     14  C   UNL     1      48.338   6.909  13.539  0.00  0.00    +0.000 C 
ATOM     15  C   UNL     1      49.009   6.983  14.916  0.00  0.00    +0.000 C 
BRANCH  14  20
ATOM     16  C   UNL     1      49.924  11.516  10.291  0.00  0.00    +0.000 C 
ATOM     17  C   UNL     1      49.509  10.338  11.124  0.00  0.00    +0.000 A 
ATOM     18  C   UNL     1      48.203  10.220  11.610  0.00  0.00    +0.000 A 
ATOM     19  C   UNL     1      47.832   9.122  12.392  0.00  0.00    +0.000 A 
ATOM     20  C   UNL     1      48.759   8.116  12.703  0.00  0.00    +0.000 A 
ATOM     21  C   UNL     1      50.072   8.247  12.219  0.00  0.00    +0.000 A 
ATOM     22  C   UNL     1      50.440   9.343  11.434  0.00  0.00    +0.000 A 
ENDBRANCH  14  20
ENDBRANCH   1  14
TORSDOF 4
ENDMDL
MODEL 8
REMARK VINA RESULT:    -5.802      4.534      6.372
REMARK INTER + INTRA:          -7.853
REMARK INTER:                  -7.358
REMARK INTRA:                  -0.495
REMARK UNBOUND:                -0.695
REMARK  Name = 
REMARK  6 active torsions:
REMARK  status: ('A' for Active; 'I' for Inactive)
REMARK    1  A    between atoms: C_1  and  C_2
REMARK    2  A    between atoms: C_5  and  C_6
REMARK    3  A    between atoms: C_6  and  C_7
REMARK    4  A    between atoms: C_6  and  N_8
REMARK    5  A    between atoms: N_8  and  C_9
REMARK    6  A    between atoms: C_12  and  C_13
REMARK                            x       y       z     vdW  Elec       q    Type
REMARK                         _______ _______ _______ _____ _____    ______ ____
ROOT
ATOM      1  N   UNL     1      47.749   5.169  15.641  0.00  0.00    +0.000 N 
ATOM      2  H   UNL     1      48.721   5.352  15.395  0.00  0.00    +0.000 HD
ENDROOT
BRANCH   1   3
ATOM      3  C   UNL     1      46.972   4.918  14.504  0.00  0.00    +0.000 A 
ATOM      4  C   UNL     1      46.527   5.907  13.628  0.00  0.00    +0.000 A 
ATOM      5  C   UNL     1      45.839   5.575  12.459  0.00  0.00    +0.000 A 
ATOM      6  C   UNL     1      45.616   4.236  12.181  0.00  0.00    +0.000 A 
ATOM      7  N   UNL     1      46.045   3.224  12.977  0.00  0.00    +0.000 NA
ATOM      8  C   UNL     1      46.725   3.600  14.096  0.00  0.00    +0.000 A 
BRANCH   6   9
ATOM      9  C   UNL     1      44.867   3.858  10.939  0.00  0.00    +0.000 C 
ATOM     10  N   UNL     1      44.720   2.518  10.721  0.00  0.00    +0.000 N 
ATOM     11  O   UNL     1      44.409   4.689  10.164  0.00  0.00    +0.000 OA
ATOM     12  H   UNL     1      45.118   1.855  11.378  0.00  0.00    +0.000 HD
ATOM     13  H   UNL     1      44.231   2.196   9.898  0.00  0.00    +0.000 HD
ENDBRANCH   6   9
ENDBRANCH   1   3
BRANCH   1  14
ATOM     14  C   UNL     1      47.659   4.321  16.840  0.00  0.00    +0.000 C 
ATOM     15  C   UNL     1      47.172   5.114  18.058  0.00  0.00    +0.000 C 
BRANCH  14  20
ATOM     16  C   UNL     1      52.983   2.127  17.908  0.00  0.00    +0.000 C 
ATOM     17  C   UNL     1      51.622   2.697  17.637  0.00  0.00    +0.000 A 
ATOM     18  C   UNL     1      51.357   4.058  17.823  0.00  0.00    +0.000 A 
ATOM     19  C   UNL     1      50.081   4.575  17.574  0.00  0.00    +0.000 A 
ATOM     20  C   UNL     1      49.043   3.743  17.130  0.00  0.00    +0.000 A 
ATOM     21  C   UNL     1      49.315   2.375  16.955  0.00  0.00    +0.000 A 
ATOM     22  C   UNL     1      50.591   1.860  17.200  0.00  0.00    +0.000 A 
ENDBRANCH  14  20
ENDBRANCH   1  14
TORSDOF 4
ENDMDL
