MODEL 1
REMARK VINA RESULT:    -8.396      0.000      0.000
REMARK INTER + INTRA:         -11.756
REMARK INTER:                 -10.850
REMARK INTRA:                  -0.906
REMARK UNBOUND:                -0.906
REMARK  Name = 
REMARK  5 active torsions:
REMARK  status: ('A' for Active; 'I' for Inactive)
REMARK    1  A    between atoms: C_2  and  C_4
REMARK    2  A    between atoms: C_7  and  O_8
REMARK    3  A    between atoms: O_8  and  C_9
REMARK    4  A    between atoms: C_9  and  C_10
REMARK    5  A    between atoms: C_14  and  C_15
REMARK                            x       y       z     vdW  Elec       q    Type
REMARK                         _______ _______ _______ _____ _____    ______ ____
ROOT
ATOM      1  C   UNL     1      43.676   4.216  11.290  0.00  0.00    +0.000 C 
ENDROOT
BRANCH   1   2
ATOM      2  C   UNL     1      44.838   4.675  12.144  0.00  0.00    +0.000 A 
ATOM      3  C   UNL     1      45.623   3.725  12.809  0.00  0.00    +0.000 A 
ATOM      4  C   UNL     1      46.759   4.113  13.518  0.00  0.00    +0.000 A 
ATOM      5  C   UNL     1      47.135   5.455  13.554  0.00  0.00    +0.000 A 
ATOM      6  C   UNL     1      46.380   6.424  12.880  0.00  0.00    +0.000 A 
ATOM      7  C   UNL     1      45.225   6.020  12.188  0.00  0.00    +0.000 A 
BRANCH   6   8
ATOM      8  C   UNL     1      46.836   7.872  12.861  0.00  0.00    +0.000 C 
ATOM      9  C   UNL     1      45.767   8.806  12.275  0.00  0.00    +0.000 C 
ATOM     10  C   UNL     1      46.308  10.222  12.133  0.00  0.00    +0.000 C 
ATOM     11  O   UNL     1      47.507  10.232  11.359  0.00  0.00    +0.000 OA
ATOM     12  C   UNL     1      48.553   9.489  11.980  0.00  0.00    +0.000 C 
ATOM     13  C   UNL     1      48.167   8.024  12.106  0.00  0.00    +0.000 C 
ENDBRANCH   6   8
ENDBRANCH   1   2
BRANCH   1  14
ATOM     14  O   UNL     1      43.766   4.711   9.949  0.00  0.00    +0.000 OA
BRANCH  14  18
ATOM     15  C   UNL     1      46.411   2.463   7.726  0.00  0.00    +0.000 A 
ATOM     16  C   UNL     1      45.560   1.828   8.632  0.00  0.00    +0.000 A 
ATOM     17  C   UNL     1      44.668   2.597   9.385  0.00  0.00    +0.000 A 
ATOM     18  C   UNL     1      44.661   3.971   9.199  0.00  0.00    +0.000 A 
ATOM     19  N   UNL     1      45.482   4.609   8.335  0.00  0.00    +0.000 NA
ATOM     20  C   UNL     1      46.341   3.843   7.624  0.00  0.00    +0.000 A 
BRANCH  15  22
ATOM     21  N   UNL     1      48.482   2.461   6.458  0.00  0.00    +0.000 N 
ATOM     22  C   UNL     1      47.393   1.754   6.882  0.00  0.00    +0.000 C 
ATOM     23  O   UNL     1      47.262   0.569   6.607  0.00  0.00    +0.000 OA
ATOM     24  H   UNL     1      49.201   1.922   5.989  0.00  0.00    +0.000 HD
ATOM     25  H   UNL     1      48.757   3.338   6.876  0.00  0.00    +0.000 HD
ENDBRANCH  15  22
ENDBRANCH  14  18
ENDBRANCH   1  14
TORSDOF 5
ENDMDL
MODEL 2
REMARK VINA RESULT:    -8.243      2.265      3.569
REMARK INTER + INTRA:         -11.558
REMARK INTER:                 -10.921
REMARK INTRA:                  -0.637
REMARK UNBOUND:                -0.906
REMARK  Name = 
REMARK  5 active torsions:
REMARK  status: ('A' for Active; 'I' for Inactive)
REMARK    1  A    between atoms: C_2  and  C_4
REMARK    2  A    between atoms: C_7  and  O_8
REMARK    3  A    between atoms: O_8  and  C_9
REMARK    4  A    between atoms: C_9  and  C_10
REMARK    5  A    between atoms: C_14  and  C_15
REMARK                            x       y       z     vdW  Elec       q    Type
REMARK                         _______ _______ _______ _____ _____    ______ ____
ROOT
ATOM      1  C   UNL     1      43.824   4.510  11.263  0.00  0.00    +0.000 C 
ENDROOT
BRANCH   1   2
ATOM      2  C   UNL     1      45.047   5.123  11.909  0.00  0.00    +0.000 A 
ATOM      3  C   UNL     1      45.626   6.267  11.344  0.00  0.00    +0.000 A 
ATOM      4  C   UNL     1      46.690   6.909  11.975  0.00  0.00    +0.000 A 
ATOM      5  C   UNL     1      47.174   6.429  13.191  0.00  0.00    +0.000 A 
ATOM      6  C   UNL     1      46.600   5.300  13.789  0.00  0.00    +0.000 A 
ATOM      7  C   UNL     1      45.543   4.649  13.130  0.00  0.00    +0.000 A 
BRANCH   6   8
ATOM      8  C   UNL     1      47.082   4.825  15.149  0.00  0.00    +0.000 C 
ATOM      9  C   UNL     1      48.237   5.683  15.684  0.00  0.00    +0.000 C 
ATOM     10  C   UNL     1      48.794   5.094  16.973  0.00  0.00    +0.000 C 
ATOM     11  O   UNL     1      49.183   3.735  16.784  0.00  0.00    +0.000 OA
ATOM     12  C   UNL     1      48.078   2.904  16.435  0.00  0.00    +0.000 C 
ATOM     13  C   UNL     1      47.478   3.340  15.108  0.00  0.00    +0.000 C 
ENDBRANCH   6   8
ENDBRANCH   1   2
BRANCH   1  14
ATOM     14  O   UNL     1      43.769   4.774   9.857  0.00  0.00    +0.000 OA
BRANCH  14  18
ATOM     15  C   UNL     1      46.372   2.332   7.794  0.00  0.00    +0.000 A 
ATOM     16  C   UNL     1      45.492   1.773   8.723  0.00  0.00    +0.000 A 
ATOM     17  C   UNL     1      44.615   2.608   9.421  0.00  0.00    +0.000 A 
ATOM     18  C   UNL     1      44.650   3.969   9.160  0.00  0.00    +0.000 A 
ATOM     19  N   UNL     1      45.499   4.534   8.273  0.00  0.00    +0.000 NA
ATOM     20  C   UNL     1      46.344   3.706   7.616  0.00  0.00    +0.000 A 
BRANCH  15  22
ATOM     21  N   UNL     1      48.426   2.214   6.504  0.00  0.00    +0.000 N 
ATOM     22  C   UNL     1      47.341   1.550   7.002  0.00  0.00    +0.000 C 
ATOM     23  O   UNL     1      47.206   0.346   6.834  0.00  0.00    +0.000 OA
ATOM     24  H   UNL     1      49.138   1.635   6.075  0.00  0.00    +0.000 HD
ATOM     25  H   UNL     1      48.707   3.124   6.841  0.00  0.00    +0.000 HD
ENDBRANCH  15  22
ENDBRANCH  14  18
ENDBRANCH   1  14
TORSDOF 5
ENDMDL
MODEL 3
REMARK VINA RESULT:    -8.023      1.469      2.371
REMARK INTER + INTRA:         -11.274
REMARK INTER:                 -10.468
REMARK INTRA:                  -0.806
REMARK UNBOUND:                -0.906
REMARK  Name = 
REMARK  5 active torsions:
REMARK  status: ('A' for Active; 'I' for Inactive)
REMARK    1  A    between atoms: C_2  and  C_4
REMARK    2  A    between atoms: C_7  and  O_8
REMARK    3  A    between atoms: O_8  and  C_9
REMARK    4  A    between atoms: C_9  and  C_10
REMARK    5  A    between atoms: C_14  and  C_15
REMARK                            x       y       z     vdW  Elec       q    Type
REMARK                         _______ _______ _______ _____ _____    ______ ____
ROOT
ATOM      1  C   UNL     1      44.190   4.743  11.360  0.00  0.00    +0.000 C 
ENDROOT
BRANCH   1   2
ATOM      2  C   UNL     1      44.981   6.022  11.531  0.00  0.00    +0.000 A 
ATOM      3  C   UNL     1      44.313   7.253  11.517  0.00  0.00    +0.000 A 
ATOM      4  C   UNL     1      45.001   8.437  11.774  0.00  0.00    +0.000 A 
ATOM      5  C   UNL     1      46.363   8.403  12.072  0.00  0.00    +0.000 A 
ATOM      6  C   UNL     1      47.051   7.183  12.116  0.00  0.00    +0.000 A 
ATOM      7  C   UNL     1      46.348   6.000  11.831  0.00  0.00    +0.000 A 
BRANCH   6   8
ATOM      8  C   UNL     1      48.516   7.145  12.513  0.00  0.00    +0.000 C 
ATOM      9  C   UNL     1      48.719   7.451  14.004  0.00  0.00    +0.000 C 
ATOM     10  C   UNL     1      50.200   7.550  14.337  0.00  0.00    +0.000 C 
ATOM     11  O   UNL     1      50.845   8.512  13.504  0.00  0.00    +0.000 OA
ATOM     12  C   UNL     1      50.792   8.150  12.126  0.00  0.00    +0.000 C 
ATOM     13  C   UNL     1      49.351   8.097  11.642  0.00  0.00    +0.000 C 
ENDBRANCH   6   8
ENDBRANCH   1   2
BRANCH   1  14
ATOM     14  O   UNL     1      43.713   4.582  10.019  0.00  0.00    +0.000 OA
BRANCH  14  18
ATOM     15  C   UNL     1      46.381   2.432   7.729  0.00  0.00    +0.000 A 
ATOM     16  C   UNL     1      45.618   1.775   8.696  0.00  0.00    +0.000 A 
ATOM     17  C   UNL     1      44.717   2.511   9.471  0.00  0.00    +0.000 A 
ATOM     18  C   UNL     1      44.614   3.875   9.246  0.00  0.00    +0.000 A 
ATOM     19  N   UNL     1      45.349   4.535   8.322  0.00  0.00    +0.000 NA
ATOM     20  C   UNL     1      46.218   3.801   7.590  0.00  0.00    +0.000 A 
BRANCH  15  22
ATOM     21  N   UNL     1      48.444   2.486   6.449  0.00  0.00    +0.000 N 
ATOM     22  C   UNL     1      47.362   1.758   6.856  0.00  0.00    +0.000 C 
ATOM     23  O   UNL     1      47.238   0.582   6.544  0.00  0.00    +0.000 OA
ATOM     24  H   UNL     1      49.163   1.969   5.958  0.00  0.00    +0.000 HD
ATOM     25  H   UNL     1      48.715   3.351   6.894  0.00  0.00    +0.000 HD
ENDBRANCH  15  22
ENDBRANCH  14  18
ENDBRANCH   1  14
TORSDOF 5
ENDMDL
MODEL 4
REMARK VINA RESULT:    -7.087      2.513      6.621
REMARK INTER + INTRA:         -10.065
REMARK INTER:                  -9.144
REMARK INTRA:                  -0.921
REMARK UNBOUND:                -0.906
REMARK  Name = 
REMARK  5 active torsions:
REMARK  status: ('A' for Active; 'I' for Inactive)
REMARK    1  A    between atoms: C_2  and  C_4
REMARK    2  A    between atoms: C_7  and  O_8
REMARK    3  A    between atoms: O_8  and  C_9
REMARK    4  A    between atoms: C_9  and  C_10
REMARK    5  A    between atoms: C_14  and  C_15
REMARK                            x       y       z     vdW  Elec       q    Type
REMARK                         _______ _______ _______ _____ _____    ______ ____
ROOT
ATOM      1  C   UNL     1      44.313   6.670  11.516  0.00  0.00    +0.000 C 
ENDROOT
BRANCH   1   2
ATOM      2  C   UNL     1      44.298   5.202  11.152  0.00  0.00    +0.000 A 
ATOM      3  C   UNL     1      43.548   4.307  11.927  0.00  0.00    +0.000 A 
ATOM      4  C   UNL     1      43.435   2.968  11.556  0.00  0.00    +0.000 A 
ATOM      5  C   UNL     1      44.052   2.512  10.392  0.00  0.00    +0.000 A 
ATOM      6  C   UNL     1      44.790   3.389   9.587  0.00  0.00    +0.000 A 
ATOM      7  C   UNL     1      44.914   4.731   9.987  0.00  0.00    +0.000 A 
BRANCH   6   8
ATOM      8  C   UNL     1      45.397   2.904   8.282  0.00  0.00    +0.000 C 
ATOM      9  C   UNL     1      46.098   1.547   8.441  0.00  0.00    +0.000 C 
ATOM     10  C   UNL     1      46.821   1.161   7.159  0.00  0.00    +0.000 C 
ATOM     11  O   UNL     1      47.729   2.186   6.758  0.00  0.00    +0.000 OA
ATOM     12  C   UNL     1      47.059   3.409   6.460  0.00  0.00    +0.000 C 
ATOM     13  C   UNL     1      46.359   3.950   7.696  0.00  0.00    +0.000 C 
ENDBRANCH   6   8
ENDBRANCH   1   2
BRANCH   1  14
ATOM     14  O   UNL     1      44.943   6.905  12.780  0.00  0.00    +0.000 OA
BRANCH  14  18
ATOM     15  C   UNL     1      48.958   7.726  12.330  0.00  0.00    +0.000 A 
ATOM     16  C   UNL     1      48.561   6.498  12.863  0.00  0.00    +0.000 A 
ATOM     17  C   UNL     1      47.198   6.228  13.016  0.00  0.00    +0.000 A 
ATOM     18  C   UNL     1      46.286   7.196  12.626  0.00  0.00    +0.000 A 
ATOM     19  N   UNL     1      46.646   8.396  12.116  0.00  0.00    +0.000 NA
ATOM     20  C   UNL     1      47.971   8.636  11.986  0.00  0.00    +0.000 A 
BRANCH  15  22
ATOM     21  N   UNL     1      51.106   7.372  11.255  0.00  0.00    +0.000 N 
ATOM     22  C   UNL     1      50.366   8.119  12.126  0.00  0.00    +0.000 C 
ATOM     23  O   UNL     1      50.841   9.102  12.678  0.00  0.00    +0.000 OA
ATOM     24  H   UNL     1      52.026   7.734  11.035  0.00  0.00    +0.000 HD
ATOM     25  H   UNL     1      50.686   6.736  10.591  0.00  0.00    +0.000 HD
ENDBRANCH  15  22
ENDBRANCH  14  18
ENDBRANCH   1  14
TORSDOF 5
ENDMDL
MODEL 5
REMARK VINA RESULT:    -6.952      3.458      7.214
REMARK INTER + INTRA:          -9.890
REMARK INTER:                  -9.387
REMARK INTRA:                  -0.504
REMARK UNBOUND:                -0.906
REMARK  Name = 
REMARK  5 active torsions:
REMARK  status: ('A' for Active; 'I' for Inactive)
REMARK    1  A    between atoms: C_2  and  C_4
REMARK    2  A    between atoms: C_7  and  O_8
REMARK    3  A    between atoms: O_8  and  C_9
REMARK    4  A    between atoms: C_9  and  C_10
REMARK    5  A    between atoms: C_14  and  C_15
REMARK                            x       y       z     vdW  Elec       q    Type
REMARK                         _______ _______ _______ _____ _____    ______ ____
ROOT
ATOM      1  C   UNL     1      46.609   7.299  12.165  0.00  0.00    +0.000 C 
ENDROOT
BRANCH   1   2
ATOM      2  C   UNL     1      45.495   6.412  11.655  0.00  0.00    +0.000 A 
ATOM      3  C   UNL     1      44.183   6.631  12.095  0.00  0.00    +0.000 A 
ATOM      4  C   UNL     1      43.124   5.896  11.564  0.00  0.00    +0.000 A 
ATOM      5  C   UNL     1      43.362   4.947  10.571  0.00  0.00    +0.000 A 
ATOM      6  C   UNL     1      44.661   4.723  10.097  0.00  0.00    +0.000 A 
ATOM      7  C   UNL     1      45.721   5.456  10.658  0.00  0.00    +0.000 A 
BRANCH   6   8
ATOM      8  C   UNL     1      44.904   3.742   8.963  0.00  0.00    +0.000 C 
ATOM      9  C   UNL     1      45.249   2.337   9.479  0.00  0.00    +0.000 C 
ATOM     10  C   UNL     1      45.630   1.419   8.326  0.00  0.00    +0.000 C 
ATOM     11  O   UNL     1      46.694   1.981   7.559  0.00  0.00    +0.000 OA
ATOM     12  C   UNL     1      46.322   3.216   6.951  0.00  0.00    +0.000 C 
ATOM     13  C   UNL     1      45.994   4.257   8.010  0.00  0.00    +0.000 C 
ENDBRANCH   6   8
ENDBRANCH   1   2
BRANCH   1  14
ATOM     14  O   UNL     1      47.806   6.560  12.433  0.00  0.00    +0.000 OA
BRANCH  14  18
ATOM     15  C   UNL     1      47.590   4.635  16.072  0.00  0.00    +0.000 A 
ATOM     16  C   UNL     1      48.224   5.875  15.985  0.00  0.00    +0.000 A 
ATOM     17  C   UNL     1      48.297   6.521  14.747  0.00  0.00    +0.000 A 
ATOM     18  C   UNL     1      47.729   5.901  13.645  0.00  0.00    +0.000 A 
ATOM     19  N   UNL     1      47.117   4.696  13.703  0.00  0.00    +0.000 NA
ATOM     20  C   UNL     1      47.067   4.088  14.910  0.00  0.00    +0.000 A 
BRANCH  15  22
ATOM     21  N   UNL     1      48.228   4.245  18.382  0.00  0.00    +0.000 N 
ATOM     22  C   UNL     1      47.455   3.863  17.323  0.00  0.00    +0.000 C 
ATOM     23  O   UNL     1      46.653   2.945  17.424  0.00  0.00    +0.000 OA
ATOM     24  H   UNL     1      48.028   3.785  19.262  0.00  0.00    +0.000 HD
ATOM     25  H   UNL     1      48.690   5.143  18.421  0.00  0.00    +0.000 HD
ENDBRANCH  15  22
ENDBRANCH  14  18
ENDBRANCH   1  14
TORSDOF 5
ENDMDL
MODEL 6
REMARK VINA RESULT:    -6.863      4.439      8.045
REMARK INTER + INTRA:          -9.776
REMARK INTER:                  -9.174
REMARK INTRA:                  -0.601
REMARK UNBOUND:                -0.906
REMARK  Name = 
REMARK  5 active torsions:
REMARK  status: ('A' for Active; 'I' for Inactive)
REMARK    1  A    between atoms: C_2  and  C_4
REMARK    2  A    between atoms: C_7  and  O_8
REMARK    3  A    between atoms: O_8  and  C_9
REMARK    4  A    between atoms: C_9  and  C_10
REMARK    5  A    between atoms: C_14  and  C_15
REMARK                            x       y       z     vdW  Elec       q    Type
REMARK                         _______ _______ _______ _____ _____    ______ ____
ROOT
ATOM      1  C   UNL     1      46.211   5.547  13.694  0.00  0.00    +0.000 C 
ENDROOT
BRANCH   1   2
ATOM      2  C   UNL     1      45.138   5.188  12.689  0.00  0.00    +0.000 A 
ATOM      3  C   UNL     1      43.835   5.670  12.870  0.00  0.00    +0.000 A 
ATOM      4  C   UNL     1      42.853   5.440  11.908  0.00  0.00    +0.000 A 
ATOM      5  C   UNL     1      43.168   4.745  10.740  0.00  0.00    +0.000 A 
ATOM      6  C   UNL     1      44.468   4.272  10.523  0.00  0.00    +0.000 A 
ATOM      7  C   UNL     1      45.442   4.491  11.514  0.00  0.00    +0.000 A 
BRANCH   6   8
ATOM      8  C   UNL     1      44.824   3.581   9.218  0.00  0.00    +0.000 C 
ATOM      9  C   UNL     1      45.337   2.152   9.442  0.00  0.00    +0.000 C 
ATOM     10  C   UNL     1      45.822   1.542   8.135  0.00  0.00    +0.000 C 
ATOM     11  O   UNL     1      46.807   2.373   7.521  0.00  0.00    +0.000 OA
ATOM     12  C   UNL     1      46.288   3.653   7.171  0.00  0.00    +0.000 C 
ATOM     13  C   UNL     1      45.840   4.407   8.413  0.00  0.00    +0.000 C 
ENDBRANCH   6   8
ENDBRANCH   1   2
BRANCH   1  14
ATOM     14  O   UNL     1      47.065   4.436  13.988  0.00  0.00    +0.000 OA
BRANCH  14  18
ATOM     15  C   UNL     1      48.287   4.526  17.923  0.00  0.00    +0.000 A 
ATOM     16  C   UNL     1      48.579   5.604  17.086  0.00  0.00    +0.000 A 
ATOM     17  C   UNL     1      48.164   5.565  15.752  0.00  0.00    +0.000 A 
ATOM     18  C   UNL     1      47.471   4.450  15.309  0.00  0.00    +0.000 A 
ATOM     19  N   UNL     1      47.185   3.389  16.098  0.00  0.00    +0.000 NA
ATOM     20  C   UNL     1      47.604   3.448  17.383  0.00  0.00    +0.000 A 
BRANCH  15  22
ATOM     21  N   UNL     1      48.353   3.320  20.031  0.00  0.00    +0.000 N 
ATOM     22  C   UNL     1      48.676   4.457  19.346  0.00  0.00    +0.000 C 
ATOM     23  O   UNL     1      49.303   5.361  19.881  0.00  0.00    +0.000 OA
ATOM     24  H   UNL     1      48.740   3.244  20.964  0.00  0.00    +0.000 HD
ATOM     25  H   UNL     1      48.086   2.464  19.566  0.00  0.00    +0.000 HD
ENDBRANCH  15  22
ENDBRANCH  14  18
ENDBRANCH   1  14
TORSDOF 5
ENDMDL
MODEL 7
REMARK VINA RESULT:    -6.635      5.311      7.746
REMARK INTER + INTRA:          -9.481
REMARK INTER:                  -8.737
REMARK INTRA:                  -0.744
REMARK UNBOUND:                -0.906
REMARK  Name = 
REMARK  5 active torsions:
REMARK  status: ('A' for Active; 'I' for Inactive)
REMARK    1  A    between atoms: C_2  and  C_4
REMARK    2  A    between atoms: C_7  and  O_8
REMARK    3  A    between atoms: O_8  and  C_9
REMARK    4  A    between atoms: C_9  and  C_10
REMARK    5  A    between atoms: C_14  and  C_15
REMARK                            x       y       z     vdW  Elec       q    Type
REMARK                         _______ _______ _______ _____ _____    ______ ____
ROOT
ATOM      1  C   UNL     1      48.623   6.412  15.866  0.00  0.00    +0.000 C 
ENDROOT
BRANCH   1   2
ATOM      2  C   UNL     1      48.159   6.569  14.435  0.00  0.00    +0.000 A 
ATOM      3  C   UNL     1      48.958   7.271  13.523  0.00  0.00    +0.000 A 
ATOM      4  C   UNL     1      48.604   7.344  12.177  0.00  0.00    +0.000 A 
ATOM      5  C   UNL     1      47.457   6.695  11.721  0.00  0.00    +0.000 A 
ATOM      6  C   UNL     1      46.652   5.967  12.606  0.00  0.00    +0.000 A 
ATOM      7  C   UNL     1      47.009   5.922  13.965  0.00  0.00    +0.000 A 
BRANCH   6   8
ATOM      8  C   UNL     1      45.446   5.201  12.091  0.00  0.00    +0.000 C 
ATOM      9  C   UNL     1      45.303   5.306  10.566  0.00  0.00    +0.000 C 
ATOM     10  C   UNL     1      44.009   4.655  10.099  0.00  0.00    +0.000 C 
ATOM     11  O   UNL     1      42.886   5.213  10.779  0.00  0.00    +0.000 OA
ATOM     12  C   UNL     1      42.939   4.982  12.185  0.00  0.00    +0.000 C 
ATOM     13  C   UNL     1      44.157   5.660  12.793  0.00  0.00    +0.000 C 
ENDBRANCH   6   8
ENDBRANCH   1   2
BRANCH   1  14
ATOM     14  O   UNL     1      48.050   5.260  16.494  0.00  0.00    +0.000 OA
BRANCH  14  18
ATOM     15  C   UNL     1      50.897   2.411  17.367  0.00  0.00    +0.000 A 
ATOM     16  C   UNL     1      49.594   2.012  17.065  0.00  0.00    +0.000 A 
ATOM     17  C   UNL     1      48.633   2.984  16.774  0.00  0.00    +0.000 A 
ATOM     18  C   UNL     1      49.014   4.317  16.792  0.00  0.00    +0.000 A 
ATOM     19  N   UNL     1      50.268   4.727  17.090  0.00  0.00    +0.000 NA
ATOM     20  C   UNL     1      51.177   3.768  17.377  0.00  0.00    +0.000 A 
BRANCH  15  22
ATOM     21  N   UNL     1      51.642   0.221  18.106  0.00  0.00    +0.000 N 
ATOM     22  C   UNL     1      51.992   1.474  17.691  0.00  0.00    +0.000 C 
ATOM     23  O   UNL     1      53.165   1.791  17.552  0.00  0.00    +0.000 OA
ATOM     24  H   UNL     1      52.404  -0.440  18.200  0.00  0.00    +0.000 HD
ATOM     25  H   UNL     1      50.714  -0.155  17.976  0.00  0.00    +0.000 HD
ENDBRANCH  15  22
ENDBRANCH  14  18
ENDBRANCH   1  14
TORSDOF 5
ENDMDL
MODEL 8
REMARK VINA RESULT:    -6.471      4.717      8.179
REMARK INTER + INTRA:          -9.269
REMARK INTER:                  -8.599
REMARK INTRA:                  -0.671
REMARK UNBOUND:                -0.906
REMARK  Name = 
REMARK  5 active torsions:
REMARK  status: ('A' for Active; 'I' for Inactive)
REMARK    1  A    between atoms: C_2  and  C_4
REMARK    2  A    between atoms: C_7  and  O_8
REMARK    3  A    between atoms: O_8  and  C_9
REMARK    4  A    between atoms: C_9  and  C_10
REMARK    5  A    between atoms: C_14  and  C_15
REMARK                            x       y       z     vdW  Elec       q    Type
REMARK                         _______ _______ _______ _____ _____    ______ ____
ROOT
ATOM      1  C   UNL     1      47.843   6.306  13.732  0.00  0.00    +0.000 C 
ENDROOT
BRANCH   1   2
ATOM      2  C   UNL     1      46.632   6.491  12.845  0.00  0.00    +0.000 A 
ATOM      3  C   UNL     1      45.975   7.728  12.823  0.00  0.00    +0.000 A 
ATOM      4  C   UNL     1      44.921   7.957  11.940  0.00  0.00    +0.000 A 
ATOM      5  C   UNL     1      44.525   6.958  11.052  0.00  0.00    +0.000 A 
ATOM      6  C   UNL     1      45.178   5.719  11.037  0.00  0.00    +0.000 A 
ATOM      7  C   UNL     1      46.224   5.496  11.949  0.00  0.00    +0.000 A 
BRANCH   6   8
ATOM      8  C   UNL     1      44.791   4.662  10.018  0.00  0.00    +0.000 C 
ATOM      9  C   UNL     1      44.791   3.250  10.621  0.00  0.00    +0.000 C 
ATOM     10  C   UNL     1      44.545   2.204   9.544  0.00  0.00    +0.000 C 
ATOM     11  O   UNL     1      45.494   2.331   8.486  0.00  0.00    +0.000 OA
ATOM     12  C   UNL     1      45.392   3.588   7.822  0.00  0.00    +0.000 C 
ATOM     13  C   UNL     1      45.701   4.727   8.780  0.00  0.00    +0.000 C 
ENDBRANCH   6   8
ENDBRANCH   1   2
BRANCH   1  14
ATOM     14  O   UNL     1      47.922   4.980  14.266  0.00  0.00    +0.000 OA
BRANCH  14  18
ATOM     15  C   UNL     1      48.120   4.989  18.383  0.00  0.00    +0.000 A 
ATOM     16  C   UNL     1      47.222   4.136  17.739  0.00  0.00    +0.000 A 
ATOM     17  C   UNL     1      47.158   4.141  16.342  0.00  0.00    +0.000 A 
ATOM     18  C   UNL     1      47.997   4.997  15.646  0.00  0.00    +0.000 A 
ATOM     19  N   UNL     1      48.868   5.838  16.248  0.00  0.00    +0.000 NA
ATOM     20  C   UNL     1      48.905   5.820  17.600  0.00  0.00    +0.000 A 
BRANCH  15  22
ATOM     21  N   UNL     1      48.635   3.929  20.507  0.00  0.00    +0.000 N 
ATOM     22  C   UNL     1      48.272   5.070  19.850  0.00  0.00    +0.000 C 
ATOM     23  O   UNL     1      48.124   6.125  20.450  0.00  0.00    +0.000 OA
ATOM     24  H   UNL     1      48.856   4.038  21.489  0.00  0.00    +0.000 HD
ATOM     25  H   UNL     1      49.021   3.126  20.030  0.00  0.00    +0.000 HD
ENDBRANCH  15  22
ENDBRANCH  14  18
ENDBRANCH   1  14
TORSDOF 5
ENDMDL
MODEL 9
REMARK VINA RESULT:    -6.312      2.933      7.055
REMARK INTER + INTRA:          -9.063
REMARK INTER:                  -8.284
REMARK INTRA:                  -0.779
REMARK UNBOUND:                -0.906
REMARK  Name = 
REMARK  5 active torsions:
REMARK  status: ('A' for Active; 'I' for Inactive)
REMARK    1  A    between atoms: C_2  and  C_4
REMARK    2  A    between atoms: C_7  and  O_8
REMARK    3  A    between atoms: O_8  and  C_9
REMARK    4  A    between atoms: C_9  and  C_10
REMARK    5  A    between atoms: C_14  and  C_15
REMARK                            x       y       z     vdW  Elec       q    Type
REMARK                         _______ _______ _______ _____ _____    ______ ____
ROOT
ATOM      1  C   UNL     1      46.131   5.183  13.813  0.00  0.00    +0.000 C 
ENDROOT
BRANCH   1   2
ATOM      2  C   UNL     1      45.085   4.974  12.740  0.00  0.00    +0.000 A 
ATOM      3  C   UNL     1      43.825   5.569  12.881  0.00  0.00    +0.000 A 
ATOM      4  C   UNL     1      42.878   5.478  11.861  0.00  0.00    +0.000 A 
ATOM      5  C   UNL     1      43.189   4.809  10.678  0.00  0.00    +0.000 A 
ATOM      6  C   UNL     1      44.450   4.223  10.502  0.00  0.00    +0.000 A 
ATOM      7  C   UNL     1      45.385   4.304  11.549  0.00  0.00    +0.000 A 
BRANCH   6   8
ATOM      8  C   UNL     1      44.808   3.560   9.184  0.00  0.00    +0.000 C 
ATOM      9  C   UNL     1      45.359   2.141   9.382  0.00  0.00    +0.000 C 
ATOM     10  C   UNL     1      45.846   1.562   8.061  0.00  0.00    +0.000 C 
ATOM     11  O   UNL     1      46.803   2.425   7.450  0.00  0.00    +0.000 OA
ATOM     12  C   UNL     1      46.248   3.697   7.123  0.00  0.00    +0.000 C 
ATOM     13  C   UNL     1      45.795   4.422   8.381  0.00  0.00    +0.000 C 
ENDBRANCH   6   8
ENDBRANCH   1   2
BRANCH   1  14
ATOM     14  O   UNL     1      47.460   5.012  13.309  0.00  0.00    +0.000 OA
BRANCH  14  18
ATOM     15  C   UNL     1      49.370   8.642  12.902  0.00  0.00    +0.000 A 
ATOM     16  C   UNL     1      48.482   8.216  11.913  0.00  0.00    +0.000 A 
ATOM     17  C   UNL     1      47.841   6.982  12.056  0.00  0.00    +0.000 A 
ATOM     18  C   UNL     1      48.111   6.225  13.185  0.00  0.00    +0.000 A 
ATOM     19  N   UNL     1      48.974   6.612  14.152  0.00  0.00    +0.000 NA
ATOM     20  C   UNL     1      49.588   7.806  13.985  0.00  0.00    +0.000 A 
BRANCH  15  22
ATOM     21  N   UNL     1      51.334   9.919  12.261  0.00  0.00    +0.000 N 
ATOM     22  C   UNL     1      50.104   9.922  12.856  0.00  0.00    +0.000 C 
ATOM     23  O   UNL     1      49.615  10.955  13.291  0.00  0.00    +0.000 OA
ATOM     24  H   UNL     1      51.761  10.828  12.128  0.00  0.00    +0.000 HD
ATOM     25  H   UNL     1      51.647   9.167  11.664  0.00  0.00    +0.000 HD
ENDBRANCH  15  22
ENDBRANCH  14  18
ENDBRANCH   1  14
TORSDOF 5
ENDMDL
