MODEL 1
REMARK VINA RESULT:    -8.421      0.000      0.000
REMARK INTER + INTRA:         -10.575
REMARK INTER:                  -9.898
REMARK INTRA:                  -0.678
REMARK UNBOUND:                -0.678
REMARK  Name = 
REMARK  3 active torsions:
REMARK  status: ('A' for Active; 'I' for Inactive)
REMARK    1  A    between atoms: C_2  and  C_4
REMARK    2  A    between atoms: N_8  and  C_9
REMARK    3  A    between atoms: C_9  and  C_10
REMARK                            x       y       z     vdW  Elec       q    Type
REMARK                         _______ _______ _______ _____ _____    ______ ____
ROOT
ATOM      1  C   UNL     1      46.588   2.697   7.500  0.00  0.00    +0.000 A 
ATOM      2  C   UNL     1      46.329   4.049   7.709  0.00  0.00    +0.000 A 
ATOM      3  C   UNL     1      45.468   4.429   8.743  0.00  0.00    +0.000 A 
ATOM      4  C   UNL     1      44.875   3.458   9.539  0.00  0.00    +0.000 A 
ATOM      5  N   UNL     1      43.939   3.735  10.535  0.00  0.00    +0.000 N 
ATOM      6  N   UNL     1      45.115   2.143   9.339  0.00  0.00    +0.000 NA
ATOM      7  C   UNL     1      45.954   1.789   8.330  0.00  0.00    +0.000 A 
ATOM      8  H   UNL     1      43.734   2.850  10.994  0.00  0.00    +0.000 HD
ENDROOT
BRANCH   1  10
ATOM      9  N   UNL     1      47.744   3.045   5.392  0.00  0.00    +0.000 N 
ATOM     10  C   UNL     1      47.475   2.195   6.430  0.00  0.00    +0.000 C 
ATOM     11  O   UNL     1      47.969   1.080   6.480  0.00  0.00    +0.000 OA
ATOM     12  H   UNL     1      48.431   2.727   4.720  0.00  0.00    +0.000 HD
ATOM     13  H   UNL     1      47.564   4.037   5.439  0.00  0.00    +0.000 HD
ENDBRANCH   1  10
BRANCH   5  14
ATOM     14  C   UNL     1      43.888   4.946  11.366  0.00  0.00    +0.000 C 
ATOM     15  C   UNL     1      42.564   5.154  12.098  0.00  0.00    +0.000 C 
ATOM     16  C   UNL     1      42.993   6.135  11.063  0.00  0.00    +0.000 C 
BRANCH  14  17
ATOM     17  C   UNL     1      45.175   5.238  12.139  0.00  0.00    +0.000 A 
ATOM     18  C   UNL     1      45.935   6.394  11.876  0.00  0.00    +0.000 A 
ATOM     19  C   UNL     1      47.061   6.717  12.637  0.00  0.00    +0.000 A 
ATOM     20  C   UNL     1      47.451   5.876  13.671  0.00  0.00    +0.000 A 
ATOM     21  F   UNL     1      48.510   6.200  14.425  0.00  0.00    +0.000 F 
ATOM     22  C   UNL     1      46.751   4.708  13.939  0.00  0.00    +0.000 A 
ATOM     23  C   UNL     1      45.629   4.389  13.169  0.00  0.00    +0.000 A 
ENDBRANCH  14  17
ENDBRANCH   5  14
TORSDOF 3
ENDMDL
MODEL 2
REMARK VINA RESULT:    -6.821      4.028      6.375
REMARK INTER + INTRA:          -8.694
REMARK INTER:                  -8.274
REMARK INTRA:                  -0.420
REMARK UNBOUND:                -0.678
REMARK  Name = 
REMARK  3 active torsions:
REMARK  status: ('A' for Active; 'I' for Inactive)
REMARK    1  A    between atoms: C_2  and  C_4
REMARK    2  A    between atoms: N_8  and  C_9
REMARK    3  A    between atoms: C_9  and  C_10
REMARK                            x       y       z     vdW  Elec       q    Type
REMARK                         _______ _______ _______ _____ _____    ______ ____
ROOT
ATOM      1  C   UNL     1      48.297   6.661  13.833  0.00  0.00    +0.000 A 
ATOM      2  C   UNL     1      47.411   5.632  14.142  0.00  0.00    +0.000 A 
ATOM      3  C   UNL     1      46.364   5.343  13.262  0.00  0.00    +0.000 A 
ATOM      4  C   UNL     1      46.213   6.088  12.100  0.00  0.00    +0.000 A 
ATOM      5  N   UNL     1      45.154   5.931  11.208  0.00  0.00    +0.000 N 
ATOM      6  N   UNL     1      47.065   7.094  11.795  0.00  0.00    +0.000 NA
ATOM      7  C   UNL     1      48.077   7.363  12.661  0.00  0.00    +0.000 A 
ATOM      8  H   UNL     1      45.340   6.553  10.424  0.00  0.00    +0.000 HD
ENDROOT
BRANCH   1  10
ATOM      9  N   UNL     1      50.555   7.521  14.087  0.00  0.00    +0.000 N 
ATOM     10  C   UNL     1      49.428   7.048  14.702  0.00  0.00    +0.000 C 
ATOM     11  O   UNL     1      49.352   6.975  15.919  0.00  0.00    +0.000 OA
ATOM     12  H   UNL     1      51.280   7.876  14.696  0.00  0.00    +0.000 HD
ATOM     13  H   UNL     1      50.564   7.826  13.125  0.00  0.00    +0.000 HD
ENDBRANCH   1  10
BRANCH   5  14
ATOM     14  C   UNL     1      44.447   4.678  10.910  0.00  0.00    +0.000 C 
ATOM     15  C   UNL     1      42.928   4.764  11.036  0.00  0.00    +0.000 C 
ATOM     16  C   UNL     1      43.691   3.873  11.953  0.00  0.00    +0.000 C 
BRANCH  14  17
ATOM     17  C   UNL     1      45.015   3.897   9.724  0.00  0.00    +0.000 A 
ATOM     18  C   UNL     1      45.630   4.560   8.645  0.00  0.00    +0.000 A 
ATOM     19  C   UNL     1      46.232   3.853   7.601  0.00  0.00    +0.000 A 
ATOM     20  C   UNL     1      46.216   2.464   7.617  0.00  0.00    +0.000 A 
ATOM     21  F   UNL     1      46.822   1.783   6.635  0.00  0.00    +0.000 F 
ATOM     22  C   UNL     1      45.587   1.774   8.643  0.00  0.00    +0.000 A 
ATOM     23  C   UNL     1      44.982   2.488   9.681  0.00  0.00    +0.000 A 
ENDBRANCH  14  17
ENDBRANCH   5  14
TORSDOF 3
ENDMDL
MODEL 3
REMARK VINA RESULT:    -6.751      3.978      6.418
REMARK INTER + INTRA:          -8.613
REMARK INTER:                  -8.780
REMARK INTRA:                   0.167
REMARK UNBOUND:                -0.678
REMARK  Name = 
REMARK  3 active torsions:
REMARK  status: ('A' for Active; 'I' for Inactive)
REMARK    1  A    between atoms: C_2  and  C_4
REMARK    2  A    between atoms: N_8  and  C_9
REMARK    3  A    between atoms: C_9  and  C_10
REMARK                            x       y       z     vdW  Elec       q    Type
REMARK                         _______ _______ _______ _____ _____    ______ ____
ROOT
ATOM      1  C   UNL     1      47.840   5.809  14.659  0.00  0.00    +0.000 A 
ATOM      2  C   UNL     1      47.370   6.154  13.395  0.00  0.00    +0.000 A 
ATOM      3  C   UNL     1      46.590   5.239  12.681  0.00  0.00    +0.000 A 
ATOM      4  C   UNL     1      46.303   3.998  13.233  0.00  0.00    +0.000 A 
ATOM      5  N   UNL     1      45.609   2.991  12.564  0.00  0.00    +0.000 N 
ATOM      6  N   UNL     1      46.762   3.651  14.457  0.00  0.00    +0.000 NA
ATOM      7  C   UNL     1      47.519   4.551  15.139  0.00  0.00    +0.000 A 
ATOM      8  H   UNL     1      45.487   2.231  13.230  0.00  0.00    +0.000 HD
ENDROOT
BRANCH   1  10
ATOM      9  N   UNL     1      48.255   7.994  15.637  0.00  0.00    +0.000 N 
ATOM     10  C   UNL     1      48.678   6.701  15.487  0.00  0.00    +0.000 C 
ATOM     11  O   UNL     1      49.691   6.298  16.036  0.00  0.00    +0.000 OA
ATOM     12  H   UNL     1      48.781   8.564  16.286  0.00  0.00    +0.000 HD
ATOM     13  H   UNL     1      47.316   8.289  15.413  0.00  0.00    +0.000 HD
ENDBRANCH   1  10
BRANCH   5  14
ATOM     14  C   UNL     1      44.544   3.185  11.570  0.00  0.00    +0.000 C 
ATOM     15  C   UNL     1      43.421   4.116  12.021  0.00  0.00    +0.000 C 
ATOM     16  C   UNL     1      43.123   2.681  11.754  0.00  0.00    +0.000 C 
BRANCH  14  17
ATOM     17  C   UNL     1      45.039   3.322  10.129  0.00  0.00    +0.000 A 
ATOM     18  C   UNL     1      45.333   4.585   9.579  0.00  0.00    +0.000 A 
ATOM     19  C   UNL     1      45.872   4.715   8.296  0.00  0.00    +0.000 A 
ATOM     20  C   UNL     1      46.115   3.577   7.539  0.00  0.00    +0.000 A 
ATOM     21  F   UNL     1      46.664   3.696   6.322  0.00  0.00    +0.000 F 
ATOM     22  C   UNL     1      45.805   2.317   8.030  0.00  0.00    +0.000 A 
ATOM     23  C   UNL     1      45.261   2.195   9.312  0.00  0.00    +0.000 A 
ENDBRANCH  14  17
ENDBRANCH   5  14
TORSDOF 3
ENDMDL
MODEL 4
REMARK VINA RESULT:    -5.546      4.404      6.452
REMARK INTER + INTRA:          -7.197
REMARK INTER:                  -7.387
REMARK INTRA:                   0.190
REMARK UNBOUND:                -0.678
REMARK  Name = 
REMARK  3 active torsions:
REMARK  status: ('A' for Active; 'I' for Inactive)
REMARK    1  A    between atoms: C_2  and  C_4
REMARK    2  A    between atoms: N_8  and  C_9
REMARK    3  A    between atoms: C_9  and  C_10
REMARK                            x       y       z     vdW  Elec       q    Type
REMARK                         _______ _______ _______ _____ _____    ______ ____
ROOT
ATOM      1  C   UNL     1      49.427   7.800  13.055  0.00  0.00    +0.000 A 
ATOM      2  C   UNL     1      48.671   7.695  11.892  0.00  0.00    +0.000 A 
ATOM      3  C   UNL     1      47.592   6.806  11.854  0.00  0.00    +0.000 A 
ATOM      4  C   UNL     1      47.295   6.034  12.970  0.00  0.00    +0.000 A 
ATOM      5  N   UNL     1      46.296   5.062  12.998  0.00  0.00    +0.000 N 
ATOM      6  N   UNL     1      48.029   6.124  14.102  0.00  0.00    +0.000 NA
ATOM      7  C   UNL     1      49.074   6.992  14.123  0.00  0.00    +0.000 A 
ATOM      8  H   UNL     1      46.260   4.712  13.953  0.00  0.00    +0.000 HD
ENDROOT
BRANCH   1  10
ATOM      9  N   UNL     1      51.793   8.128  13.499  0.00  0.00    +0.000 N 
ATOM     10  C   UNL     1      50.590   8.702  13.190  0.00  0.00    +0.000 C 
ATOM     11  O   UNL     1      50.490   9.905  13.008  0.00  0.00    +0.000 OA
ATOM     12  H   UNL     1      52.597   8.743  13.488  0.00  0.00    +0.000 HD
ATOM     13  H   UNL     1      51.963   7.137  13.411  0.00  0.00    +0.000 HD
ENDBRANCH   1  10
BRANCH   5  14
ATOM     14  C   UNL     1      45.032   5.094  12.250  0.00  0.00    +0.000 C 
ATOM     15  C   UNL     1      44.239   6.390  12.406  0.00  0.00    +0.000 C 
ATOM     16  C   UNL     1      43.665   5.113  12.913  0.00  0.00    +0.000 C 
BRANCH  14  17
ATOM     17  C   UNL     1      45.106   4.475  10.854  0.00  0.00    +0.000 A 
ATOM     18  C   UNL     1      44.582   3.193  10.598  0.00  0.00    +0.000 A 
ATOM     19  C   UNL     1      44.562   2.656   9.307  0.00  0.00    +0.000 A 
ATOM     20  C   UNL     1      45.080   3.395   8.252  0.00  0.00    +0.000 A 
ATOM     21  F   UNL     1      45.032   2.898   7.009  0.00  0.00    +0.000 F 
ATOM     22  C   UNL     1      45.640   4.646   8.469  0.00  0.00    +0.000 A 
ATOM     23  C   UNL     1      45.661   5.174   9.763  0.00  0.00    +0.000 A 
ENDBRANCH  14  17
ENDBRANCH   5  14
TORSDOF 3
ENDMDL
MODEL 5
REMARK VINA RESULT:    -5.498      4.124      6.337
REMARK INTER + INTRA:          -7.140
REMARK INTER:                  -7.092
REMARK INTRA:                  -0.048
REMARK UNBOUND:                -0.678
REMARK  Name = 
REMARK  3 active torsions:
REMARK  status: ('A' for Active; 'I' for Inactive)
REMARK    1  A    between atoms: C_2  and  C_4
REMARK    2  A    between atoms: N_8  and  C_9
REMARK    3  A    between atoms: C_9  and  C_10
REMARK                            x       y       z     vdW  Elec       q    Type
REMARK                         _______ _______ _______ _____ _____    ______ ____
ROOT
ATOM      1  C   UNL     1      45.862   5.299  11.943  0.00  0.00    +0.000 A 
ATOM      2  C   UNL     1      46.785   6.224  12.422  0.00  0.00    +0.000 A 
ATOM      3  C   UNL     1      47.253   6.109  13.734  0.00  0.00    +0.000 A 
ATOM      4  C   UNL     1      46.785   5.085  14.547  0.00  0.00    +0.000 A 
ATOM      5  N   UNL     1      47.126   4.942  15.891  0.00  0.00    +0.000 N 
ATOM      6  N   UNL     1      45.882   4.186  14.093  0.00  0.00    +0.000 NA
ATOM      7  C   UNL     1      45.437   4.311  12.815  0.00  0.00    +0.000 A 
ATOM      8  H   UNL     1      46.697   4.074  16.208  0.00  0.00    +0.000 HD
ENDROOT
BRANCH   1  10
ATOM      9  N   UNL     1      43.950   5.177  10.450  0.00  0.00    +0.000 N 
ATOM     10  C   UNL     1      45.302   5.340  10.576  0.00  0.00    +0.000 C 
ATOM     11  O   UNL     1      46.011   5.539   9.602  0.00  0.00    +0.000 OA
ATOM     12  H   UNL     1      43.569   5.309   9.522  0.00  0.00    +0.000 HD
ATOM     13  H   UNL     1      43.315   5.261  11.230  0.00  0.00    +0.000 HD
ENDBRANCH   1  10
BRANCH   5  14
ATOM     14  C   UNL     1      48.407   5.316  16.506  0.00  0.00    +0.000 C 
ATOM     15  C   UNL     1      48.314   6.468  17.505  0.00  0.00    +0.000 C 
ATOM     16  C   UNL     1      49.104   6.641  16.253  0.00  0.00    +0.000 C 
BRANCH  14  17
ATOM     17  C   UNL     1      49.302   4.131  16.876  0.00  0.00    +0.000 A 
ATOM     18  C   UNL     1      48.880   2.806  16.657  0.00  0.00    +0.000 A 
ATOM     19  C   UNL     1      49.725   1.720  16.906  0.00  0.00    +0.000 A 
ATOM     20  C   UNL     1      51.006   1.949  17.390  0.00  0.00    +0.000 A 
ATOM     21  F   UNL     1      51.830   0.913  17.596  0.00  0.00    +0.000 F 
ATOM     22  C   UNL     1      51.446   3.238  17.653  0.00  0.00    +0.000 A 
ATOM     23  C   UNL     1      50.594   4.318  17.408  0.00  0.00    +0.000 A 
ENDBRANCH  14  17
ENDBRANCH   5  14
TORSDOF 3
ENDMDL
