MODEL 1
REMARK VINA RESULT:    -7.496      0.000      0.000
REMARK INTER + INTRA:         -12.030
REMARK INTER:                 -11.001
REMARK INTRA:                  -1.029
REMARK UNBOUND:                -1.029
REMARK  Name = 
REMARK  9 active torsions:
REMARK  status: ('A' for Active; 'I' for Inactive)
REMARK    1  A    between atoms: C_1  and  O_2
REMARK    2  A    between atoms: O_2  and  C_3
REMARK    3  A    between atoms: C_10  and  C_11
REMARK    4  A    between atoms: N_13  and  C_14
REMARK    5  A    between atoms: C_14  and  C_15
REMARK    6  A    between atoms: C_18  and  C_19
REMARK    7  A    between atoms: C_19  and  S_20
REMARK    8  A    between atoms: S_20  and  C_21
REMARK    9  A    between atoms: C_21  and  C_22
REMARK                            x       y       z     vdW  Elec       q    Type
REMARK                         _______ _______ _______ _____ _____    ______ ____
ROOT
ATOM      1  C   UNL     1      47.559   7.887  13.300  0.00  0.00    +0.000 C 
ENDROOT
BRANCH   1   2
ATOM      2  C   UNL     1      46.458   6.971  12.840  0.00  0.00    +0.000 A 
ATOM      3  C   UNL     1      46.493   5.607  13.157  0.00  0.00    +0.000 A 
ATOM      4  C   UNL     1      45.510   4.737  12.678  0.00  0.00    +0.000 A 
ATOM      5  C   UNL     1      44.465   5.211  11.873  0.00  0.00    +0.000 A 
ATOM      6  C   UNL     1      44.424   6.580  11.570  0.00  0.00    +0.000 A 
ATOM      7  C   UNL     1      45.409   7.451  12.046  0.00  0.00    +0.000 A 
BRANCH   5   8
ATOM      8  C   UNL     1      43.448   4.268  11.278  0.00  0.00    +0.000 C 
BRANCH   8   9
ATOM      9  S   UNL     1      44.139   2.936  10.252  0.00  0.00    +0.000 S 
BRANCH   9  10
ATOM     10  C   UNL     1      44.819   3.905   8.862  0.00  0.00    +0.000 C 
BRANCH  10  11
ATOM     11  C   UNL     1      45.747   3.132   7.954  0.00  0.00    +0.000 A 
ATOM     12  N   UNL     1      46.097   1.880   8.317  0.00  0.00    +0.000 NA
ATOM     13  C   UNL     1      46.923   1.220   7.485  0.00  0.00    +0.000 A 
ATOM     14  C   UNL     1      47.413   1.753   6.318  0.00  0.00    +0.000 A 
ATOM     15  C   UNL     1      47.004   3.031   6.035  0.00  0.00    +0.000 A 
ATOM     16  N   UNL     1      46.178   3.741   6.828  0.00  0.00    +0.000 NA
ENDBRANCH  10  11
ENDBRANCH   9  10
ENDBRANCH   8   9
ENDBRANCH   5   8
ENDBRANCH   1   2
BRANCH   1  19
ATOM     17  C   UNL     1      48.749   7.254  15.347  0.00  0.00    +0.000 C 
ATOM     18  O   UNL     1      49.620   6.698  14.673  0.00  0.00    +0.000 OA
ATOM     19  N   UNL     1      47.689   7.871  14.741  0.00  0.00    +0.000 N 
ATOM     20  H   UNL     1      46.989   8.350  15.291  0.00  0.00    +0.000 HD
BRANCH  17  28
ATOM     21  C   UNL     1      48.950   4.800  17.767  0.00  0.00    +0.000 A 
ATOM     22  N   UNL     1      49.019   4.070  18.901  0.00  0.00    +0.000 NA
ATOM     23  C   UNL     1      49.066   4.721  20.068  0.00  0.00    +0.000 A 
ATOM     24  N   UNL     1      49.055   6.038  20.249  0.00  0.00    +0.000 NA
ATOM     25  C   UNL     1      48.972   6.725  19.096  0.00  0.00    +0.000 A 
ATOM     26  S   UNL     1      48.947   8.422  19.143  0.00  0.00    +0.000 S 
ATOM     27  C   UNL     1      48.841   8.512  17.450  0.00  0.00    +0.000 A 
ATOM     28  C   UNL     1      48.827   7.273  16.816  0.00  0.00    +0.000 A 
ATOM     29  C   UNL     1      48.908   6.204  17.807  0.00  0.00    +0.000 A 
BRANCH  21  31
ATOM     30  C   UNL     1      47.568   3.739  16.213  0.00  0.00    +0.000 C 
ATOM     31  O   UNL     1      48.896   4.127  16.564  0.00  0.00    +0.000 OA
ENDBRANCH  21  31
ENDBRANCH  17  28
ENDBRANCH   1  19
TORSDOF 8
ENDMDL
MODEL 2
REMARK VINA RESULT:    -7.366      2.312      3.000
REMARK INTER + INTRA:         -11.840
REMARK INTER:                 -10.920
REMARK INTRA:                  -0.920
REMARK UNBOUND:                -1.029
REMARK  Name = 
REMARK  9 active torsions:
REMARK  status: ('A' for Active; 'I' for Inactive)
REMARK    1  A    between atoms: C_1  and  O_2
REMARK    2  A    between atoms: O_2  and  C_3
REMARK    3  A    between atoms: C_10  and  C_11
REMARK    4  A    between atoms: N_13  and  C_14
REMARK    5  A    between atoms: C_14  and  C_15
REMARK    6  A    between atoms: C_18  and  C_19
REMARK    7  A    between atoms: C_19  and  S_20
REMARK    8  A    between atoms: S_20  and  C_21
REMARK    9  A    between atoms: C_21  and  C_22
REMARK                            x       y       z     vdW  Elec       q    Type
REMARK                         _______ _______ _______ _____ _____    ______ ____
ROOT
ATOM      1  C   UNL     1      48.606   7.143  15.019  0.00  0.00    +0.000 C 
ENDROOT
BRANCH   1   2
ATOM      2  C   UNL     1      47.637   6.344  14.192  0.00  0.00    +0.000 A 
ATOM      3  C   UNL     1      47.094   6.886  13.019  0.00  0.00    +0.000 A 
ATOM      4  C   UNL     1      46.142   6.179  12.280  0.00  0.00    +0.000 A 
ATOM      5  C   UNL     1      45.714   4.909  12.693  0.00  0.00    +0.000 A 
ATOM      6  C   UNL     1      46.270   4.363  13.859  0.00  0.00    +0.000 A 
ATOM      7  C   UNL     1      47.220   5.072  14.602  0.00  0.00    +0.000 A 
BRANCH   5   8
ATOM      8  C   UNL     1      44.623   4.174  11.952  0.00  0.00    +0.000 C 
BRANCH   8   9
ATOM      9  S   UNL     1      44.636   4.391  10.147  0.00  0.00    +0.000 S 
BRANCH   9  10
ATOM     10  C   UNL     1      44.747   2.652   9.604  0.00  0.00    +0.000 C 
BRANCH  10  11
ATOM     11  C   UNL     1      45.668   2.420   8.428  0.00  0.00    +0.000 A 
ATOM     12  N   UNL     1      45.871   3.441   7.568  0.00  0.00    +0.000 NA
ATOM     13  C   UNL     1      46.696   3.201   6.532  0.00  0.00    +0.000 A 
ATOM     14  C   UNL     1      47.320   1.997   6.320  0.00  0.00    +0.000 A 
ATOM     15  C   UNL     1      47.051   1.020   7.245  0.00  0.00    +0.000 A 
ATOM     16  N   UNL     1      46.235   1.202   8.302  0.00  0.00    +0.000 NA
ENDBRANCH  10  11
ENDBRANCH   9  10
ENDBRANCH   8   9
ENDBRANCH   5   8
ENDBRANCH   1   2
BRANCH   1  19
ATOM     17  C   UNL     1      49.730   6.026  16.889  0.00  0.00    +0.000 C 
ATOM     18  O   UNL     1      48.892   6.483  17.671  0.00  0.00    +0.000 OA
ATOM     19  N   UNL     1      49.658   6.305  15.552  0.00  0.00    +0.000 N 
ATOM     20  H   UNL     1      50.329   5.909  14.907  0.00  0.00    +0.000 HD
BRANCH  17  28
ATOM     21  C   UNL     1      50.217   2.610  16.997  0.00  0.00    +0.000 A 
ATOM     22  N   UNL     1      50.662   1.347  17.175  0.00  0.00    +0.000 NA
ATOM     23  C   UNL     1      51.866   1.175  17.729  0.00  0.00    +0.000 A 
ATOM     24  N   UNL     1      52.701   2.126  18.135  0.00  0.00    +0.000 NA
ATOM     25  C   UNL     1      52.215   3.365  17.952  0.00  0.00    +0.000 A 
ATOM     26  S   UNL     1      53.154   4.701  18.415  0.00  0.00    +0.000 S 
ATOM     27  C   UNL     1      51.950   5.783  17.903  0.00  0.00    +0.000 A 
ATOM     28  C   UNL     1      50.822   5.166  17.370  0.00  0.00    +0.000 A 
ATOM     29  C   UNL     1      50.986   3.715  17.399  0.00  0.00    +0.000 A 
BRANCH  21  31
ATOM     30  C   UNL     1      47.932   2.859  17.404  0.00  0.00    +0.000 C 
ATOM     31  O   UNL     1      48.972   2.787  16.430  0.00  0.00    +0.000 OA
ENDBRANCH  21  31
ENDBRANCH  17  28
ENDBRANCH   1  19
TORSDOF 8
ENDMDL
MODEL 3
REMARK VINA RESULT:    -7.134      1.730      2.850
REMARK INTER + INTRA:         -11.499
REMARK INTER:                 -10.498
REMARK INTRA:                  -1.001
REMARK UNBOUND:                -1.029
REMARK  Name = 
REMARK  9 active torsions:
REMARK  status: ('A' for Active; 'I' for Inactive)
REMARK    1  A    between atoms: C_1  and  O_2
REMARK    2  A    between atoms: O_2  and  C_3
REMARK    3  A    between atoms: C_10  and  C_11
REMARK    4  A    between atoms: N_13  and  C_14
REMARK    5  A    between atoms: C_14  and  C_15
REMARK    6  A    between atoms: C_18  and  C_19
REMARK    7  A    between atoms: C_19  and  S_20
REMARK    8  A    between atoms: S_20  and  C_21
REMARK    9  A    between atoms: C_21  and  C_22
REMARK                            x       y       z     vdW  Elec       q    Type
REMARK                         _______ _______ _______ _____ _____    ______ ____
ROOT
ATOM      1  C   UNL     1      48.426   6.528  14.302  0.00  0.00    +0.000 C 
ENDROOT
BRANCH   1   2
ATOM      2  C   UNL     1      47.196   6.073  13.565  0.00  0.00    +0.000 A 
ATOM      3  C   UNL     1      46.817   4.724  13.587  0.00  0.00    +0.000 A 
ATOM      4  C   UNL     1      45.715   4.281  12.851  0.00  0.00    +0.000 A 
ATOM      5  C   UNL     1      44.962   5.177  12.079  0.00  0.00    +0.000 A 
ATOM      6  C   UNL     1      45.335   6.529  12.071  0.00  0.00    +0.000 A 
ATOM      7  C   UNL     1      46.440   6.973  12.804  0.00  0.00    +0.000 A 
BRANCH   5   8
ATOM      8  C   UNL     1      43.824   4.695  11.212  0.00  0.00    +0.000 C 
BRANCH   8   9
ATOM      9  S   UNL     1      44.208   3.261  10.162  0.00  0.00    +0.000 S 
BRANCH   9  10
ATOM     10  C   UNL     1      44.952   4.095   8.719  0.00  0.00    +0.000 C 
BRANCH  10  11
ATOM     11  C   UNL     1      45.850   3.215   7.880  0.00  0.00    +0.000 A 
ATOM     12  N   UNL     1      46.367   3.731   6.745  0.00  0.00    +0.000 NA
ATOM     13  C   UNL     1      47.162   2.922   6.022  0.00  0.00    +0.000 A 
ATOM     14  C   UNL     1      47.458   1.630   6.379  0.00  0.00    +0.000 A 
ATOM     15  C   UNL     1      46.885   1.193   7.547  0.00  0.00    +0.000 A 
ATOM     16  N   UNL     1      46.081   1.957   8.312  0.00  0.00    +0.000 NA
ENDBRANCH  10  11
ENDBRANCH   9  10
ENDBRANCH   8   9
ENDBRANCH   5   8
ENDBRANCH   1   2
BRANCH   1  19
ATOM     17  C   UNL     1      48.660   6.036  16.691  0.00  0.00    +0.000 C 
ATOM     18  O   UNL     1      49.400   5.085  16.427  0.00  0.00    +0.000 OA
ATOM     19  N   UNL     1      48.134   6.807  15.691  0.00  0.00    +0.000 N 
ATOM     20  H   UNL     1      47.549   7.603  15.908  0.00  0.00    +0.000 HD
BRANCH  17  28
ATOM     21  C   UNL     1      47.773   8.956  18.307  0.00  0.00    +0.000 A 
ATOM     22  N   UNL     1      47.428   9.925  19.181  0.00  0.00    +0.000 NA
ATOM     23  C   UNL     1      47.248   9.586  20.461  0.00  0.00    +0.000 A 
ATOM     24  N   UNL     1      47.371   8.372  20.990  0.00  0.00    +0.000 NA
ATOM     25  C   UNL     1      47.728   7.441  20.089  0.00  0.00    +0.000 A 
ATOM     26  S   UNL     1      47.928   5.833  20.595  0.00  0.00    +0.000 S 
ATOM     27  C   UNL     1      48.338   5.342  19.022  0.00  0.00    +0.000 A 
ATOM     28  C   UNL     1      48.328   6.371  18.085  0.00  0.00    +0.000 A 
ATOM     29  C   UNL     1      47.959   7.628  18.729  0.00  0.00    +0.000 A 
BRANCH  21  31
ATOM     30  C   UNL     1      48.677  10.536  16.846  0.00  0.00    +0.000 C 
ATOM     31  O   UNL     1      47.964   9.308  16.987  0.00  0.00    +0.000 OA
ENDBRANCH  21  31
ENDBRANCH  17  28
ENDBRANCH   1  19
TORSDOF 8
ENDMDL
MODEL 4
REMARK VINA RESULT:    -6.808      1.867      1.987
REMARK INTER + INTRA:         -11.021
REMARK INTER:                  -9.992
REMARK INTRA:                  -1.029
REMARK UNBOUND:                -1.029
REMARK  Name = 
REMARK  9 active torsions:
REMARK  status: ('A' for Active; 'I' for Inactive)
REMARK    1  A    between atoms: C_1  and  O_2
REMARK    2  A    between atoms: O_2  and  C_3
REMARK    3  A    between atoms: C_10  and  C_11
REMARK    4  A    between atoms: N_13  and  C_14
REMARK    5  A    between atoms: C_14  and  C_15
REMARK    6  A    between atoms: C_18  and  C_19
REMARK    7  A    between atoms: C_19  and  S_20
REMARK    8  A    between atoms: S_20  and  C_21
REMARK    9  A    between atoms: C_21  and  C_22
REMARK                            x       y       z     vdW  Elec       q    Type
REMARK                         _______ _______ _______ _____ _____    ______ ____
ROOT
ATOM      1  C   UNL     1      48.113   8.049  13.769  0.00  0.00    +0.000 C 
ENDROOT
BRANCH   1   2
ATOM      2  C   UNL     1      47.076   7.065  13.303  0.00  0.00    +0.000 A 
ATOM      3  C   UNL     1      47.210   5.702  13.599  0.00  0.00    +0.000 A 
ATOM      4  C   UNL     1      46.288   4.772  13.113  0.00  0.00    +0.000 A 
ATOM      5  C   UNL     1      45.205   5.183  12.322  0.00  0.00    +0.000 A 
ATOM      6  C   UNL     1      45.065   6.550  12.041  0.00  0.00    +0.000 A 
ATOM      7  C   UNL     1      45.989   7.481  12.523  0.00  0.00    +0.000 A 
BRANCH   5   8
ATOM      8  C   UNL     1      44.252   4.179  11.720  0.00  0.00    +0.000 C 
BRANCH   8   9
ATOM      9  S   UNL     1      44.099   4.251   9.909  0.00  0.00    +0.000 S 
BRANCH   9  10
ATOM     10  C   UNL     1      44.477   2.519   9.475  0.00  0.00    +0.000 C 
BRANCH  10  11
ATOM     11  C   UNL     1      45.560   2.356   8.433  0.00  0.00    +0.000 A 
ATOM     12  N   UNL     1      46.153   1.149   8.316  0.00  0.00    +0.000 NA
ATOM     13  C   UNL     1      47.112   1.038   7.378  0.00  0.00    +0.000 A 
ATOM     14  C   UNL     1      47.502   2.072   6.563  0.00  0.00    +0.000 A 
ATOM     15  C   UNL     1      46.844   3.259   6.758  0.00  0.00    +0.000 A 
ATOM     16  N   UNL     1      45.876   3.430   7.679  0.00  0.00    +0.000 NA
ENDBRANCH  10  11
ENDBRANCH   9  10
ENDBRANCH   8   9
ENDBRANCH   5   8
ENDBRANCH   1   2
BRANCH   1  19
ATOM     17  C   UNL     1      49.647   7.863  15.672  0.00  0.00    +0.000 C 
ATOM     18  O   UNL     1      49.147   8.871  16.178  0.00  0.00    +0.000 OA
ATOM     19  N   UNL     1      49.188   7.386  14.475  0.00  0.00    +0.000 N 
ATOM     20  H   UNL     1      49.579   6.544  14.072  0.00  0.00    +0.000 HD
BRANCH  17  28
ATOM     21  C   UNL     1      49.955   4.707  17.038  0.00  0.00    +0.000 A 
ATOM     22  N   UNL     1      50.348   3.566  17.644  0.00  0.00    +0.000 NA
ATOM     23  C   UNL     1      51.600   3.497  18.107  0.00  0.00    +0.000 A 
ATOM     24  N   UNL     1      52.531   4.445  18.038  0.00  0.00    +0.000 NA
ATOM     25  C   UNL     1      52.095   5.566  17.438  0.00  0.00    +0.000 A 
ATOM     26  S   UNL     1      53.156   6.879  17.263  0.00  0.00    +0.000 S 
ATOM     27  C   UNL     1      51.958   7.802  16.490  0.00  0.00    +0.000 A 
ATOM     28  C   UNL     1      50.741   7.144  16.342  0.00  0.00    +0.000 A 
ATOM     29  C   UNL     1      50.828   5.801  16.911  0.00  0.00    +0.000 A 
BRANCH  21  31
ATOM     30  C   UNL     1      48.002   3.514  16.581  0.00  0.00    +0.000 C 
ATOM     31  O   UNL     1      48.661   4.779  16.565  0.00  0.00    +0.000 OA
ENDBRANCH  21  31
ENDBRANCH  17  28
ENDBRANCH   1  19
TORSDOF 8
ENDMDL
MODEL 5
REMARK VINA RESULT:    -6.772      4.431      9.464
REMARK INTER + INTRA:         -10.968
REMARK INTER:                  -9.983
REMARK INTRA:                  -0.984
REMARK UNBOUND:                -1.029
REMARK  Name = 
REMARK  9 active torsions:
REMARK  status: ('A' for Active; 'I' for Inactive)
REMARK    1  A    between atoms: C_1  and  O_2
REMARK    2  A    between atoms: O_2  and  C_3
REMARK    3  A    between atoms: C_10  and  C_11
REMARK    4  A    between atoms: N_13  and  C_14
REMARK    5  A    between atoms: C_14  and  C_15
REMARK    6  A    between atoms: C_18  and  C_19
REMARK    7  A    between atoms: C_19  and  S_20
REMARK    8  A    between atoms: S_20  and  C_21
REMARK    9  A    between atoms: C_21  and  C_22
REMARK                            x       y       z     vdW  Elec       q    Type
REMARK                         _______ _______ _______ _____ _____    ______ ____
ROOT
ATOM      1  C   UNL     1      47.365   3.415  16.726  0.00  0.00    +0.000 C 
ENDROOT
BRANCH   1   2
ATOM      2  C   UNL     1      48.827   3.603  17.024  0.00  0.00    +0.000 A 
ATOM      3  C   UNL     1      49.680   2.495  17.108  0.00  0.00    +0.000 A 
ATOM      4  C   UNL     1      51.026   2.654  17.451  0.00  0.00    +0.000 A 
ATOM      5  C   UNL     1      51.552   3.927  17.711  0.00  0.00    +0.000 A 
ATOM      6  C   UNL     1      50.699   5.036  17.611  0.00  0.00    +0.000 A 
ATOM      7  C   UNL     1      49.352   4.877  17.272  0.00  0.00    +0.000 A 
BRANCH   5   8
ATOM      8  C   UNL     1      52.981   4.103  18.167  0.00  0.00    +0.000 C 
BRANCH   8   9
ATOM      9  S   UNL     1      53.288   3.706  19.914  0.00  0.00    +0.000 S 
BRANCH   9  10
ATOM     10  C   UNL     1      54.808   2.707  19.766  0.00  0.00    +0.000 C 
BRANCH  10  11
ATOM     11  C   UNL     1      54.774   1.674  18.663  0.00  0.00    +0.000 A 
ATOM     12  N   UNL     1      55.585   1.852  17.599  0.00  0.00    +0.000 NA
ATOM     13  C   UNL     1      55.531   0.913  16.636  0.00  0.00    +0.000 A 
ATOM     14  C   UNL     1      54.707  -0.184  16.689  0.00  0.00    +0.000 A 
ATOM     15  C   UNL     1      53.919  -0.278  17.808  0.00  0.00    +0.000 A 
ATOM     16  N   UNL     1      53.930   0.630  18.804  0.00  0.00    +0.000 NA
ENDBRANCH  10  11
ENDBRANCH   9  10
ENDBRANCH   8   9
ENDBRANCH   5   8
ENDBRANCH   1   2
BRANCH   1  19
ATOM     17  C   UNL     1      46.839   4.258  14.486  0.00  0.00    +0.000 C 
ATOM     18  O   UNL     1      47.230   3.198  13.991  0.00  0.00    +0.000 OA
ATOM     19  N   UNL     1      46.871   4.446  15.840  0.00  0.00    +0.000 N 
ATOM     20  H   UNL     1      46.526   5.305  16.249  0.00  0.00    +0.000 HD
BRANCH  17  28
ATOM     21  C   UNL     1      43.944   4.698  12.656  0.00  0.00    +0.000 A 
ATOM     22  N   UNL     1      42.940   5.127  11.862  0.00  0.00    +0.000 NA
ATOM     23  C   UNL     1      43.052   6.335  11.301  0.00  0.00    +0.000 A 
ATOM     24  N   UNL     1      44.062   7.188  11.437  0.00  0.00    +0.000 NA
ATOM     25  C   UNL     1      45.044   6.718  12.224  0.00  0.00    +0.000 A 
ATOM     26  S   UNL     1      46.413   7.681  12.507  0.00  0.00    +0.000 S 
ATOM     27  C   UNL     1      47.106   6.486  13.495  0.00  0.00    +0.000 A 
ATOM     28  C   UNL     1      46.324   5.343  13.637  0.00  0.00    +0.000 A 
ATOM     29  C   UNL     1      45.087   5.487  12.874  0.00  0.00    +0.000 A 
BRANCH  21  31
ATOM     30  C   UNL     1      43.551   2.429  12.273  0.00  0.00    +0.000 C 
ATOM     31  O   UNL     1      43.831   3.449  13.231  0.00  0.00    +0.000 OA
ENDBRANCH  21  31
ENDBRANCH  17  28
ENDBRANCH   1  19
TORSDOF 8
ENDMDL
MODEL 6
REMARK VINA RESULT:    -6.597      3.953      9.164
REMARK INTER + INTRA:         -10.712
REMARK INTER:                  -9.514
REMARK INTRA:                  -1.197
REMARK UNBOUND:                -1.029
REMARK  Name = 
REMARK  9 active torsions:
REMARK  status: ('A' for Active; 'I' for Inactive)
REMARK    1  A    between atoms: C_1  and  O_2
REMARK    2  A    between atoms: O_2  and  C_3
REMARK    3  A    between atoms: C_10  and  C_11
REMARK    4  A    between atoms: N_13  and  C_14
REMARK    5  A    between atoms: C_14  and  C_15
REMARK    6  A    between atoms: C_18  and  C_19
REMARK    7  A    between atoms: C_19  and  S_20
REMARK    8  A    between atoms: S_20  and  C_21
REMARK    9  A    between atoms: C_21  and  C_22
REMARK                            x       y       z     vdW  Elec       q    Type
REMARK                         _______ _______ _______ _____ _____    ______ ____
ROOT
ATOM      1  C   UNL     1      47.222   3.341  16.801  0.00  0.00    +0.000 C 
ENDROOT
BRANCH   1   2
ATOM      2  C   UNL     1      48.700   3.248  17.069  0.00  0.00    +0.000 A 
ATOM      3  C   UNL     1      49.394   2.061  16.803  0.00  0.00    +0.000 A 
ATOM      4  C   UNL     1      50.752   1.943  17.112  0.00  0.00    +0.000 A 
ATOM      5  C   UNL     1      51.450   3.014  17.689  0.00  0.00    +0.000 A 
ATOM      6  C   UNL     1      50.756   4.206  17.939  0.00  0.00    +0.000 A 
ATOM      7  C   UNL     1      49.396   4.324  17.634  0.00  0.00    +0.000 A 
BRANCH   5   8
ATOM      8  C   UNL     1      52.893   2.870  18.106  0.00  0.00    +0.000 C 
BRANCH   8   9
ATOM      9  S   UNL     1      53.392   3.894  19.523  0.00  0.00    +0.000 S 
BRANCH   9  10
ATOM     10  C   UNL     1      54.646   4.962  18.736  0.00  0.00    +0.000 C 
BRANCH  10  11
ATOM     11  C   UNL     1      54.105   5.878  17.662  0.00  0.00    +0.000 A 
ATOM     12  N   UNL     1      54.568   5.727  16.404  0.00  0.00    +0.000 NA
ATOM     13  C   UNL     1      54.064   6.558  15.472  0.00  0.00    +0.000 A 
ATOM     14  C   UNL     1      53.129   7.526  15.743  0.00  0.00    +0.000 A 
ATOM     15  C   UNL     1      52.721   7.605  17.051  0.00  0.00    +0.000 A 
ATOM     16  N   UNL     1      53.188   6.800  18.025  0.00  0.00    +0.000 NA
ENDBRANCH  10  11
ENDBRANCH   9  10
ENDBRANCH   8   9
ENDBRANCH   5   8
ENDBRANCH   1   2
BRANCH   1  19
ATOM     17  C   UNL     1      46.946   4.216  14.528  0.00  0.00    +0.000 C 
ATOM     18  O   UNL     1      47.225   3.108  14.064  0.00  0.00    +0.000 OA
ATOM     19  N   UNL     1      46.920   4.416  15.881  0.00  0.00    +0.000 N 
ATOM     20  H   UNL     1      46.665   5.317  16.264  0.00  0.00    +0.000 HD
BRANCH  17  28
ATOM     21  C   UNL     1      44.159   5.115  12.699  0.00  0.00    +0.000 A 
ATOM     22  N   UNL     1      43.241   5.693  11.896  0.00  0.00    +0.000 NA
ATOM     23  C   UNL     1      43.564   6.841  11.291  0.00  0.00    +0.000 A 
ATOM     24  N   UNL     1      44.715   7.499  11.392  0.00  0.00    +0.000 NA
ATOM     25  C   UNL     1      45.604   6.884  12.190  0.00  0.00    +0.000 A 
ATOM     26  S   UNL     1      47.128   7.590  12.432  0.00  0.00    +0.000 S 
ATOM     27  C   UNL     1      47.603   6.323  13.458  0.00  0.00    +0.000 A 
ATOM     28  C   UNL     1      46.627   5.348  13.644  0.00  0.00    +0.000 A 
ATOM     29  C   UNL     1      45.429   5.689  12.884  0.00  0.00    +0.000 A 
BRANCH  21  31
ATOM     30  C   UNL     1      43.649   2.859  12.391  0.00  0.00    +0.000 C 
ATOM     31  O   UNL     1      43.826   3.928  13.319  0.00  0.00    +0.000 OA
ENDBRANCH  21  31
ENDBRANCH  17  28
ENDBRANCH   1  19
TORSDOF 8
ENDMDL
MODEL 7
REMARK VINA RESULT:    -6.426      3.719      5.518
REMARK INTER + INTRA:         -10.460
REMARK INTER:                  -9.230
REMARK INTRA:                  -1.230
REMARK UNBOUND:                -1.029
REMARK  Name = 
REMARK  9 active torsions:
REMARK  status: ('A' for Active; 'I' for Inactive)
REMARK    1  A    between atoms: C_1  and  O_2
REMARK    2  A    between atoms: O_2  and  C_3
REMARK    3  A    between atoms: C_10  and  C_11
REMARK    4  A    between atoms: N_13  and  C_14
REMARK    5  A    between atoms: C_14  and  C_15
REMARK    6  A    between atoms: C_18  and  C_19
REMARK    7  A    between atoms: C_19  and  S_20
REMARK    8  A    between atoms: S_20  and  C_21
REMARK    9  A    between atoms: C_21  and  C_22
REMARK                            x       y       z     vdW  Elec       q    Type
REMARK                         _______ _______ _______ _____ _____    ______ ____
ROOT
ATOM      1  C   UNL     1      48.165   3.708  17.598  0.00  0.00    +0.000 C 
ENDROOT
BRANCH   1   2
ATOM      2  C   UNL     1      48.031   4.567  16.370  0.00  0.00    +0.000 A 
ATOM      3  C   UNL     1      48.679   5.807  16.300  0.00  0.00    +0.000 A 
ATOM      4  C   UNL     1      48.506   6.641  15.193  0.00  0.00    +0.000 A 
ATOM      5  C   UNL     1      47.684   6.252  14.125  0.00  0.00    +0.000 A 
ATOM      6  C   UNL     1      47.049   5.004  14.191  0.00  0.00    +0.000 A 
ATOM      7  C   UNL     1      47.218   4.170  15.300  0.00  0.00    +0.000 A 
BRANCH   5   8
ATOM      8  C   UNL     1      47.421   7.181  12.964  0.00  0.00    +0.000 C 
BRANCH   8   9
ATOM      9  S   UNL     1      45.672   7.358  12.499  0.00  0.00    +0.000 S 
BRANCH   9  10
ATOM     10  C   UNL     1      45.614   6.295  11.016  0.00  0.00    +0.000 C 
BRANCH  10  11
ATOM     11  C   UNL     1      44.820   5.020  11.189  0.00  0.00    +0.000 A 
ATOM     12  N   UNL     1      44.850   4.111  10.192  0.00  0.00    +0.000 NA
ATOM     13  C   UNL     1      44.134   2.988  10.379  0.00  0.00    +0.000 A 
ATOM     14  C   UNL     1      43.392   2.737  11.507  0.00  0.00    +0.000 A 
ATOM     15  C   UNL     1      43.421   3.720  12.464  0.00  0.00    +0.000 A 
ATOM     16  N   UNL     1      44.121   4.864  12.334  0.00  0.00    +0.000 NA
ENDBRANCH  10  11
ENDBRANCH   9  10
ENDBRANCH   8   9
ENDBRANCH   5   8
ENDBRANCH   1   2
BRANCH   1  19
ATOM     17  C   UNL     1      50.211   2.427  17.173  0.00  0.00    +0.000 C 
ATOM     18  O   UNL     1      49.635   1.796  16.284  0.00  0.00    +0.000 OA
ATOM     19  N   UNL     1      49.550   3.398  17.875  0.00  0.00    +0.000 N 
ATOM     20  H   UNL     1      50.029   3.935  18.586  0.00  0.00    +0.000 HD
BRANCH  17  28
ATOM     21  C   UNL     1      52.949   4.437  17.792  0.00  0.00    +0.000 A 
ATOM     22  N   UNL     1      54.164   4.964  18.055  0.00  0.00    +0.000 NA
ATOM     23  C   UNL     1      55.176   4.126  18.297  0.00  0.00    +0.000 A 
ATOM     24  N   UNL     1      55.126   2.797  18.311  0.00  0.00    +0.000 NA
ATOM     25  C   UNL     1      53.903   2.315  18.032  0.00  0.00    +0.000 A 
ATOM     26  S   UNL     1      53.660   0.635  18.009  0.00  0.00    +0.000 S 
ATOM     27  C   UNL     1      52.020   0.832  17.616  0.00  0.00    +0.000 A 
ATOM     28  C   UNL     1      51.620   2.160  17.500  0.00  0.00    +0.000 A 
ATOM     29  C   UNL     1      52.752   3.046  17.752  0.00  0.00    +0.000 A 
BRANCH  21  31
ATOM     30  C   UNL     1      51.622   6.159  18.643  0.00  0.00    +0.000 C 
ATOM     31  O   UNL     1      51.906   5.304  17.537  0.00  0.00    +0.000 OA
ENDBRANCH  21  31
ENDBRANCH  17  28
ENDBRANCH   1  19
TORSDOF 8
ENDMDL
MODEL 8
REMARK VINA RESULT:    -6.167      2.689      3.241
REMARK INTER + INTRA:         -10.079
REMARK INTER:                  -9.036
REMARK INTRA:                  -1.043
REMARK UNBOUND:                -1.029
REMARK  Name = 
REMARK  9 active torsions:
REMARK  status: ('A' for Active; 'I' for Inactive)
REMARK    1  A    between atoms: C_1  and  O_2
REMARK    2  A    between atoms: O_2  and  C_3
REMARK    3  A    between atoms: C_10  and  C_11
REMARK    4  A    between atoms: N_13  and  C_14
REMARK    5  A    between atoms: C_14  and  C_15
REMARK    6  A    between atoms: C_18  and  C_19
REMARK    7  A    between atoms: C_19  and  S_20
REMARK    8  A    between atoms: S_20  and  C_21
REMARK    9  A    between atoms: C_21  and  C_22
REMARK                            x       y       z     vdW  Elec       q    Type
REMARK                         _______ _______ _______ _____ _____    ______ ____
ROOT
ATOM      1  C   UNL     1      47.502   9.344  12.981  0.00  0.00    +0.000 C 
ENDROOT
BRANCH   1   2
ATOM      2  C   UNL     1      46.603   8.228  12.525  0.00  0.00    +0.000 A 
ATOM      3  C   UNL     1      47.015   6.894  12.642  0.00  0.00    +0.000 A 
ATOM      4  C   UNL     1      46.215   5.855  12.160  0.00  0.00    +0.000 A 
ATOM      5  C   UNL     1      44.981   6.124  11.551  0.00  0.00    +0.000 A 
ATOM      6  C   UNL     1      44.564   7.460  11.449  0.00  0.00    +0.000 A 
ATOM      7  C   UNL     1      45.365   8.501  11.928  0.00  0.00    +0.000 A 
BRANCH   5   8
ATOM      8  C   UNL     1      44.149   5.018  10.948  0.00  0.00    +0.000 C 
BRANCH   8   9
ATOM      9  S   UNL     1      44.830   3.344  11.149  0.00  0.00    +0.000 S 
BRANCH   9  10
ATOM     10  C   UNL     1      44.367   2.602   9.547  0.00  0.00    +0.000 C 
BRANCH  10  11
ATOM     11  C   UNL     1      45.515   2.435   8.579  0.00  0.00    +0.000 A 
ATOM     12  N   UNL     1      45.982   3.533   7.949  0.00  0.00    +0.000 NA
ATOM     13  C   UNL     1      47.005   3.349   7.095  0.00  0.00    +0.000 A 
ATOM     14  C   UNL     1      47.574   2.125   6.842  0.00  0.00    +0.000 A 
ATOM     15  C   UNL     1      47.030   1.068   7.527  0.00  0.00    +0.000 A 
ATOM     16  N   UNL     1      46.007   1.191   8.395  0.00  0.00    +0.000 NA
ENDBRANCH  10  11
ENDBRANCH   9  10
ENDBRANCH   8   9
ENDBRANCH   5   8
ENDBRANCH   1   2
BRANCH   1  19
ATOM     17  C   UNL     1      49.744   9.680  13.914  0.00  0.00    +0.000 C 
ATOM     18  O   UNL     1      49.518  10.887  14.030  0.00  0.00    +0.000 OA
ATOM     19  N   UNL     1      48.792   8.841  13.402  0.00  0.00    +0.000 N 
ATOM     20  H   UNL     1      48.966   7.847  13.331  0.00  0.00    +0.000 HD
BRANCH  17  28
ATOM     21  C   UNL     1      50.656   6.989  15.875  0.00  0.00    +0.000 A 
ATOM     22  N   UNL     1      51.288   6.032  16.587  0.00  0.00    +0.000 NA
ATOM     23  C   UNL     1      52.625   6.024  16.585  0.00  0.00    +0.000 A 
ATOM     24  N   UNL     1      53.427   6.869  15.945  0.00  0.00    +0.000 NA
ATOM     25  C   UNL     1      52.758   7.812  15.259  0.00  0.00    +0.000 A 
ATOM     26  S   UNL     1      53.629   8.974  14.381  0.00  0.00    +0.000 S 
ATOM     27  C   UNL     1      52.196   9.719  13.858  0.00  0.00    +0.000 A 
ATOM     28  C   UNL     1      51.035   9.109  14.326  0.00  0.00    +0.000 A 
ATOM     29  C   UNL     1      51.377   7.964  15.165  0.00  0.00    +0.000 A 
BRANCH  21  31
ATOM     30  C   UNL     1      48.737   7.043  17.203  0.00  0.00    +0.000 C 
ATOM     31  O   UNL     1      49.276   7.000  15.883  0.00  0.00    +0.000 OA
ENDBRANCH  21  31
ENDBRANCH  17  28
ENDBRANCH   1  19
TORSDOF 8
ENDMDL
MODEL 9
REMARK VINA RESULT:    -6.049      2.524      8.564
REMARK INTER + INTRA:          -9.906
REMARK INTER:                  -8.794
REMARK INTRA:                  -1.112
REMARK UNBOUND:                -1.029
REMARK  Name = 
REMARK  9 active torsions:
REMARK  status: ('A' for Active; 'I' for Inactive)
REMARK    1  A    between atoms: C_1  and  O_2
REMARK    2  A    between atoms: O_2  and  C_3
REMARK    3  A    between atoms: C_10  and  C_11
REMARK    4  A    between atoms: N_13  and  C_14
REMARK    5  A    between atoms: C_14  and  C_15
REMARK    6  A    between atoms: C_18  and  C_19
REMARK    7  A    between atoms: C_19  and  S_20
REMARK    8  A    between atoms: S_20  and  C_21
REMARK    9  A    between atoms: C_21  and  C_22
REMARK                            x       y       z     vdW  Elec       q    Type
REMARK                         _______ _______ _______ _____ _____    ______ ____
ROOT
ATOM      1  C   UNL     1      47.947   7.941  11.698  0.00  0.00    +0.000 C 
ENDROOT
BRANCH   1   2
ATOM      2  C   UNL     1      48.584   8.236  13.029  0.00  0.00    +0.000 A 
ATOM      3  C   UNL     1      49.820   7.667  13.363  0.00  0.00    +0.000 A 
ATOM      4  C   UNL     1      50.387   7.881  14.622  0.00  0.00    +0.000 A 
ATOM      5  C   UNL     1      49.735   8.675  15.575  0.00  0.00    +0.000 A 
ATOM      6  C   UNL     1      48.505   9.256  15.232  0.00  0.00    +0.000 A 
ATOM      7  C   UNL     1      47.935   9.039  13.974  0.00  0.00    +0.000 A 
BRANCH   5   8
ATOM      8  C   UNL     1      50.295   8.843  16.967  0.00  0.00    +0.000 C 
BRANCH   8   9
ATOM      9  S   UNL     1      50.324   7.329  17.974  0.00  0.00    +0.000 S 
BRANCH   9  10
ATOM     10  C   UNL     1      48.630   6.710  17.691  0.00  0.00    +0.000 C 
BRANCH  10  11
ATOM     11  C   UNL     1      48.537   5.217  17.474  0.00  0.00    +0.000 A 
ATOM     12  N   UNL     1      49.676   4.538  17.223  0.00  0.00    +0.000 NA
ATOM     13  C   UNL     1      49.558   3.210  17.036  0.00  0.00    +0.000 A 
ATOM     14  C   UNL     1      48.362   2.539  17.086  0.00  0.00    +0.000 A 
ATOM     15  C   UNL     1      47.259   3.314  17.344  0.00  0.00    +0.000 A 
ATOM     16  N   UNL     1      47.316   4.646  17.541  0.00  0.00    +0.000 NA
ENDBRANCH  10  11
ENDBRANCH   9  10
ENDBRANCH   8   9
ENDBRANCH   5   8
ENDBRANCH   1   2
BRANCH   1  19
ATOM     17  C   UNL     1      45.801   6.759  11.622  0.00  0.00    +0.000 C 
ATOM     18  O   UNL     1      45.213   7.831  11.459  0.00  0.00    +0.000 OA
ATOM     19  N   UNL     1      47.163   6.726  11.748  0.00  0.00    +0.000 N 
ATOM     20  H   UNL     1      47.649   5.845  11.855  0.00  0.00    +0.000 HD
BRANCH  17  28
ATOM     21  C   UNL     1      45.285   4.184   9.381  0.00  0.00    +0.000 A 
ATOM     22  N   UNL     1      44.914   3.066   8.722  0.00  0.00    +0.000 NA
ATOM     23  C   UNL     1      44.147   2.180   9.365  0.00  0.00    +0.000 A 
ATOM     24  N   UNL     1      43.695   2.272  10.612  0.00  0.00    +0.000 NA
ATOM     25  C   UNL     1      44.077   3.404  11.227  0.00  0.00    +0.000 A 
ATOM     26  S   UNL     1      43.588   3.683  12.828  0.00  0.00    +0.000 S 
ATOM     27  C   UNL     1      44.401   5.174  12.864  0.00  0.00    +0.000 A 
ATOM     28  C   UNL     1      45.059   5.490  11.679  0.00  0.00    +0.000 A 
ATOM     29  C   UNL     1      44.864   4.425  10.700  0.00  0.00    +0.000 A 
BRANCH  21  31
ATOM     30  C   UNL     1      46.732   4.534   7.583  0.00  0.00    +0.000 C 
ATOM     31  O   UNL     1      46.073   5.100   8.715  0.00  0.00    +0.000 OA
ENDBRANCH  21  31
ENDBRANCH  17  28
ENDBRANCH   1  19
TORSDOF 8
ENDMDL
