MODEL 1
REMARK VINA RESULT:    -7.991      0.000      0.000
REMARK INTER + INTRA:         -13.083
REMARK INTER:                 -11.729
REMARK INTRA:                  -1.354
REMARK UNBOUND:                -1.354
REMARK  Name = 
REMARK  9 active torsions:
REMARK  status: ('A' for Active; 'I' for Inactive)
REMARK    1  A    between atoms: C_1  and  O_2
REMARK    2  A    between atoms: O_2  and  C_3
REMARK    3  A    between atoms: C_10  and  C_11
REMARK    4  A    between atoms: N_13  and  C_14
REMARK    5  A    between atoms: C_14  and  C_15
REMARK    6  A    between atoms: C_18  and  C_19
REMARK    7  A    between atoms: C_19  and  N_20
REMARK    8  A    between atoms: N_20  and  C_21
REMARK    9  A    between atoms: C_21  and  C_22
REMARK                            x       y       z     vdW  Elec       q    Type
REMARK                         _______ _______ _______ _____ _____    ______ ____
ROOT
ATOM      1  C   UNL     1      46.743   8.067  13.032  0.00  0.00    +0.000 C 
ENDROOT
BRANCH   1   2
ATOM      2  C   UNL     1      45.910   7.020  12.339  0.00  0.00    +0.000 A 
ATOM      3  C   UNL     1      44.773   6.480  12.956  0.00  0.00    +0.000 A 
ATOM      4  C   UNL     1      44.066   5.435  12.352  0.00  0.00    +0.000 A 
ATOM      5  C   UNL     1      44.474   4.913  11.115  0.00  0.00    +0.000 A 
ATOM      6  C   UNL     1      45.587   5.481  10.482  0.00  0.00    +0.000 A 
ATOM      7  C   UNL     1      46.301   6.517  11.094  0.00  0.00    +0.000 A 
BRANCH   5   8
ATOM      8  C   UNL     1      43.756   3.729  10.507  0.00  0.00    +0.000 C 
BRANCH   8   9
ATOM      9  N   UNL     1      44.622   2.560  10.445  0.00  0.00    +0.000 NA
ATOM     10  H   UNL     1      44.377   1.909  11.193  0.00  0.00    +0.000 HD
BRANCH   9  11
ATOM     11  C   UNL     1      44.475   1.847   9.165  0.00  0.00    +0.000 C 
BRANCH  11  12
ATOM     12  C   UNL     1      45.669   2.050   8.242  0.00  0.00    +0.000 A 
ATOM     13  N   UNL     1      45.834   3.279   7.702  0.00  0.00    +0.000 NA
ATOM     14  C   UNL     1      46.893   3.435   6.886  0.00  0.00    +0.000 A 
ATOM     15  C   UNL     1      47.788   2.431   6.602  0.00  0.00    +0.000 A 
ATOM     16  C   UNL     1      47.535   1.222   7.203  0.00  0.00    +0.000 A 
ATOM     17  N   UNL     1      46.493   1.003   8.027  0.00  0.00    +0.000 NA
ENDBRANCH  11  12
ENDBRANCH   9  11
ENDBRANCH   8   9
ENDBRANCH   5   8
ENDBRANCH   1   2
BRANCH   1  20
ATOM     18  C   UNL     1      48.531   6.861  14.210  0.00  0.00    +0.000 C 
ATOM     19  O   UNL     1      49.088   6.559  13.156  0.00  0.00    +0.000 OA
ATOM     20  N   UNL     1      47.339   7.537  14.234  0.00  0.00    +0.000 N 
ATOM     21  H   UNL     1      46.978   7.868  15.121  0.00  0.00    +0.000 HD
BRANCH  18  29
ATOM     22  C   UNL     1      47.571   4.507  16.407  0.00  0.00    +0.000 A 
ATOM     23  N   UNL     1      47.354   3.630  17.417  0.00  0.00    +0.000 NA
ATOM     24  C   UNL     1      48.146   3.653  18.492  0.00  0.00    +0.000 A 
ATOM     25  C   UNL     1      49.208   4.515  18.648  0.00  0.00    +0.000 A 
ATOM     26  C   UNL     1      49.440   5.411  17.595  0.00  0.00    +0.000 A 
ATOM     27  S   UNL     1      50.684   6.592  17.539  0.00  0.00    +0.000 S 
ATOM     28  C   UNL     1      50.173   7.157  16.022  0.00  0.00    +0.000 A 
ATOM     29  C   UNL     1      49.086   6.467  15.513  0.00  0.00    +0.000 A 
ATOM     30  C   UNL     1      48.641   5.430  16.444  0.00  0.00    +0.000 A 
BRANCH  22  32
ATOM     31  C   UNL     1      47.222   3.540  14.317  0.00  0.00    +0.000 C 
ATOM     32  O   UNL     1      46.741   4.442  15.308  0.00  0.00    +0.000 OA
ENDBRANCH  22  32
ENDBRANCH  18  29
ENDBRANCH   1  20
TORSDOF 8
ENDMDL
MODEL 2
REMARK VINA RESULT:    -7.792      1.487      1.631
REMARK INTER + INTRA:         -12.790
REMARK INTER:                 -11.587
REMARK INTRA:                  -1.203
REMARK UNBOUND:                -1.354
REMARK  Name = 
REMARK  9 active torsions:
REMARK  status: ('A' for Active; 'I' for Inactive)
REMARK    1  A    between atoms: C_1  and  O_2
REMARK    2  A    between atoms: O_2  and  C_3
REMARK    3  A    between atoms: C_10  and  C_11
REMARK    4  A    between atoms: N_13  and  C_14
REMARK    5  A    between atoms: C_14  and  C_15
REMARK    6  A    between atoms: C_18  and  C_19
REMARK    7  A    between atoms: C_19  and  N_20
REMARK    8  A    between atoms: N_20  and  C_21
REMARK    9  A    between atoms: C_21  and  C_22
REMARK                            x       y       z     vdW  Elec       q    Type
REMARK                         _______ _______ _______ _____ _____    ______ ____
ROOT
ATOM      1  C   UNL     1      48.070   6.659  13.321  0.00  0.00    +0.000 C 
ENDROOT
BRANCH   1   2
ATOM      2  C   UNL     1      46.825   5.997  12.787  0.00  0.00    +0.000 A 
ATOM      3  C   UNL     1      46.138   5.039  13.543  0.00  0.00    +0.000 A 
ATOM      4  C   UNL     1      45.046   4.355  13.000  0.00  0.00    +0.000 A 
ATOM      5  C   UNL     1      44.612   4.620  11.693  0.00  0.00    +0.000 A 
ATOM      6  C   UNL     1      45.276   5.606  10.953  0.00  0.00    +0.000 A 
ATOM      7  C   UNL     1      46.376   6.280  11.492  0.00  0.00    +0.000 A 
BRANCH   5   8
ATOM      8  C   UNL     1      43.485   3.818  11.081  0.00  0.00    +0.000 C 
BRANCH   8   9
ATOM      9  N   UNL     1      43.763   3.489   9.690  0.00  0.00    +0.000 NA
ATOM     10  H   UNL     1      44.342   4.220   9.272  0.00  0.00    +0.000 HD
BRANCH   9  11
ATOM     11  C   UNL     1      44.493   2.216   9.571  0.00  0.00    +0.000 C 
BRANCH  11  12
ATOM     12  C   UNL     1      45.576   2.261   8.501  0.00  0.00    +0.000 A 
ATOM     13  N   UNL     1      45.781   3.443   7.875  0.00  0.00    +0.000 NA
ATOM     14  C   UNL     1      46.740   3.459   6.931  0.00  0.00    +0.000 A 
ATOM     15  C   UNL     1      47.499   2.362   6.600  0.00  0.00    +0.000 A 
ATOM     16  C   UNL     1      47.216   1.212   7.295  0.00  0.00    +0.000 A 
ATOM     17  N   UNL     1      46.269   1.131   8.249  0.00  0.00    +0.000 NA
ENDBRANCH  11  12
ENDBRANCH   9  11
ENDBRANCH   8   9
ENDBRANCH   5   8
ENDBRANCH   1   2
BRANCH   1  20
ATOM     18  C   UNL     1      49.167   7.028  15.490  0.00  0.00    +0.000 C 
ATOM     19  O   UNL     1      50.266   7.180  14.962  0.00  0.00    +0.000 OA
ATOM     20  N   UNL     1      48.051   6.699  14.764  0.00  0.00    +0.000 N 
ATOM     21  H   UNL     1      47.148   6.700  15.221  0.00  0.00    +0.000 HD
BRANCH  18  29
ATOM     22  C   UNL     1      48.852   4.676  17.869  0.00  0.00    +0.000 A 
ATOM     23  N   UNL     1      48.706   3.900  18.970  0.00  0.00    +0.000 NA
ATOM     24  C   UNL     1      48.533   4.473  20.164  0.00  0.00    +0.000 A 
ATOM     25  C   UNL     1      48.507   5.834  20.368  0.00  0.00    +0.000 A 
ATOM     26  C   UNL     1      48.673   6.635  19.230  0.00  0.00    +0.000 A 
ATOM     27  S   UNL     1      48.672   8.351  19.204  0.00  0.00    +0.000 S 
ATOM     28  C   UNL     1      48.887   8.394  17.520  0.00  0.00    +0.000 A 
ATOM     29  C   UNL     1      48.990   7.139  16.945  0.00  0.00    +0.000 A 
ATOM     30  C   UNL     1      48.860   6.088  17.954  0.00  0.00    +0.000 A 
BRANCH  22  32
ATOM     31  C   UNL     1      47.943   3.220  16.295  0.00  0.00    +0.000 C 
ATOM     32  O   UNL     1      49.044   4.047  16.657  0.00  0.00    +0.000 OA
ENDBRANCH  22  32
ENDBRANCH  18  29
ENDBRANCH   1  20
TORSDOF 8
ENDMDL
MODEL 3
REMARK VINA RESULT:    -7.504      2.549      3.305
REMARK INTER + INTRA:         -12.368
REMARK INTER:                 -11.136
REMARK INTRA:                  -1.232
REMARK UNBOUND:                -1.354
REMARK  Name = 
REMARK  9 active torsions:
REMARK  status: ('A' for Active; 'I' for Inactive)
REMARK    1  A    between atoms: C_1  and  O_2
REMARK    2  A    between atoms: O_2  and  C_3
REMARK    3  A    between atoms: C_10  and  C_11
REMARK    4  A    between atoms: N_13  and  C_14
REMARK    5  A    between atoms: C_14  and  C_15
REMARK    6  A    between atoms: C_18  and  C_19
REMARK    7  A    between atoms: C_19  and  N_20
REMARK    8  A    between atoms: N_20  and  C_21
REMARK    9  A    between atoms: C_21  and  C_22
REMARK                            x       y       z     vdW  Elec       q    Type
REMARK                         _______ _______ _______ _____ _____    ______ ____
ROOT
ATOM      1  C   UNL     1      48.422   6.738  13.870  0.00  0.00    +0.000 C 
ENDROOT
BRANCH   1   2
ATOM      2  C   UNL     1      47.278   6.210  13.044  0.00  0.00    +0.000 A 
ATOM      3  C   UNL     1      47.029   6.705  11.757  0.00  0.00    +0.000 A 
ATOM      4  C   UNL     1      45.905   6.285  11.039  0.00  0.00    +0.000 A 
ATOM      5  C   UNL     1      45.010   5.355  11.588  0.00  0.00    +0.000 A 
ATOM      6  C   UNL     1      45.281   4.831  12.858  0.00  0.00    +0.000 A 
ATOM      7  C   UNL     1      46.399   5.263  13.581  0.00  0.00    +0.000 A 
BRANCH   5   8
ATOM      8  C   UNL     1      43.752   4.968  10.843  0.00  0.00    +0.000 C 
BRANCH   8   9
ATOM      9  N   UNL     1      44.057   4.484   9.504  0.00  0.00    +0.000 NA
ATOM     10  H   UNL     1      44.863   4.989   9.130  0.00  0.00    +0.000 HD
BRANCH   9  11
ATOM     11  C   UNL     1      44.390   3.050   9.509  0.00  0.00    +0.000 C 
BRANCH  11  12
ATOM     12  C   UNL     1      45.443   2.691   8.470  0.00  0.00    +0.000 A 
ATOM     13  N   UNL     1      45.791   3.650   7.581  0.00  0.00    +0.000 NA
ATOM     14  C   UNL     1      46.720   3.309   6.670  0.00  0.00    +0.000 A 
ATOM     15  C   UNL     1      47.318   2.072   6.618  0.00  0.00    +0.000 A 
ATOM     16  C   UNL     1      46.898   1.170   7.566  0.00  0.00    +0.000 A 
ATOM     17  N   UNL     1      45.972   1.450   8.503  0.00  0.00    +0.000 NA
ENDBRANCH  11  12
ENDBRANCH   9  11
ENDBRANCH   8   9
ENDBRANCH   5   8
ENDBRANCH   1   2
BRANCH   1  20
ATOM     18  C   UNL     1      49.021   6.488  16.241  0.00  0.00    +0.000 C 
ATOM     19  O   UNL     1      50.159   6.117  15.964  0.00  0.00    +0.000 OA
ATOM     20  N   UNL     1      48.084   6.744  15.273  0.00  0.00    +0.000 N 
ATOM     21  H   UNL     1      47.200   7.160  15.541  0.00  0.00    +0.000 HD
BRANCH  18  29
ATOM     22  C   UNL     1      47.920   9.163  17.951  0.00  0.00    +0.000 A 
ATOM     23  N   UNL     1      47.460  10.101  18.814  0.00  0.00    +0.000 NA
ATOM     24  C   UNL     1      47.195   9.762  20.079  0.00  0.00    +0.000 A 
ATOM     25  C   UNL     1      47.344   8.489  20.582  0.00  0.00    +0.000 A 
ATOM     26  C   UNL     1      47.806   7.517  19.684  0.00  0.00    +0.000 A 
ATOM     27  S   UNL     1      48.086   5.864  20.052  0.00  0.00    +0.000 S 
ATOM     28  C   UNL     1      48.619   5.532  18.475  0.00  0.00    +0.000 A 
ATOM     29  C   UNL     1      48.576   6.631  17.635  0.00  0.00    +0.000 A 
ATOM     30  C   UNL     1      48.097   7.816  18.346  0.00  0.00    +0.000 A 
BRANCH  22  32
ATOM     31  C   UNL     1      49.437  10.177  16.503  0.00  0.00    +0.000 C 
ATOM     32  O   UNL     1      48.167   9.549  16.651  0.00  0.00    +0.000 OA
ENDBRANCH  22  32
ENDBRANCH  18  29
ENDBRANCH   1  20
TORSDOF 8
ENDMDL
MODEL 4
REMARK VINA RESULT:    -7.283      2.238      2.595
REMARK INTER + INTRA:         -12.043
REMARK INTER:                 -11.108
REMARK INTRA:                  -0.936
REMARK UNBOUND:                -1.354
REMARK  Name = 
REMARK  9 active torsions:
REMARK  status: ('A' for Active; 'I' for Inactive)
REMARK    1  A    between atoms: C_1  and  O_2
REMARK    2  A    between atoms: O_2  and  C_3
REMARK    3  A    between atoms: C_10  and  C_11
REMARK    4  A    between atoms: N_13  and  C_14
REMARK    5  A    between atoms: C_14  and  C_15
REMARK    6  A    between atoms: C_18  and  C_19
REMARK    7  A    between atoms: C_19  and  N_20
REMARK    8  A    between atoms: N_20  and  C_21
REMARK    9  A    between atoms: C_21  and  C_22
REMARK                            x       y       z     vdW  Elec       q    Type
REMARK                         _______ _______ _______ _____ _____    ______ ____
ROOT
ATOM      1  C   UNL     1      48.493   6.036  13.732  0.00  0.00    +0.000 C 
ENDROOT
BRANCH   1   2
ATOM      2  C   UNL     1      47.262   5.739  12.914  0.00  0.00    +0.000 A 
ATOM      3  C   UNL     1      46.944   6.506  11.785  0.00  0.00    +0.000 A 
ATOM      4  C   UNL     1      45.748   6.291  11.094  0.00  0.00    +0.000 A 
ATOM      5  C   UNL     1      44.848   5.299  11.509  0.00  0.00    +0.000 A 
ATOM      6  C   UNL     1      45.185   4.507  12.614  0.00  0.00    +0.000 A 
ATOM      7  C   UNL     1      46.376   4.732  13.313  0.00  0.00    +0.000 A 
BRANCH   5   8
ATOM      8  C   UNL     1      43.518   5.127  10.809  0.00  0.00    +0.000 C 
BRANCH   8   9
ATOM      9  N   UNL     1      43.689   4.561   9.479  0.00  0.00    +0.000 NA
ATOM     10  H   UNL     1      44.370   5.113   8.954  0.00  0.00    +0.000 HD
BRANCH   9  11
ATOM     11  C   UNL     1      44.187   3.177   9.540  0.00  0.00    +0.000 C 
BRANCH  11  12
ATOM     12  C   UNL     1      45.315   2.917   8.551  0.00  0.00    +0.000 A 
ATOM     13  N   UNL     1      45.717   3.955   7.782  0.00  0.00    +0.000 NA
ATOM     14  C   UNL     1      46.711   3.702   6.911  0.00  0.00    +0.000 A 
ATOM     15  C   UNL     1      47.321   2.476   6.788  0.00  0.00    +0.000 A 
ATOM     16  C   UNL     1      46.843   1.490   7.616  0.00  0.00    +0.000 A 
ATOM     17  N   UNL     1      45.850   1.679   8.506  0.00  0.00    +0.000 NA
ENDBRANCH  11  12
ENDBRANCH   9  11
ENDBRANCH   8   9
ENDBRANCH   5   8
ENDBRANCH   1   2
BRANCH   1  20
ATOM     18  C   UNL     1      49.055   6.880  15.971  0.00  0.00    +0.000 C 
ATOM     19  O   UNL     1      50.172   6.369  15.936  0.00  0.00    +0.000 OA
ATOM     20  N   UNL     1      48.143   6.704  14.962  0.00  0.00    +0.000 N 
ATOM     21  H   UNL     1      47.283   7.238  14.977  0.00  0.00    +0.000 HD
BRANCH  18  29
ATOM     22  C   UNL     1      48.142   5.954  19.069  0.00  0.00    +0.000 A 
ATOM     23  N   UNL     1      47.738   5.799  20.354  0.00  0.00    +0.000 NA
ATOM     24  C   UNL     1      47.372   6.869  21.065  0.00  0.00    +0.000 A 
ATOM     25  C   UNL     1      47.390   8.158  20.581  0.00  0.00    +0.000 A 
ATOM     26  C   UNL     1      47.823   8.318  19.258  0.00  0.00    +0.000 A 
ATOM     27  S   UNL     1      47.932   9.807  18.412  0.00  0.00    +0.000 S 
ATOM     28  C   UNL     1      48.471   9.042  16.995  0.00  0.00    +0.000 A 
ATOM     29  C   UNL     1      48.606   7.671  17.126  0.00  0.00    +0.000 A 
ATOM     30  C   UNL     1      48.219   7.231  18.466  0.00  0.00    +0.000 A 
BRANCH  22  32
ATOM     31  C   UNL     1      47.430   4.193  17.722  0.00  0.00    +0.000 C 
ATOM     32  O   UNL     1      48.525   4.828  18.373  0.00  0.00    +0.000 OA
ENDBRANCH  22  32
ENDBRANCH  18  29
ENDBRANCH   1  20
TORSDOF 8
ENDMDL
MODEL 5
REMARK VINA RESULT:    -6.963      1.843      3.445
REMARK INTER + INTRA:         -11.574
REMARK INTER:                 -10.411
REMARK INTRA:                  -1.163
REMARK UNBOUND:                -1.354
REMARK  Name = 
REMARK  9 active torsions:
REMARK  status: ('A' for Active; 'I' for Inactive)
REMARK    1  A    between atoms: C_1  and  O_2
REMARK    2  A    between atoms: O_2  and  C_3
REMARK    3  A    between atoms: C_10  and  C_11
REMARK    4  A    between atoms: N_13  and  C_14
REMARK    5  A    between atoms: C_14  and  C_15
REMARK    6  A    between atoms: C_18  and  C_19
REMARK    7  A    between atoms: C_19  and  N_20
REMARK    8  A    between atoms: N_20  and  C_21
REMARK    9  A    between atoms: C_21  and  C_22
REMARK                            x       y       z     vdW  Elec       q    Type
REMARK                         _______ _______ _______ _____ _____    ______ ____
ROOT
ATOM      1  C   UNL     1      47.190   3.924  14.800  0.00  0.00    +0.000 C 
ENDROOT
BRANCH   1   2
ATOM      2  C   UNL     1      46.332   4.222  13.597  0.00  0.00    +0.000 A 
ATOM      3  C   UNL     1      46.036   5.542  13.232  0.00  0.00    +0.000 A 
ATOM      4  C   UNL     1      45.156   5.808  12.179  0.00  0.00    +0.000 A 
ATOM      5  C   UNL     1      44.559   4.761  11.461  0.00  0.00    +0.000 A 
ATOM      6  C   UNL     1      44.887   3.443  11.802  0.00  0.00    +0.000 A 
ATOM      7  C   UNL     1      45.757   3.178  12.865  0.00  0.00    +0.000 A 
BRANCH   5   8
ATOM      8  C   UNL     1      43.544   5.053  10.379  0.00  0.00    +0.000 C 
BRANCH   8   9
ATOM      9  N   UNL     1      43.856   4.334   9.152  0.00  0.00    +0.000 NA
ATOM     10  H   UNL     1      43.171   4.570   8.431  0.00  0.00    +0.000 HD
BRANCH   9  11
ATOM     11  C   UNL     1      45.188   4.693   8.639  0.00  0.00    +0.000 C 
BRANCH  11  12
ATOM     12  C   UNL     1      45.903   3.513   7.995  0.00  0.00    +0.000 A 
ATOM     13  N   UNL     1      45.748   2.300   8.575  0.00  0.00    +0.000 NA
ATOM     14  C   UNL     1      46.392   1.273   7.992  0.00  0.00    +0.000 A 
ATOM     15  C   UNL     1      47.164   1.403   6.861  0.00  0.00    +0.000 A 
ATOM     16  C   UNL     1      47.255   2.674   6.348  0.00  0.00    +0.000 A 
ATOM     17  N   UNL     1      46.637   3.742   6.885  0.00  0.00    +0.000 NA
ENDBRANCH  11  12
ENDBRANCH   9  11
ENDBRANCH   8   9
ENDBRANCH   5   8
ENDBRANCH   1   2
BRANCH   1  20
ATOM     18  C   UNL     1      48.449   5.178  16.498  0.00  0.00    +0.000 C 
ATOM     19  O   UNL     1      49.064   4.175  16.853  0.00  0.00    +0.000 OA
ATOM     20  N   UNL     1      47.462   5.128  15.548  0.00  0.00    +0.000 N 
ATOM     21  H   UNL     1      47.067   5.994  15.202  0.00  0.00    +0.000 HD
BRANCH  18  29
ATOM     22  C   UNL     1      49.877   7.961  15.268  0.00  0.00    +0.000 A 
ATOM     23  N   UNL     1      50.415   9.169  14.975  0.00  0.00    +0.000 NA
ATOM     24  C   UNL     1      50.457  10.119  15.914  0.00  0.00    +0.000 A 
ATOM     25  C   UNL     1      49.966   9.962  17.190  0.00  0.00    +0.000 A 
ATOM     26  C   UNL     1      49.395   8.716  17.487  0.00  0.00    +0.000 A 
ATOM     27  S   UNL     1      48.720   8.257  18.996  0.00  0.00    +0.000 S 
ATOM     28  C   UNL     1      48.354   6.697  18.435  0.00  0.00    +0.000 A 
ATOM     29  C   UNL     1      48.700   6.491  17.111  0.00  0.00    +0.000 A 
ATOM     30  C   UNL     1      49.323   7.685  16.540  0.00  0.00    +0.000 A 
BRANCH  22  32
ATOM     31  C   UNL     1      49.212   7.497  13.085  0.00  0.00    +0.000 C 
ATOM     32  O   UNL     1      49.838   7.013  14.268  0.00  0.00    +0.000 OA
ENDBRANCH  22  32
ENDBRANCH  18  29
ENDBRANCH   1  20
TORSDOF 8
ENDMDL
MODEL 6
REMARK VINA RESULT:    -6.910      2.353      3.483
REMARK INTER + INTRA:         -11.496
REMARK INTER:                 -10.449
REMARK INTRA:                  -1.047
REMARK UNBOUND:                -1.354
REMARK  Name = 
REMARK  9 active torsions:
REMARK  status: ('A' for Active; 'I' for Inactive)
REMARK    1  A    between atoms: C_1  and  O_2
REMARK    2  A    between atoms: O_2  and  C_3
REMARK    3  A    between atoms: C_10  and  C_11
REMARK    4  A    between atoms: N_13  and  C_14
REMARK    5  A    between atoms: C_14  and  C_15
REMARK    6  A    between atoms: C_18  and  C_19
REMARK    7  A    between atoms: C_19  and  N_20
REMARK    8  A    between atoms: N_20  and  C_21
REMARK    9  A    between atoms: C_21  and  C_22
REMARK                            x       y       z     vdW  Elec       q    Type
REMARK                         _______ _______ _______ _____ _____    ______ ____
ROOT
ATOM      1  C   UNL     1      47.349   3.831  15.340  0.00  0.00    +0.000 C 
ENDROOT
BRANCH   1   2
ATOM      2  C   UNL     1      46.844   4.356  14.020  0.00  0.00    +0.000 A 
ATOM      3  C   UNL     1      47.205   5.632  13.567  0.00  0.00    +0.000 A 
ATOM      4  C   UNL     1      46.650   6.152  12.394  0.00  0.00    +0.000 A 
ATOM      5  C   UNL     1      45.731   5.405  11.642  0.00  0.00    +0.000 A 
ATOM      6  C   UNL     1      45.402   4.114  12.076  0.00  0.00    +0.000 A 
ATOM      7  C   UNL     1      45.946   3.601  13.257  0.00  0.00    +0.000 A 
BRANCH   5   8
ATOM      8  C   UNL     1      45.071   6.004  10.421  0.00  0.00    +0.000 C 
BRANCH   8   9
ATOM      9  N   UNL     1      45.651   5.479   9.193  0.00  0.00    +0.000 NA
ATOM     10  H   UNL     1      46.609   5.169   9.369  0.00  0.00    +0.000 HD
BRANCH   9  11
ATOM     11  C   UNL     1      44.893   4.322   8.689  0.00  0.00    +0.000 C 
BRANCH  11  12
ATOM     12  C   UNL     1      45.794   3.239   8.111  0.00  0.00    +0.000 A 
ATOM     13  N   UNL     1      46.742   3.627   7.227  0.00  0.00    +0.000 NA
ATOM     14  C   UNL     1      47.524   2.654   6.725  0.00  0.00    +0.000 A 
ATOM     15  C   UNL     1      47.409   1.329   7.076  0.00  0.00    +0.000 A 
ATOM     16  C   UNL     1      46.419   1.039   7.983  0.00  0.00    +0.000 A 
ATOM     17  N   UNL     1      45.603   1.967   8.519  0.00  0.00    +0.000 NA
ENDBRANCH  11  12
ENDBRANCH   9  11
ENDBRANCH   8   9
ENDBRANCH   5   8
ENDBRANCH   1   2
BRANCH   1  20
ATOM     18  C   UNL     1      47.588   4.779  17.595  0.00  0.00    +0.000 C 
ATOM     19  O   UNL     1      47.109   3.776  18.120  0.00  0.00    +0.000 OA
ATOM     20  N   UNL     1      47.675   4.916  16.234  0.00  0.00    +0.000 N 
ATOM     21  H   UNL     1      48.183   5.703  15.849  0.00  0.00    +0.000 HD
BRANCH  18  29
ATOM     22  C   UNL     1      50.620   6.200  17.879  0.00  0.00    +0.000 A 
ATOM     23  N   UNL     1      51.744   6.911  18.140  0.00  0.00    +0.000 NA
ATOM     24  C   UNL     1      51.701   7.914  19.021  0.00  0.00    +0.000 A 
ATOM     25  C   UNL     1      50.563   8.303  19.691  0.00  0.00    +0.000 A 
ATOM     26  C   UNL     1      49.398   7.576  19.408  0.00  0.00    +0.000 A 
ATOM     27  S   UNL     1      47.854   7.846  20.108  0.00  0.00    +0.000 S 
ATOM     28  C   UNL     1      47.162   6.559  19.242  0.00  0.00    +0.000 A 
ATOM     29  C   UNL     1      48.052   5.920  18.397  0.00  0.00    +0.000 A 
ATOM     30  C   UNL     1      49.385   6.515  18.493  0.00  0.00    +0.000 A 
BRANCH  22  32
ATOM     31  C   UNL     1      51.183   3.969  17.522  0.00  0.00    +0.000 C 
ATOM     32  O   UNL     1      50.701   5.182  16.954  0.00  0.00    +0.000 OA
ENDBRANCH  22  32
ENDBRANCH  18  29
ENDBRANCH   1  20
TORSDOF 8
ENDMDL
MODEL 7
REMARK VINA RESULT:    -6.829      4.774      9.226
REMARK INTER + INTRA:         -11.377
REMARK INTER:                 -10.514
REMARK INTRA:                  -0.864
REMARK UNBOUND:                -1.354
REMARK  Name = 
REMARK  9 active torsions:
REMARK  status: ('A' for Active; 'I' for Inactive)
REMARK    1  A    between atoms: C_1  and  O_2
REMARK    2  A    between atoms: O_2  and  C_3
REMARK    3  A    between atoms: C_10  and  C_11
REMARK    4  A    between atoms: N_13  and  C_14
REMARK    5  A    between atoms: C_14  and  C_15
REMARK    6  A    between atoms: C_18  and  C_19
REMARK    7  A    between atoms: C_19  and  N_20
REMARK    8  A    between atoms: N_20  and  C_21
REMARK    9  A    between atoms: C_21  and  C_22
REMARK                            x       y       z     vdW  Elec       q    Type
REMARK                         _______ _______ _______ _____ _____    ______ ____
ROOT
ATOM      1  C   UNL     1      47.199   3.535  16.798  0.00  0.00    +0.000 C 
ENDROOT
BRANCH   1   2
ATOM      2  C   UNL     1      48.670   3.325  17.051  0.00  0.00    +0.000 A 
ATOM      3  C   UNL     1      49.288   2.107  16.739  0.00  0.00    +0.000 A 
ATOM      4  C   UNL     1      50.628   1.884  17.072  0.00  0.00    +0.000 A 
ATOM      5  C   UNL     1      51.382   2.877  17.715  0.00  0.00    +0.000 A 
ATOM      6  C   UNL     1      50.774   4.108  17.990  0.00  0.00    +0.000 A 
ATOM      7  C   UNL     1      49.430   4.325  17.669  0.00  0.00    +0.000 A 
BRANCH   5   8
ATOM      8  C   UNL     1      52.805   2.601  18.148  0.00  0.00    +0.000 C 
BRANCH   8   9
ATOM      9  N   UNL     1      52.973   1.216  18.562  0.00  0.00    +0.000 NA
ATOM     10  H   UNL     1      52.147   0.674  18.299  0.00  0.00    +0.000 HD
BRANCH   9  11
ATOM     11  C   UNL     1      54.140   0.595  17.913  0.00  0.00    +0.000 C 
BRANCH  11  12
ATOM     12  C   UNL     1      54.229  -0.901  18.177  0.00  0.00    +0.000 A 
ATOM     13  N   UNL     1      54.965  -1.642  17.317  0.00  0.00    +0.000 NA
ATOM     14  C   UNL     1      55.026  -2.962  17.567  0.00  0.00    +0.000 A 
ATOM     15  C   UNL     1      54.402  -3.564  18.634  0.00  0.00    +0.000 A 
ATOM     16  C   UNL     1      53.683  -2.725  19.451  0.00  0.00    +0.000 A 
ATOM     17  N   UNL     1      53.582  -1.397  19.253  0.00  0.00    +0.000 NA
ENDBRANCH  11  12
ENDBRANCH   9  11
ENDBRANCH   8   9
ENDBRANCH   5   8
ENDBRANCH   1   2
BRANCH   1  20
ATOM     18  C   UNL     1      46.973   4.371  14.498  0.00  0.00    +0.000 C 
ATOM     19  O   UNL     1      47.264   3.277  14.020  0.00  0.00    +0.000 OA
ATOM     20  N   UNL     1      46.988   4.601  15.849  0.00  0.00    +0.000 N 
ATOM     21  H   UNL     1      46.627   5.479  16.203  0.00  0.00    +0.000 HD
BRANCH  18  29
ATOM     22  C   UNL     1      44.217   5.073  12.708  0.00  0.00    +0.000 A 
ATOM     23  N   UNL     1      43.215   5.542  11.925  0.00  0.00    +0.000 NA
ATOM     24  C   UNL     1      43.373   6.695  11.269  0.00  0.00    +0.000 A 
ATOM     25  C   UNL     1      44.506   7.474  11.344  0.00  0.00    +0.000 A 
ATOM     26  C   UNL     1      45.535   6.995  12.167  0.00  0.00    +0.000 A 
ATOM     27  S   UNL     1      47.047   7.763  12.429  0.00  0.00    +0.000 S 
ATOM     28  C   UNL     1      47.580   6.516  13.452  0.00  0.00    +0.000 A 
ATOM     29  C   UNL     1      46.639   5.519  13.642  0.00  0.00    +0.000 A 
ATOM     30  C   UNL     1      45.422   5.793  12.879  0.00  0.00    +0.000 A 
BRANCH  22  32
ATOM     31  C   UNL     1      43.688   2.815  12.501  0.00  0.00    +0.000 C 
ATOM     32  O   UNL     1      44.010   3.888  13.380  0.00  0.00    +0.000 OA
ENDBRANCH  22  32
ENDBRANCH  18  29
ENDBRANCH   1  20
TORSDOF 8
ENDMDL
MODEL 8
REMARK VINA RESULT:    -6.519      4.808      9.246
REMARK INTER + INTRA:         -10.922
REMARK INTER:                  -9.768
REMARK INTRA:                  -1.154
REMARK UNBOUND:                -1.354
REMARK  Name = 
REMARK  9 active torsions:
REMARK  status: ('A' for Active; 'I' for Inactive)
REMARK    1  A    between atoms: C_1  and  O_2
REMARK    2  A    between atoms: O_2  and  C_3
REMARK    3  A    between atoms: C_10  and  C_11
REMARK    4  A    between atoms: N_13  and  C_14
REMARK    5  A    between atoms: C_14  and  C_15
REMARK    6  A    between atoms: C_18  and  C_19
REMARK    7  A    between atoms: C_19  and  N_20
REMARK    8  A    between atoms: N_20  and  C_21
REMARK    9  A    between atoms: C_21  and  C_22
REMARK                            x       y       z     vdW  Elec       q    Type
REMARK                         _______ _______ _______ _____ _____    ______ ____
ROOT
ATOM      1  C   UNL     1      47.434   3.514  17.102  0.00  0.00    +0.000 C 
ENDROOT
BRANCH   1   2
ATOM      2  C   UNL     1      48.918   3.283  17.228  0.00  0.00    +0.000 A 
ATOM      3  C   UNL     1      49.480   2.033  16.933  0.00  0.00    +0.000 A 
ATOM      4  C   UNL     1      50.840   1.797  17.152  0.00  0.00    +0.000 A 
ATOM      5  C   UNL     1      51.671   2.805  17.662  0.00  0.00    +0.000 A 
ATOM      6  C   UNL     1      51.116   4.065  17.919  0.00  0.00    +0.000 A 
ATOM      7  C   UNL     1      49.752   4.296  17.713  0.00  0.00    +0.000 A 
BRANCH   5   8
ATOM      8  C   UNL     1      53.122   2.519  17.975  0.00  0.00    +0.000 C 
BRANCH   8   9
ATOM      9  N   UNL     1      53.274   1.250  18.671  0.00  0.00    +0.000 NA
ATOM     10  H   UNL     1      52.479   0.643  18.460  0.00  0.00    +0.000 HD
BRANCH   9  11
ATOM     11  C   UNL     1      54.497   0.545  18.252  0.00  0.00    +0.000 C 
BRANCH  11  12
ATOM     12  C   UNL     1      54.366  -0.968  18.357  0.00  0.00    +0.000 A 
ATOM     13  N   UNL     1      53.665  -1.459  19.406  0.00  0.00    +0.000 NA
ATOM     14  C   UNL     1      53.566  -2.799  19.482  0.00  0.00    +0.000 A 
ATOM     15  C   UNL     1      54.118  -3.656  18.559  0.00  0.00    +0.000 A 
ATOM     16  C   UNL     1      54.805  -3.058  17.531  0.00  0.00    +0.000 A 
ATOM     17  N   UNL     1      54.942  -1.725  17.400  0.00  0.00    +0.000 NA
ENDBRANCH  11  12
ENDBRANCH   9  11
ENDBRANCH   8   9
ENDBRANCH   5   8
ENDBRANCH   1   2
BRANCH   1  20
ATOM     18  C   UNL     1      47.068   4.200  14.770  0.00  0.00    +0.000 C 
ATOM     19  O   UNL     1      47.350   3.081  14.346  0.00  0.00    +0.000 OA
ATOM     20  N   UNL     1      47.153   4.516  16.101  0.00  0.00    +0.000 N 
ATOM     21  H   UNL     1      46.798   5.409  16.419  0.00  0.00    +0.000 HD
BRANCH  18  29
ATOM     22  C   UNL     1      48.614   7.062  13.932  0.00  0.00    +0.000 A 
ATOM     23  N   UNL     1      49.058   8.256  13.467  0.00  0.00    +0.000 NA
ATOM     24  C   UNL     1      48.297   8.961  12.625  0.00  0.00    +0.000 A 
ATOM     25  C   UNL     1      47.067   8.545  12.167  0.00  0.00    +0.000 A 
ATOM     26  C   UNL     1      46.617   7.304  12.637  0.00  0.00    +0.000 A 
ATOM     27  S   UNL     1      45.124   6.560  12.233  0.00  0.00    +0.000 S 
ATOM     28  C   UNL     1      45.440   5.224  13.232  0.00  0.00    +0.000 A 
ATOM     29  C   UNL     1      46.669   5.287  13.865  0.00  0.00    +0.000 A 
ATOM     30  C   UNL     1      47.374   6.522  13.520  0.00  0.00    +0.000 A 
BRANCH  22  32
ATOM     31  C   UNL     1      50.327   7.206  15.503  0.00  0.00    +0.000 C 
ATOM     32  O   UNL     1      49.435   6.359  14.787  0.00  0.00    +0.000 OA
ENDBRANCH  22  32
ENDBRANCH  18  29
ENDBRANCH   1  20
TORSDOF 8
ENDMDL
MODEL 9
REMARK VINA RESULT:    -6.221      3.502      8.432
REMARK INTER + INTRA:         -10.485
REMARK INTER:                  -9.222
REMARK INTRA:                  -1.262
REMARK UNBOUND:                -1.354
REMARK  Name = 
REMARK  9 active torsions:
REMARK  status: ('A' for Active; 'I' for Inactive)
REMARK    1  A    between atoms: C_1  and  O_2
REMARK    2  A    between atoms: O_2  and  C_3
REMARK    3  A    between atoms: C_10  and  C_11
REMARK    4  A    between atoms: N_13  and  C_14
REMARK    5  A    between atoms: C_14  and  C_15
REMARK    6  A    between atoms: C_18  and  C_19
REMARK    7  A    between atoms: C_19  and  N_20
REMARK    8  A    between atoms: N_20  and  C_21
REMARK    9  A    between atoms: C_21  and  C_22
REMARK                            x       y       z     vdW  Elec       q    Type
REMARK                         _______ _______ _______ _____ _____    ______ ____
ROOT
ATOM      1  C   UNL     1      47.220   3.433  16.824  0.00  0.00    +0.000 C 
ENDROOT
BRANCH   1   2
ATOM      2  C   UNL     1      48.615   3.438  17.395  0.00  0.00    +0.000 A 
ATOM      3  C   UNL     1      49.011   4.414  18.319  0.00  0.00    +0.000 A 
ATOM      4  C   UNL     1      50.335   4.475  18.764  0.00  0.00    +0.000 A 
ATOM      5  C   UNL     1      51.290   3.556  18.304  0.00  0.00    +0.000 A 
ATOM      6  C   UNL     1      50.883   2.557  17.410  0.00  0.00    +0.000 A 
ATOM      7  C   UNL     1      49.561   2.506  16.955  0.00  0.00    +0.000 A 
BRANCH   5   8
ATOM      8  C   UNL     1      52.738   3.678  18.723  0.00  0.00    +0.000 C 
BRANCH   8   9
ATOM      9  N   UNL     1      53.246   5.021  18.489  0.00  0.00    +0.000 NA
ATOM     10  H   UNL     1      53.938   5.258  19.204  0.00  0.00    +0.000 HD
BRANCH   9  11
ATOM     11  C   UNL     1      53.905   5.129  17.177  0.00  0.00    +0.000 C 
BRANCH  11  12
ATOM     12  C   UNL     1      53.300   6.223  16.307  0.00  0.00    +0.000 A 
ATOM     13  N   UNL     1      54.131   6.874  15.461  0.00  0.00    +0.000 NA
ATOM     14  C   UNL     1      53.576   7.840  14.706  0.00  0.00    +0.000 A 
ATOM     15  C   UNL     1      52.241   8.168  14.751  0.00  0.00    +0.000 A 
ATOM     16  C   UNL     1      51.482   7.446  15.639  0.00  0.00    +0.000 A 
ATOM     17  N   UNL     1      51.978   6.470  16.423  0.00  0.00    +0.000 NA
ENDBRANCH  11  12
ENDBRANCH   9  11
ENDBRANCH   8   9
ENDBRANCH   5   8
ENDBRANCH   1   2
BRANCH   1  20
ATOM     18  C   UNL     1      47.008   4.324  14.543  0.00  0.00    +0.000 C 
ATOM     19  O   UNL     1      47.259   3.231  14.040  0.00  0.00    +0.000 OA
ATOM     20  N   UNL     1      47.040   4.525  15.898  0.00  0.00    +0.000 N 
ATOM     21  H   UNL     1      46.711   5.407  16.273  0.00  0.00    +0.000 HD
BRANCH  18  29
ATOM     22  C   UNL     1      44.315   5.101  12.689  0.00  0.00    +0.000 A 
ATOM     23  N   UNL     1      43.342   5.601  11.890  0.00  0.00    +0.000 NA
ATOM     24  C   UNL     1      43.527   6.773  11.277  0.00  0.00    +0.000 A 
ATOM     25  C   UNL     1      44.661   7.542  11.412  0.00  0.00    +0.000 A 
ATOM     26  C   UNL     1      45.661   7.030  12.252  0.00  0.00    +0.000 A 
ATOM     27  S   UNL     1      47.169   7.779  12.586  0.00  0.00    +0.000 S 
ATOM     28  C   UNL     1      47.660   6.497  13.586  0.00  0.00    +0.000 A 
ATOM     29  C   UNL     1      46.709   5.501  13.714  0.00  0.00    +0.000 A 
ATOM     30  C   UNL     1      45.519   5.807  12.921  0.00  0.00    +0.000 A 
BRANCH  22  32
ATOM     31  C   UNL     1      43.696   2.875  12.402  0.00  0.00    +0.000 C 
ATOM     32  O   UNL     1      44.079   3.897  13.316  0.00  0.00    +0.000 OA
ENDBRANCH  22  32
ENDBRANCH  18  29
ENDBRANCH   1  20
TORSDOF 8
ENDMDL
