MODEL 1
REMARK VINA RESULT:    -8.080      0.000      0.000
REMARK INTER + INTRA:         -11.340
REMARK INTER:                 -10.679
REMARK INTRA:                  -0.661
REMARK UNBOUND:                -0.661
REMARK  Name = 
REMARK  6 active torsions:
REMARK  status: ('A' for Active; 'I' for Inactive)
REMARK    1  A    between atoms: N_1  and  C_2
REMARK    2  A    between atoms: C_2  and  C_3
REMARK    3  A    between atoms: C_6  and  C_7
REMARK    4  A    between atoms: C_7  and  C_8
REMARK    5  A    between atoms: C_8  and  C_9
REMARK    6  A    between atoms: C_13  and  C_14
REMARK                            x       y       z     vdW  Elec       q    Type
REMARK                         _______ _______ _______ _____ _____    ______ ____
ROOT
ATOM      1  C   UNL     1      43.649   4.378  10.714  0.00  0.00    +0.000 C 
ENDROOT
BRANCH   1   2
ATOM      2  C   UNL     1      44.618   5.098  11.621  0.00  0.00    +0.000 A 
ATOM      3  C   UNL     1      44.827   6.476  11.513  0.00  0.00    +0.000 A 
ATOM      4  C   UNL     1      45.737   7.086  12.369  0.00  0.00    +0.000 A 
ATOM      5  N   UNL     1      46.439   6.430  13.318  0.00  0.00    +0.000 NA
ATOM      6  C   UNL     1      46.216   5.089  13.408  0.00  0.00    +0.000 A 
ATOM      7  C   UNL     1      45.327   4.393  12.598  0.00  0.00    +0.000 A 
BRANCH   6   8
ATOM      8  C   UNL     1      46.993   4.351  14.455  0.00  0.00    +0.000 C 
ATOM      9  N   UNL     1      47.302   5.077  15.574  0.00  0.00    +0.000 N 
ATOM     10  O   UNL     1      47.333   3.182  14.330  0.00  0.00    +0.000 OA
ATOM     11  H   UNL     1      47.004   6.045  15.635  0.00  0.00    +0.000 HD
ATOM     12  H   UNL     1      47.824   4.647  16.321  0.00  0.00    +0.000 HD
ENDBRANCH   6   8
ENDBRANCH   1   2
BRANCH   1  13
ATOM     13  C   UNL     1      44.128   2.966  10.350  0.00  0.00    +0.000 C 
BRANCH  13  17
ATOM     14  C   UNL     1      46.617   2.752   6.791  0.00  0.00    +0.000 A 
ATOM     15  C   UNL     1      46.391   1.606   7.562  0.00  0.00    +0.000 A 
ATOM     16  C   UNL     1      45.613   1.661   8.723  0.00  0.00    +0.000 A 
ATOM     17  C   UNL     1      45.054   2.870   9.155  0.00  0.00    +0.000 A 
ATOM     18  C   UNL     1      45.291   4.020   8.386  0.00  0.00    +0.000 A 
ATOM     19  C   UNL     1      46.067   3.964   7.222  0.00  0.00    +0.000 A 
BRANCH  14  20
ATOM     20  C   UNL     1      47.427   2.675   5.522  0.00  0.00    +0.000 C 
BRANCH  20  21
ATOM     21  N   UNL     1      48.601   1.824   5.689  0.00  0.00    +0.000 NA
ATOM     22  H   UNL     1      48.924   1.885   6.653  0.00  0.00    +0.000 HD
ATOM     23  H   UNL     1      49.354   2.189   5.108  0.00  0.00    +0.000 HD
ENDBRANCH  20  21
ENDBRANCH  14  20
ENDBRANCH  13  17
ENDBRANCH   1  13
TORSDOF 6
ENDMDL
MODEL 2
REMARK VINA RESULT:    -7.545      1.938      2.584
REMARK INTER + INTRA:         -10.632
REMARK INTER:                  -9.805
REMARK INTRA:                  -0.827
REMARK UNBOUND:                -0.661
REMARK  Name = 
REMARK  6 active torsions:
REMARK  status: ('A' for Active; 'I' for Inactive)
REMARK    1  A    between atoms: N_1  and  C_2
REMARK    2  A    between atoms: C_2  and  C_3
REMARK    3  A    between atoms: C_6  and  C_7
REMARK    4  A    between atoms: C_7  and  C_8
REMARK    5  A    between atoms: C_8  and  C_9
REMARK    6  A    between atoms: C_13  and  C_14
REMARK                            x       y       z     vdW  Elec       q    Type
REMARK                         _______ _______ _______ _____ _____    ______ ____
ROOT
ATOM      1  C   UNL     1      44.261   5.471  11.133  0.00  0.00    +0.000 C 
ENDROOT
BRANCH   1   2
ATOM      2  C   UNL     1      45.489   5.443  12.012  0.00  0.00    +0.000 A 
ATOM      3  C   UNL     1      45.602   4.540  13.073  0.00  0.00    +0.000 A 
ATOM      4  C   UNL     1      46.751   4.564  13.855  0.00  0.00    +0.000 A 
ATOM      5  N   UNL     1      47.785   5.408  13.652  0.00  0.00    +0.000 NA
ATOM      6  C   UNL     1      47.656   6.275  12.610  0.00  0.00    +0.000 A 
ATOM      7  C   UNL     1      46.546   6.326  11.774  0.00  0.00    +0.000 A 
BRANCH   6   8
ATOM      8  C   UNL     1      48.797   7.219  12.379  0.00  0.00    +0.000 C 
ATOM      9  N   UNL     1      49.797   7.166  13.312  0.00  0.00    +0.000 N 
ATOM     10  O   UNL     1      48.841   7.988  11.428  0.00  0.00    +0.000 OA
ATOM     11  H   UNL     1      49.718   6.516  14.087  0.00  0.00    +0.000 HD
ATOM     12  H   UNL     1      50.598   7.771  13.223  0.00  0.00    +0.000 HD
ENDBRANCH   6   8
ENDBRANCH   1   2
BRANCH   1  13
ATOM     13  C   UNL     1      43.893   4.080  10.599  0.00  0.00    +0.000 C 
BRANCH  13  17
ATOM     14  C   UNL     1      46.518   2.489   7.519  0.00  0.00    +0.000 A 
ATOM     15  C   UNL     1      46.299   3.868   7.614  0.00  0.00    +0.000 A 
ATOM     16  C   UNL     1      45.440   4.395   8.583  0.00  0.00    +0.000 A 
ATOM     17  C   UNL     1      44.759   3.555   9.473  0.00  0.00    +0.000 A 
ATOM     18  C   UNL     1      44.972   2.172   9.369  0.00  0.00    +0.000 A 
ATOM     19  C   UNL     1      45.835   1.643   8.401  0.00  0.00    +0.000 A 
BRANCH  14  20
ATOM     20  C   UNL     1      47.474   1.932   6.495  0.00  0.00    +0.000 C 
BRANCH  20  21
ATOM     21  N   UNL     1      48.702   2.718   6.429  0.00  0.00    +0.000 NA
ATOM     22  H   UNL     1      49.425   2.172   5.966  0.00  0.00    +0.000 HD
ATOM     23  H   UNL     1      49.031   2.889   7.378  0.00  0.00    +0.000 HD
ENDBRANCH  20  21
ENDBRANCH  14  20
ENDBRANCH  13  17
ENDBRANCH   1  13
TORSDOF 6
ENDMDL
MODEL 3
REMARK VINA RESULT:    -7.326      2.444      3.452
REMARK INTER + INTRA:         -10.343
REMARK INTER:                  -9.612
REMARK INTRA:                  -0.731
REMARK UNBOUND:                -0.661
REMARK  Name = 
REMARK  6 active torsions:
REMARK  status: ('A' for Active; 'I' for Inactive)
REMARK    1  A    between atoms: N_1  and  C_2
REMARK    2  A    between atoms: C_2  and  C_3
REMARK    3  A    between atoms: C_6  and  C_7
REMARK    4  A    between atoms: C_7  and  C_8
REMARK    5  A    between atoms: C_8  and  C_9
REMARK    6  A    between atoms: C_13  and  C_14
REMARK                            x       y       z     vdW  Elec       q    Type
REMARK                         _______ _______ _______ _____ _____    ______ ____
ROOT
ATOM      1  C   UNL     1      44.406   4.368  11.765  0.00  0.00    +0.000 C 
ENDROOT
BRANCH   1   2
ATOM      2  C   UNL     1      45.116   5.693  11.908  0.00  0.00    +0.000 A 
ATOM      3  C   UNL     1      46.450   5.761  12.323  0.00  0.00    +0.000 A 
ATOM      4  C   UNL     1      47.051   7.008  12.446  0.00  0.00    +0.000 A 
ATOM      5  N   UNL     1      46.429   8.177  12.180  0.00  0.00    +0.000 NA
ATOM      6  C   UNL     1      45.132   8.086  11.772  0.00  0.00    +0.000 A 
ATOM      7  C   UNL     1      44.447   6.886  11.621  0.00  0.00    +0.000 A 
BRANCH   6   8
ATOM      8  C   UNL     1      44.431   9.377  11.478  0.00  0.00    +0.000 C 
ATOM      9  N   UNL     1      43.671   9.384  10.340  0.00  0.00    +0.000 N 
ATOM     10  O   UNL     1      44.526  10.363  12.197  0.00  0.00    +0.000 OA
ATOM     11  H   UNL     1      43.624   8.545   9.770  0.00  0.00    +0.000 HD
ATOM     12  H   UNL     1      43.170  10.218  10.077  0.00  0.00    +0.000 HD
ENDBRANCH   6   8
ENDBRANCH   1   2
BRANCH   1  13
ATOM     13  C   UNL     1      43.795   4.180  10.370  0.00  0.00    +0.000 C 
BRANCH  13  17
ATOM     14  C   UNL     1      46.546   2.356   7.539  0.00  0.00    +0.000 A 
ATOM     15  C   UNL     1      46.317   3.736   7.508  0.00  0.00    +0.000 A 
ATOM     16  C   UNL     1      45.418   4.336   8.395  0.00  0.00    +0.000 A 
ATOM     17  C   UNL     1      44.708   3.569   9.327  0.00  0.00    +0.000 A 
ATOM     18  C   UNL     1      44.931   2.184   9.348  0.00  0.00    +0.000 A 
ATOM     19  C   UNL     1      45.834   1.582   8.463  0.00  0.00    +0.000 A 
BRANCH  14  20
ATOM     20  C   UNL     1      47.544   1.722   6.603  0.00  0.00    +0.000 C 
BRANCH  20  21
ATOM     21  N   UNL     1      48.653   2.627   6.314  0.00  0.00    +0.000 NA
ATOM     22  H   UNL     1      48.874   2.579   5.322  0.00  0.00    +0.000 HD
ATOM     23  H   UNL     1      49.479   2.299   6.812  0.00  0.00    +0.000 HD
ENDBRANCH  20  21
ENDBRANCH  14  20
ENDBRANCH  13  17
ENDBRANCH   1  13
TORSDOF 6
ENDMDL
MODEL 4
REMARK VINA RESULT:    -7.315      1.779      2.608
REMARK INTER + INTRA:         -10.328
REMARK INTER:                  -9.595
REMARK INTRA:                  -0.733
REMARK UNBOUND:                -0.661
REMARK  Name = 
REMARK  6 active torsions:
REMARK  status: ('A' for Active; 'I' for Inactive)
REMARK    1  A    between atoms: N_1  and  C_2
REMARK    2  A    between atoms: C_2  and  C_3
REMARK    3  A    between atoms: C_6  and  C_7
REMARK    4  A    between atoms: C_7  and  C_8
REMARK    5  A    between atoms: C_8  and  C_9
REMARK    6  A    between atoms: C_13  and  C_14
REMARK                            x       y       z     vdW  Elec       q    Type
REMARK                         _______ _______ _______ _____ _____    ______ ____
ROOT
ATOM      1  C   UNL     1      44.443   3.071  12.001  0.00  0.00    +0.000 C 
ENDROOT
BRANCH   1   2
ATOM      2  C   UNL     1      45.213   4.265  12.514  0.00  0.00    +0.000 A 
ATOM      3  C   UNL     1      46.343   4.109  13.322  0.00  0.00    +0.000 A 
ATOM      4  C   UNL     1      47.008   5.243  13.772  0.00  0.00    +0.000 A 
ATOM      5  N   UNL     1      46.637   6.506  13.471  0.00  0.00    +0.000 NA
ATOM      6  C   UNL     1      45.537   6.635  12.678  0.00  0.00    +0.000 A 
ATOM      7  C   UNL     1      44.808   5.561  12.181  0.00  0.00    +0.000 A 
BRANCH   6   8
ATOM      8  C   UNL     1      45.114   8.032  12.341  0.00  0.00    +0.000 C 
ATOM      9  N   UNL     1      44.212   8.139  11.316  0.00  0.00    +0.000 N 
ATOM     10  O   UNL     1      45.539   9.015  12.932  0.00  0.00    +0.000 OA
ATOM     11  H   UNL     1      43.889   7.297  10.850  0.00  0.00    +0.000 HD
ATOM     12  H   UNL     1      43.882   9.048  11.033  0.00  0.00    +0.000 HD
ENDBRANCH   6   8
ENDBRANCH   1   2
BRANCH   1  13
ATOM     13  C   UNL     1      43.889   3.295  10.588  0.00  0.00    +0.000 C 
BRANCH  13  17
ATOM     14  C   UNL     1      46.544   2.734   7.190  0.00  0.00    +0.000 A 
ATOM     15  C   UNL     1      46.146   1.636   7.961  0.00  0.00    +0.000 A 
ATOM     16  C   UNL     1      45.311   1.801   9.071  0.00  0.00    +0.000 A 
ATOM     17  C   UNL     1      44.867   3.073   9.453  0.00  0.00    +0.000 A 
ATOM     18  C   UNL     1      45.277   4.173   8.685  0.00  0.00    +0.000 A 
ATOM     19  C   UNL     1      46.109   4.009   7.571  0.00  0.00    +0.000 A 
BRANCH  14  20
ATOM     20  C   UNL     1      47.414   2.542   5.974  0.00  0.00    +0.000 C 
BRANCH  20  21
ATOM     21  N   UNL     1      48.809   2.324   6.345  0.00  0.00    +0.000 NA
ATOM     22  H   UNL     1      49.384   3.051   5.927  0.00  0.00    +0.000 HD
ATOM     23  H   UNL     1      49.118   1.441   5.941  0.00  0.00    +0.000 HD
ENDBRANCH  20  21
ENDBRANCH  14  20
ENDBRANCH  13  17
ENDBRANCH   1  13
TORSDOF 6
ENDMDL
MODEL 5
REMARK VINA RESULT:    -6.748      2.361      6.558
REMARK INTER + INTRA:          -9.579
REMARK INTER:                  -8.829
REMARK INTRA:                  -0.750
REMARK UNBOUND:                -0.661
REMARK  Name = 
REMARK  6 active torsions:
REMARK  status: ('A' for Active; 'I' for Inactive)
REMARK    1  A    between atoms: N_1  and  C_2
REMARK    2  A    between atoms: C_2  and  C_3
REMARK    3  A    between atoms: C_6  and  C_7
REMARK    4  A    between atoms: C_7  and  C_8
REMARK    5  A    between atoms: C_8  and  C_9
REMARK    6  A    between atoms: C_13  and  C_14
REMARK                            x       y       z     vdW  Elec       q    Type
REMARK                         _______ _______ _______ _____ _____    ______ ____
ROOT
ATOM      1  C   UNL     1      44.180   4.722   9.235  0.00  0.00    +0.000 C 
ENDROOT
BRANCH   1   2
ATOM      2  C   UNL     1      44.889   3.478   8.756  0.00  0.00    +0.000 A 
ATOM      3  C   UNL     1      44.577   2.218   9.275  0.00  0.00    +0.000 A 
ATOM      4  C   UNL     1      45.267   1.108   8.804  0.00  0.00    +0.000 A 
ATOM      5  N   UNL     1      46.229   1.161   7.857  0.00  0.00    +0.000 NA
ATOM      6  C   UNL     1      46.513   2.398   7.361  0.00  0.00    +0.000 A 
ATOM      7  C   UNL     1      45.877   3.564   7.770  0.00  0.00    +0.000 A 
BRANCH   6   8
ATOM      8  C   UNL     1      47.581   2.469   6.313  0.00  0.00    +0.000 C 
ATOM      9  N   UNL     1      47.308   3.294   5.255  0.00  0.00    +0.000 N 
ATOM     10  O   UNL     1      48.627   1.838   6.386  0.00  0.00    +0.000 OA
ATOM     11  H   UNL     1      46.426   3.796   5.233  0.00  0.00    +0.000 HD
ATOM     12  H   UNL     1      47.980   3.393   4.511  0.00  0.00    +0.000 HD
ENDBRANCH   6   8
ENDBRANCH   1   2
BRANCH   1  13
ATOM     13  C   UNL     1      43.831   4.658  10.727  0.00  0.00    +0.000 C 
BRANCH  13  17
ATOM     14  C   UNL     1      47.062   6.023  13.296  0.00  0.00    +0.000 A 
ATOM     15  C   UNL     1      46.321   4.888  13.642  0.00  0.00    +0.000 A 
ATOM     16  C   UNL     1      45.263   4.448  12.839  0.00  0.00    +0.000 A 
ATOM     17  C   UNL     1      44.905   5.144  11.678  0.00  0.00    +0.000 A 
ATOM     18  C   UNL     1      45.643   6.289  11.341  0.00  0.00    +0.000 A 
ATOM     19  C   UNL     1      46.705   6.728  12.141  0.00  0.00    +0.000 A 
BRANCH  14  20
ATOM     20  C   UNL     1      48.224   6.469  14.148  0.00  0.00    +0.000 C 
BRANCH  20  21
ATOM     21  N   UNL     1      49.402   6.758  13.335  0.00  0.00    +0.000 NA
ATOM     22  H   UNL     1      50.039   7.346  13.867  0.00  0.00    +0.000 HD
ATOM     23  H   UNL     1      49.112   7.303  12.524  0.00  0.00    +0.000 HD
ENDBRANCH  20  21
ENDBRANCH  14  20
ENDBRANCH  13  17
ENDBRANCH   1  13
TORSDOF 6
ENDMDL
MODEL 6
REMARK VINA RESULT:    -6.337      2.971      6.909
REMARK INTER + INTRA:          -9.036
REMARK INTER:                  -8.450
REMARK INTRA:                  -0.586
REMARK UNBOUND:                -0.661
REMARK  Name = 
REMARK  6 active torsions:
REMARK  status: ('A' for Active; 'I' for Inactive)
REMARK    1  A    between atoms: N_1  and  C_2
REMARK    2  A    between atoms: C_2  and  C_3
REMARK    3  A    between atoms: C_6  and  C_7
REMARK    4  A    between atoms: C_7  and  C_8
REMARK    5  A    between atoms: C_8  and  C_9
REMARK    6  A    between atoms: C_13  and  C_14
REMARK                            x       y       z     vdW  Elec       q    Type
REMARK                         _______ _______ _______ _____ _____    ______ ____
ROOT
ATOM      1  C   UNL     1      45.847   7.034  12.022  0.00  0.00    +0.000 C 
ENDROOT
BRANCH   1   2
ATOM      2  C   UNL     1      44.907   5.913  11.645  0.00  0.00    +0.000 A 
ATOM      3  C   UNL     1      43.747   5.658  12.384  0.00  0.00    +0.000 A 
ATOM      4  C   UNL     1      42.923   4.609  11.997  0.00  0.00    +0.000 A 
ATOM      5  N   UNL     1      43.163   3.810  10.935  0.00  0.00    +0.000 NA
ATOM      6  C   UNL     1      44.295   4.079  10.227  0.00  0.00    +0.000 A 
ATOM      7  C   UNL     1      45.180   5.106  10.537  0.00  0.00    +0.000 A 
BRANCH   6   8
ATOM      8  C   UNL     1      44.574   3.196   9.049  0.00  0.00    +0.000 C 
ATOM      9  N   UNL     1      44.755   1.871   9.342  0.00  0.00    +0.000 N 
ATOM     10  O   UNL     1      44.640   3.618   7.903  0.00  0.00    +0.000 OA
ATOM     11  H   UNL     1      44.696   1.564  10.308  0.00  0.00    +0.000 HD
ATOM     12  H   UNL     1      44.946   1.216   8.601  0.00  0.00    +0.000 HD
ENDBRANCH   6   8
ENDBRANCH   1   2
BRANCH   1  13
ATOM     13  C   UNL     1      47.276   6.537  12.273  0.00  0.00    +0.000 C 
BRANCH  13  17
ATOM     14  C   UNL     1      47.719   4.501  16.089  0.00  0.00    +0.000 A 
ATOM     15  C   UNL     1      48.249   5.784  15.911  0.00  0.00    +0.000 A 
ATOM     16  C   UNL     1      48.136   6.444  14.683  0.00  0.00    +0.000 A 
ATOM     17  C   UNL     1      47.507   5.831  13.593  0.00  0.00    +0.000 A 
ATOM     18  C   UNL     1      46.987   4.540  13.772  0.00  0.00    +0.000 A 
ATOM     19  C   UNL     1      47.095   3.879  15.001  0.00  0.00    +0.000 A 
BRANCH  14  20
ATOM     20  C   UNL     1      47.813   3.811  17.427  0.00  0.00    +0.000 C 
BRANCH  20  21
ATOM     21  N   UNL     1      46.664   2.942  17.661  0.00  0.00    +0.000 NA
ATOM     22  H   UNL     1      46.990   2.044  18.013  0.00  0.00    +0.000 HD
ATOM     23  H   UNL     1      46.209   2.756  16.769  0.00  0.00    +0.000 HD
ENDBRANCH  20  21
ENDBRANCH  14  20
ENDBRANCH  13  17
ENDBRANCH   1  13
TORSDOF 6
ENDMDL
MODEL 7
REMARK VINA RESULT:    -6.143      2.295      2.770
REMARK INTER + INTRA:          -8.780
REMARK INTER:                  -8.181
REMARK INTRA:                  -0.598
REMARK UNBOUND:                -0.661
REMARK  Name = 
REMARK  6 active torsions:
REMARK  status: ('A' for Active; 'I' for Inactive)
REMARK    1  A    between atoms: N_1  and  C_2
REMARK    2  A    between atoms: C_2  and  C_3
REMARK    3  A    between atoms: C_6  and  C_7
REMARK    4  A    between atoms: C_7  and  C_8
REMARK    5  A    between atoms: C_8  and  C_9
REMARK    6  A    between atoms: C_13  and  C_14
REMARK                            x       y       z     vdW  Elec       q    Type
REMARK                         _______ _______ _______ _____ _____    ______ ____
ROOT
ATOM      1  C   UNL     1      44.723   5.254  11.773  0.00  0.00    +0.000 C 
ENDROOT
BRANCH   1   2
ATOM      2  C   UNL     1      45.163   6.698  11.806  0.00  0.00    +0.000 A 
ATOM      3  C   UNL     1      44.301   7.729  11.419  0.00  0.00    +0.000 A 
ATOM      4  C   UNL     1      44.762   9.040  11.461  0.00  0.00    +0.000 A 
ATOM      5  N   UNL     1      46.001   9.393  11.865  0.00  0.00    +0.000 NA
ATOM      6  C   UNL     1      46.821   8.373  12.243  0.00  0.00    +0.000 A 
ATOM      7  C   UNL     1      46.451   7.034  12.234  0.00  0.00    +0.000 A 
BRANCH   6   8
ATOM      8  C   UNL     1      48.200   8.754  12.689  0.00  0.00    +0.000 C 
ATOM      9  N   UNL     1      48.475  10.095  12.657  0.00  0.00    +0.000 N 
ATOM     10  O   UNL     1      49.030   7.934  13.056  0.00  0.00    +0.000 OA
ATOM     11  H   UNL     1      47.758  10.741  12.341  0.00  0.00    +0.000 HD
ATOM     12  H   UNL     1      49.383  10.427  12.942  0.00  0.00    +0.000 HD
ENDBRANCH   6   8
ENDBRANCH   1   2
BRANCH   1  13
ATOM     13  C   UNL     1      44.074   4.871  10.437  0.00  0.00    +0.000 C 
BRANCH  13  17
ATOM     14  C   UNL     1      46.335   2.400   7.664  0.00  0.00    +0.000 A 
ATOM     15  C   UNL     1      45.587   1.806   8.687  0.00  0.00    +0.000 A 
ATOM     16  C   UNL     1      44.873   2.586   9.602  0.00  0.00    +0.000 A 
ATOM     17  C   UNL     1      44.903   3.985   9.531  0.00  0.00    +0.000 A 
ATOM     18  C   UNL     1      45.661   4.577   8.510  0.00  0.00    +0.000 A 
ATOM     19  C   UNL     1      46.374   3.797   7.591  0.00  0.00    +0.000 A 
BRANCH  14  20
ATOM     20  C   UNL     1      47.072   1.550   6.660  0.00  0.00    +0.000 C 
BRANCH  20  21
ATOM     21  N   UNL     1      48.461   1.974   6.520  0.00  0.00    +0.000 NA
ATOM     22  H   UNL     1      49.012   1.201   6.155  0.00  0.00    +0.000 HD
ATOM     23  H   UNL     1      48.833   2.183   7.445  0.00  0.00    +0.000 HD
ENDBRANCH  20  21
ENDBRANCH  14  20
ENDBRANCH  13  17
ENDBRANCH   1  13
TORSDOF 6
ENDMDL
MODEL 8
REMARK VINA RESULT:    -5.749      3.463      5.254
REMARK INTER + INTRA:          -8.258
REMARK INTER:                  -7.777
REMARK INTRA:                  -0.481
REMARK UNBOUND:                -0.661
REMARK  Name = 
REMARK  6 active torsions:
REMARK  status: ('A' for Active; 'I' for Inactive)
REMARK    1  A    between atoms: N_1  and  C_2
REMARK    2  A    between atoms: C_2  and  C_3
REMARK    3  A    between atoms: C_6  and  C_7
REMARK    4  A    between atoms: C_7  and  C_8
REMARK    5  A    between atoms: C_8  and  C_9
REMARK    6  A    between atoms: C_13  and  C_14
REMARK                            x       y       z     vdW  Elec       q    Type
REMARK                         _______ _______ _______ _____ _____    ______ ____
ROOT
ATOM      1  C   UNL     1      48.501   6.644  13.876  0.00  0.00    +0.000 C 
ENDROOT
BRANCH   1   2
ATOM      2  C   UNL     1      48.525   6.381  15.363  0.00  0.00    +0.000 A 
ATOM      3  C   UNL     1      49.014   7.334  16.262  0.00  0.00    +0.000 A 
ATOM      4  C   UNL     1      49.021   7.034  17.619  0.00  0.00    +0.000 A 
ATOM      5  N   UNL     1      48.573   5.872  18.139  0.00  0.00    +0.000 NA
ATOM      6  C   UNL     1      48.096   4.960  17.246  0.00  0.00    +0.000 A 
ATOM      7  C   UNL     1      48.050   5.169  15.873  0.00  0.00    +0.000 A 
BRANCH   6   8
ATOM      8  C   UNL     1      47.600   3.665  17.812  0.00  0.00    +0.000 C 
ATOM      9  N   UNL     1      48.312   3.182  18.877  0.00  0.00    +0.000 N 
ATOM     10  O   UNL     1      46.630   3.071  17.362  0.00  0.00    +0.000 OA
ATOM     11  H   UNL     1      49.114   3.705  19.216  0.00  0.00    +0.000 HD
ATOM     12  H   UNL     1      48.038   2.315  19.311  0.00  0.00    +0.000 HD
ENDBRANCH   6   8
ENDBRANCH   1   2
BRANCH   1  13
ATOM     13  C   UNL     1      47.100   7.011  13.371  0.00  0.00    +0.000 C 
BRANCH  13  17
ATOM     14  C   UNL     1      44.778   3.994  11.270  0.00  0.00    +0.000 A 
ATOM     15  C   UNL     1      45.185   3.775  12.591  0.00  0.00    +0.000 A 
ATOM     16  C   UNL     1      45.953   4.724  13.274  0.00  0.00    +0.000 A 
ATOM     17  C   UNL     1      46.350   5.912  12.647  0.00  0.00    +0.000 A 
ATOM     18  C   UNL     1      45.949   6.124  11.320  0.00  0.00    +0.000 A 
ATOM     19  C   UNL     1      45.177   5.176  10.636  0.00  0.00    +0.000 A 
BRANCH  14  20
ATOM     20  C   UNL     1      43.920   2.982  10.554  0.00  0.00    +0.000 C 
BRANCH  20  21
ATOM     21  N   UNL     1      43.096   2.224  11.490  0.00  0.00    +0.000 NA
ATOM     22  H   UNL     1      42.215   2.713  11.633  0.00  0.00    +0.000 HD
ATOM     23  H   UNL     1      43.565   2.202  12.394  0.00  0.00    +0.000 HD
ENDBRANCH  20  21
ENDBRANCH  14  20
ENDBRANCH  13  17
ENDBRANCH   1  13
TORSDOF 6
ENDMDL
MODEL 9
REMARK VINA RESULT:    -5.545      3.563      6.571
REMARK INTER + INTRA:          -7.989
REMARK INTER:                  -7.404
REMARK INTRA:                  -0.585
REMARK UNBOUND:                -0.661
REMARK  Name = 
REMARK  6 active torsions:
REMARK  status: ('A' for Active; 'I' for Inactive)
REMARK    1  A    between atoms: N_1  and  C_2
REMARK    2  A    between atoms: C_2  and  C_3
REMARK    3  A    between atoms: C_6  and  C_7
REMARK    4  A    between atoms: C_7  and  C_8
REMARK    5  A    between atoms: C_8  and  C_9
REMARK    6  A    between atoms: C_13  and  C_14
REMARK                            x       y       z     vdW  Elec       q    Type
REMARK                         _______ _______ _______ _____ _____    ______ ____
ROOT
ATOM      1  C   UNL     1      45.255   5.843  13.154  0.00  0.00    +0.000 C 
ENDROOT
BRANCH   1   2
ATOM      2  C   UNL     1      44.736   4.845  12.145  0.00  0.00    +0.000 A 
ATOM      3  C   UNL     1      43.833   3.843  12.513  0.00  0.00    +0.000 A 
ATOM      4  C   UNL     1      43.394   2.948  11.546  0.00  0.00    +0.000 A 
ATOM      5  N   UNL     1      43.779   2.984  10.252  0.00  0.00    +0.000 NA
ATOM      6  C   UNL     1      44.655   3.971   9.914  0.00  0.00    +0.000 A 
ATOM      7  C   UNL     1      45.149   4.911  10.811  0.00  0.00    +0.000 A 
BRANCH   6   8
ATOM      8  C   UNL     1      45.092   4.018   8.482  0.00  0.00    +0.000 C 
ATOM      9  N   UNL     1      44.464   3.130   7.650  0.00  0.00    +0.000 N 
ATOM     10  O   UNL     1      45.949   4.789   8.074  0.00  0.00    +0.000 OA
ATOM     11  H   UNL     1      43.761   2.505   8.032  0.00  0.00    +0.000 HD
ATOM     12  H   UNL     1      44.706   3.103   6.673  0.00  0.00    +0.000 HD
ENDBRANCH   6   8
ENDBRANCH   1   2
BRANCH   1  13
ATOM     13  C   UNL     1      46.666   5.495  13.646  0.00  0.00    +0.000 C 
BRANCH  13  17
ATOM     14  C   UNL     1      49.859   8.207  12.482  0.00  0.00    +0.000 A 
ATOM     15  C   UNL     1      49.799   7.711  13.790  0.00  0.00    +0.000 A 
ATOM     16  C   UNL     1      48.766   6.856  14.188  0.00  0.00    +0.000 A 
ATOM     17  C   UNL     1      47.752   6.489  13.293  0.00  0.00    +0.000 A 
ATOM     18  C   UNL     1      47.810   6.997  11.987  0.00  0.00    +0.000 A 
ATOM     19  C   UNL     1      48.845   7.850  11.586  0.00  0.00    +0.000 A 
BRANCH  14  20
ATOM     20  C   UNL     1      50.996   9.098  12.052  0.00  0.00    +0.000 C 
BRANCH  20  21
ATOM     21  N   UNL     1      52.131   8.994  12.965  0.00  0.00    +0.000 NA
ATOM     22  H   UNL     1      52.564   9.909  13.066  0.00  0.00    +0.000 HD
ATOM     23  H   UNL     1      52.832   8.386  12.545  0.00  0.00    +0.000 HD
ENDBRANCH  20  21
ENDBRANCH  14  20
ENDBRANCH  13  17
ENDBRANCH   1  13
TORSDOF 6
ENDMDL
