MODEL 1
REMARK VINA RESULT:    -7.941      0.000      0.000
REMARK INTER + INTRA:         -10.298
REMARK INTER:                  -9.797
REMARK INTRA:                  -0.500
REMARK UNBOUND:                -0.500
REMARK  Name = 
REMARK  5 active torsions:
REMARK  status: ('A' for Active; 'I' for Inactive)
REMARK    1  A    between atoms: C_1  and  C_2
REMARK    2  A    between atoms: C_4  and  C_5
REMARK    3  A    between atoms: N_10  and  C_11
REMARK    4  A    between atoms: C_11  and  C_12
REMARK    5  A    between atoms: C_17  and  N_18
REMARK                            x       y       z     vdW  Elec       q    Type
REMARK                         _______ _______ _______ _____ _____    ______ ____
ROOT
ATOM      1  C   UNL     1      49.898   1.395  16.907  0.00  0.00    +0.000 C 
ATOM      2  C   UNL     1      48.969   2.566  16.802  0.00  0.00    +0.000 A 
ATOM      3  C   UNL     1      48.784   3.425  17.851  0.00  0.00    +0.000 A 
ATOM      4  C   UNL     1      47.896   4.451  17.618  0.00  0.00    +0.000 A 
ATOM      5  N   UNL     1      47.224   4.640  16.454  0.00  0.00    +0.000 NA
ATOM      6  C   UNL     1      47.468   3.746  15.491  0.00  0.00    +0.000 A 
ATOM      7  N   UNL     1      46.803   3.786  14.285  0.00  0.00    +0.000 N 
ATOM      8  N   UNL     1      48.321   2.722  15.626  0.00  0.00    +0.000 NA
ATOM      9  H   UNL     1      47.303   3.192  13.634  0.00  0.00    +0.000 HD
ENDROOT
BRANCH   4  10
ATOM     10  C   UNL     1      47.638   5.438  18.711  0.00  0.00    +0.000 C 
ATOM     11  N   UNL     1      46.329   5.793  18.892  0.00  0.00    +0.000 N 
ATOM     12  O   UNL     1      48.531   5.900  19.411  0.00  0.00    +0.000 OA
ATOM     13  H   UNL     1      45.605   5.332  18.353  0.00  0.00    +0.000 HD
ATOM     14  H   UNL     1      46.086   6.407  19.657  0.00  0.00    +0.000 HD
ENDBRANCH   4  10
BRANCH   7  15
ATOM     15  C   UNL     1      46.320   5.041  13.768  0.00  0.00    +0.000 C 
BRANCH  15  16
ATOM     16  C   UNL     1      45.230   4.850  12.741  0.00  0.00    +0.000 A 
ATOM     17  C   UNL     1      43.928   5.308  12.950  0.00  0.00    +0.000 A 
ATOM     18  C   UNL     1      42.973   5.134  11.956  0.00  0.00    +0.000 A 
ATOM     19  F   UNL     1      41.728   5.592  12.152  0.00  0.00    +0.000 F 
ATOM     20  C   UNL     1      43.288   4.515  10.748  0.00  0.00    +0.000 A 
ATOM     21  C   UNL     1      44.580   4.042  10.497  0.00  0.00    +0.000 A 
ATOM     22  C   UNL     1      45.525   4.206  11.527  0.00  0.00    +0.000 A 
BRANCH  21  23
ATOM     23  N   UNL     1      44.928   3.432   9.313  0.00  0.00    +0.000 N 
ATOM     24  C   UNL     1      44.738   1.999   9.051  0.00  0.00    +0.000 C 
ATOM     25  C   UNL     1      46.020   1.442   8.405  0.00  0.00    +0.000 C 
ATOM     26  O   UNL     1      46.396   2.177   7.225  0.00  0.00    +0.000 OA
ATOM     27  C   UNL     1      46.606   3.565   7.543  0.00  0.00    +0.000 C 
ATOM     28  C   UNL     1      45.335   4.196   8.124  0.00  0.00    +0.000 C 
ENDBRANCH  21  23
ENDBRANCH  15  16
ENDBRANCH   7  15
TORSDOF 4
ENDMDL
MODEL 2
REMARK VINA RESULT:    -7.658      2.845      3.878
REMARK INTER + INTRA:          -9.949
REMARK INTER:                  -9.112
REMARK INTRA:                  -0.837
REMARK UNBOUND:                -0.500
REMARK  Name = 
REMARK  5 active torsions:
REMARK  status: ('A' for Active; 'I' for Inactive)
REMARK    1  A    between atoms: C_1  and  C_2
REMARK    2  A    between atoms: C_4  and  C_5
REMARK    3  A    between atoms: N_10  and  C_11
REMARK    4  A    between atoms: C_11  and  C_12
REMARK    5  A    between atoms: C_17  and  N_18
REMARK                            x       y       z     vdW  Elec       q    Type
REMARK                         _______ _______ _______ _____ _____    ______ ____
ROOT
ATOM      1  C   UNL     1      48.150   7.679  18.973  0.00  0.00    +0.000 C 
ATOM      2  C   UNL     1      48.252   6.792  17.770  0.00  0.00    +0.000 A 
ATOM      3  C   UNL     1      47.997   5.449  17.853  0.00  0.00    +0.000 A 
ATOM      4  C   UNL     1      48.137   4.754  16.673  0.00  0.00    +0.000 A 
ATOM      5  N   UNL     1      48.502   5.308  15.488  0.00  0.00    +0.000 NA
ATOM      6  C   UNL     1      48.733   6.624  15.511  0.00  0.00    +0.000 A 
ATOM      7  N   UNL     1      49.173   7.298  14.393  0.00  0.00    +0.000 N 
ATOM      8  N   UNL     1      48.614   7.382  16.610  0.00  0.00    +0.000 NA
ATOM      9  H   UNL     1      49.048   8.290  14.557  0.00  0.00    +0.000 HD
ENDROOT
BRANCH   4  10
ATOM     10  C   UNL     1      47.874   3.282  16.672  0.00  0.00    +0.000 C 
ATOM     11  N   UNL     1      47.018   2.832  17.641  0.00  0.00    +0.000 N 
ATOM     12  O   UNL     1      48.380   2.518  15.859  0.00  0.00    +0.000 OA
ATOM     13  H   UNL     1      46.552   3.498  18.246  0.00  0.00    +0.000 HD
ATOM     14  H   UNL     1      46.752   1.857  17.650  0.00  0.00    +0.000 HD
ENDBRANCH   4  10
BRANCH   7  15
ATOM     15  C   UNL     1      48.830   6.817  13.078  0.00  0.00    +0.000 C 
BRANCH  15  16
ATOM     16  C   UNL     1      47.395   7.121  12.719  0.00  0.00    +0.000 A 
ATOM     17  C   UNL     1      46.889   8.422  12.735  0.00  0.00    +0.000 A 
ATOM     18  C   UNL     1      45.569   8.647  12.364  0.00  0.00    +0.000 A 
ATOM     19  F   UNL     1      45.090   9.899  12.362  0.00  0.00    +0.000 F 
ATOM     20  C   UNL     1      44.739   7.601  11.967  0.00  0.00    +0.000 A 
ATOM     21  C   UNL     1      45.206   6.283  11.935  0.00  0.00    +0.000 A 
ATOM     22  C   UNL     1      46.537   6.074  12.340  0.00  0.00    +0.000 A 
BRANCH  21  23
ATOM     23  N   UNL     1      44.416   5.227  11.543  0.00  0.00    +0.000 N 
ATOM     24  C   UNL     1      43.346   4.659  12.375  0.00  0.00    +0.000 C 
ATOM     25  C   UNL     1      43.456   3.123  12.337  0.00  0.00    +0.000 C 
ATOM     26  O   UNL     1      43.443   2.612  10.991  0.00  0.00    +0.000 OA
ATOM     27  C   UNL     1      44.530   3.170  10.230  0.00  0.00    +0.000 C 
ATOM     28  C   UNL     1      44.433   4.699  10.169  0.00  0.00    +0.000 C 
ENDBRANCH  21  23
ENDBRANCH  15  16
ENDBRANCH   7  15
TORSDOF 4
ENDMDL
MODEL 3
REMARK VINA RESULT:    -7.412      1.742      2.168
REMARK INTER + INTRA:          -9.645
REMARK INTER:                  -9.148
REMARK INTRA:                  -0.497
REMARK UNBOUND:                -0.500
REMARK  Name = 
REMARK  5 active torsions:
REMARK  status: ('A' for Active; 'I' for Inactive)
REMARK    1  A    between atoms: C_1  and  C_2
REMARK    2  A    between atoms: C_4  and  C_5
REMARK    3  A    between atoms: N_10  and  C_11
REMARK    4  A    between atoms: C_11  and  C_12
REMARK    5  A    between atoms: C_17  and  N_18
REMARK                            x       y       z     vdW  Elec       q    Type
REMARK                         _______ _______ _______ _____ _____    ______ ____
ROOT
ATOM      1  C   UNL     1      50.480   8.052  15.250  0.00  0.00    +0.000 C 
ATOM      2  C   UNL     1      49.609   6.870  15.548  0.00  0.00    +0.000 A 
ATOM      3  C   UNL     1      49.700   6.202  16.740  0.00  0.00    +0.000 A 
ATOM      4  C   UNL     1      48.847   5.131  16.876  0.00  0.00    +0.000 A 
ATOM      5  N   UNL     1      47.963   4.722  15.930  0.00  0.00    +0.000 NA
ATOM      6  C   UNL     1      47.952   5.436  14.800  0.00  0.00    +0.000 A 
ATOM      7  N   UNL     1      47.150   5.088  13.735  0.00  0.00    +0.000 N 
ATOM      8  N   UNL     1      48.741   6.497  14.582  0.00  0.00    +0.000 NA
ATOM      9  H   UNL     1      47.114   5.877  13.101  0.00  0.00    +0.000 HD
ENDROOT
BRANCH   4  10
ATOM     10  C   UNL     1      48.878   4.347  18.149  0.00  0.00    +0.000 C 
ATOM     11  N   UNL     1      47.700   3.745  18.503  0.00  0.00    +0.000 N 
ATOM     12  O   UNL     1      49.887   4.236  18.835  0.00  0.00    +0.000 OA
ATOM     13  H   UNL     1      46.907   3.786  17.874  0.00  0.00    +0.000 HD
ATOM     14  H   UNL     1      47.678   3.149  19.319  0.00  0.00    +0.000 HD
ENDBRANCH   4  10
BRANCH   7  15
ATOM     15  C   UNL     1      45.910   4.390  13.963  0.00  0.00    +0.000 C 
BRANCH  15  16
ATOM     16  C   UNL     1      44.970   4.505  12.787  0.00  0.00    +0.000 A 
ATOM     17  C   UNL     1      43.784   5.238  12.859  0.00  0.00    +0.000 A 
ATOM     18  C   UNL     1      42.973   5.338  11.735  0.00  0.00    +0.000 A 
ATOM     19  F   UNL     1      41.844   6.058  11.801  0.00  0.00    +0.000 F 
ATOM     20  C   UNL     1      43.320   4.726  10.533  0.00  0.00    +0.000 A 
ATOM     21  C   UNL     1      44.499   3.984  10.417  0.00  0.00    +0.000 A 
ATOM     22  C   UNL     1      45.293   3.874  11.574  0.00  0.00    +0.000 A 
BRANCH  21  23
ATOM     23  N   UNL     1      44.877   3.371   9.244  0.00  0.00    +0.000 N 
ATOM     24  C   UNL     1      44.798   1.921   9.023  0.00  0.00    +0.000 C 
ATOM     25  C   UNL     1      46.111   1.451   8.368  0.00  0.00    +0.000 C 
ATOM     26  O   UNL     1      46.408   2.181   7.164  0.00  0.00    +0.000 OA
ATOM     27  C   UNL     1      46.511   3.590   7.441  0.00  0.00    +0.000 C 
ATOM     28  C   UNL     1      45.202   4.133   8.028  0.00  0.00    +0.000 C 
ENDBRANCH  21  23
ENDBRANCH  15  16
ENDBRANCH   7  15
TORSDOF 4
ENDMDL
MODEL 4
REMARK VINA RESULT:    -7.407      3.038      7.660
REMARK INTER + INTRA:          -9.639
REMARK INTER:                  -8.827
REMARK INTRA:                  -0.812
REMARK UNBOUND:                -0.500
REMARK  Name = 
REMARK  5 active torsions:
REMARK  status: ('A' for Active; 'I' for Inactive)
REMARK    1  A    between atoms: C_1  and  C_2
REMARK    2  A    between atoms: C_4  and  C_5
REMARK    3  A    between atoms: N_10  and  C_11
REMARK    4  A    between atoms: C_11  and  C_12
REMARK    5  A    between atoms: C_17  and  N_18
REMARK                            x       y       z     vdW  Elec       q    Type
REMARK                         _______ _______ _______ _____ _____    ______ ____
ROOT
ATOM      1  C   UNL     1      46.017   2.918   7.515  0.00  0.00    +0.000 C 
ATOM      2  C   UNL     1      45.440   3.467   8.784  0.00  0.00    +0.000 A 
ATOM      3  C   UNL     1      44.730   2.674   9.645  0.00  0.00    +0.000 A 
ATOM      4  C   UNL     1      44.250   3.312  10.766  0.00  0.00    +0.000 A 
ATOM      5  N   UNL     1      44.435   4.628  11.045  0.00  0.00    +0.000 NA
ATOM      6  C   UNL     1      45.138   5.319  10.142  0.00  0.00    +0.000 A 
ATOM      7  N   UNL     1      45.341   6.675  10.271  0.00  0.00    +0.000 N 
ATOM      8  N   UNL     1      45.649   4.780   9.026  0.00  0.00    +0.000 NA
ATOM      9  H   UNL     1      46.082   6.941   9.633  0.00  0.00    +0.000 HD
ENDROOT
BRANCH   4  10
ATOM     10  C   UNL     1      43.467   2.518  11.762  0.00  0.00    +0.000 C 
ATOM     11  N   UNL     1      43.588   2.917  13.066  0.00  0.00    +0.000 N 
ATOM     12  O   UNL     1      42.753   1.574  11.444  0.00  0.00    +0.000 OA
ATOM     13  H   UNL     1      44.120   3.751  13.287  0.00  0.00    +0.000 HD
ATOM     14  H   UNL     1      43.032   2.460  13.775  0.00  0.00    +0.000 HD
ENDBRANCH   4  10
BRANCH   7  15
ATOM     15  C   UNL     1      45.373   7.279  11.580  0.00  0.00    +0.000 C 
BRANCH  15  16
ATOM     16  C   UNL     1      46.711   7.099  12.255  0.00  0.00    +0.000 A 
ATOM     17  C   UNL     1      47.888   7.620  11.714  0.00  0.00    +0.000 A 
ATOM     18  C   UNL     1      49.087   7.452  12.396  0.00  0.00    +0.000 A 
ATOM     19  F   UNL     1      50.213   7.969  11.884  0.00  0.00    +0.000 F 
ATOM     20  C   UNL     1      49.140   6.780  13.616  0.00  0.00    +0.000 A 
ATOM     21  C   UNL     1      47.985   6.246  14.194  0.00  0.00    +0.000 A 
ATOM     22  C   UNL     1      46.786   6.404  13.474  0.00  0.00    +0.000 A 
BRANCH  21  23
ATOM     23  N   UNL     1      48.000   5.582  15.399  0.00  0.00    +0.000 N 
ATOM     24  C   UNL     1      48.717   6.068  16.586  0.00  0.00    +0.000 C 
ATOM     25  C   UNL     1      49.484   4.890  17.215  0.00  0.00    +0.000 C 
ATOM     26  O   UNL     1      48.622   3.774  17.506  0.00  0.00    +0.000 OA
ATOM     27  C   UNL     1      47.974   3.314  16.306  0.00  0.00    +0.000 C 
ATOM     28  C   UNL     1      47.130   4.427  15.672  0.00  0.00    +0.000 C 
ENDBRANCH  21  23
ENDBRANCH  15  16
ENDBRANCH   7  15
TORSDOF 4
ENDMDL
MODEL 5
REMARK VINA RESULT:    -6.783      2.363      2.654
REMARK INTER + INTRA:          -8.870
REMARK INTER:                  -8.396
REMARK INTRA:                  -0.474
REMARK UNBOUND:                -0.500
REMARK  Name = 
REMARK  5 active torsions:
REMARK  status: ('A' for Active; 'I' for Inactive)
REMARK    1  A    between atoms: C_1  and  C_2
REMARK    2  A    between atoms: C_4  and  C_5
REMARK    3  A    between atoms: N_10  and  C_11
REMARK    4  A    between atoms: C_11  and  C_12
REMARK    5  A    between atoms: C_17  and  N_18
REMARK                            x       y       z     vdW  Elec       q    Type
REMARK                         _______ _______ _______ _____ _____    ______ ____
ROOT
ATOM      1  C   UNL     1      49.370   3.931  17.800  0.00  0.00    +0.000 C 
ATOM      2  C   UNL     1      49.247   4.977  16.734  0.00  0.00    +0.000 A 
ATOM      3  C   UNL     1      50.202   5.944  16.572  0.00  0.00    +0.000 A 
ATOM      4  C   UNL     1      49.957   6.845  15.561  0.00  0.00    +0.000 A 
ATOM      5  N   UNL     1      48.864   6.823  14.755  0.00  0.00    +0.000 NA
ATOM      6  C   UNL     1      47.987   5.843  14.994  0.00  0.00    +0.000 A 
ATOM      7  N   UNL     1      46.805   5.747  14.293  0.00  0.00    +0.000 N 
ATOM      8  N   UNL     1      48.146   4.919  15.952  0.00  0.00    +0.000 NA
ATOM      9  H   UNL     1      46.421   4.823  14.455  0.00  0.00    +0.000 HD
ENDROOT
BRANCH   4  10
ATOM     10  C   UNL     1      50.952   7.933  15.313  0.00  0.00    +0.000 C 
ATOM     11  N   UNL     1      51.360   8.078  14.014  0.00  0.00    +0.000 N 
ATOM     12  O   UNL     1      51.376   8.659  16.204  0.00  0.00    +0.000 OA
ATOM     13  H   UNL     1      50.930   7.518  13.288  0.00  0.00    +0.000 HD
ATOM     14  H   UNL     1      51.982   8.838  13.776  0.00  0.00    +0.000 HD
ENDBRANCH   4  10
BRANCH   7  15
ATOM     15  C   UNL     1      46.722   6.250  12.945  0.00  0.00    +0.000 C 
BRANCH  15  16
ATOM     16  C   UNL     1      45.565   5.647  12.185  0.00  0.00    +0.000 A 
ATOM     17  C   UNL     1      44.239   5.866  12.562  0.00  0.00    +0.000 A 
ATOM     18  C   UNL     1      43.212   5.313  11.807  0.00  0.00    +0.000 A 
ATOM     19  F   UNL     1      41.939   5.540  12.160  0.00  0.00    +0.000 F 
ATOM     20  C   UNL     1      43.478   4.547  10.673  0.00  0.00    +0.000 A 
ATOM     21  C   UNL     1      44.791   4.304  10.259  0.00  0.00    +0.000 A 
ATOM     22  C   UNL     1      45.815   4.852  11.053  0.00  0.00    +0.000 A 
BRANCH  21  23
ATOM     23  N   UNL     1      45.089   3.559   9.142  0.00  0.00    +0.000 N 
ATOM     24  C   UNL     1      44.811   2.121   9.026  0.00  0.00    +0.000 C 
ATOM     25  C   UNL     1      46.051   1.425   8.433  0.00  0.00    +0.000 C 
ATOM     26  O   UNL     1      46.458   2.014   7.185  0.00  0.00    +0.000 OA
ATOM     27  C   UNL     1      46.754   3.412   7.360  0.00  0.00    +0.000 C 
ATOM     28  C   UNL     1      45.529   4.174   7.879  0.00  0.00    +0.000 C 
ENDBRANCH  21  23
ENDBRANCH  15  16
ENDBRANCH   7  15
TORSDOF 4
ENDMDL
MODEL 6
REMARK VINA RESULT:    -6.556      3.161      3.715
REMARK INTER + INTRA:          -8.589
REMARK INTER:                  -8.097
REMARK INTRA:                  -0.492
REMARK UNBOUND:                -0.500
REMARK  Name = 
REMARK  5 active torsions:
REMARK  status: ('A' for Active; 'I' for Inactive)
REMARK    1  A    between atoms: C_1  and  C_2
REMARK    2  A    between atoms: C_4  and  C_5
REMARK    3  A    between atoms: N_10  and  C_11
REMARK    4  A    between atoms: C_11  and  C_12
REMARK    5  A    between atoms: C_17  and  N_18
REMARK                            x       y       z     vdW  Elec       q    Type
REMARK                         _______ _______ _______ _____ _____    ______ ____
ROOT
ATOM      1  C   UNL     1      49.182   3.638  18.560  0.00  0.00    +0.000 C 
ATOM      2  C   UNL     1      49.571   4.686  17.563  0.00  0.00    +0.000 A 
ATOM      3  C   UNL     1      50.826   5.234  17.558  0.00  0.00    +0.000 A 
ATOM      4  C   UNL     1      51.043   6.191  16.593  0.00  0.00    +0.000 A 
ATOM      5  N   UNL     1      50.115   6.602  15.691  0.00  0.00    +0.000 NA
ATOM      6  C   UNL     1      48.919   6.012  15.779  0.00  0.00    +0.000 A 
ATOM      7  N   UNL     1      47.870   6.383  14.967  0.00  0.00    +0.000 N 
ATOM      8  N   UNL     1      48.621   5.066  16.680  0.00  0.00    +0.000 NA
ATOM      9  H   UNL     1      47.159   5.664  15.027  0.00  0.00    +0.000 HD
ENDROOT
BRANCH   4  10
ATOM     10  C   UNL     1      52.388   6.838  16.515  0.00  0.00    +0.000 C 
ATOM     11  N   UNL     1      52.897   6.998  15.254  0.00  0.00    +0.000 N 
ATOM     12  O   UNL     1      53.003   7.212  17.507  0.00  0.00    +0.000 OA
ATOM     13  H   UNL     1      52.330   6.754  14.450  0.00  0.00    +0.000 HD
ATOM     14  H   UNL     1      53.773   7.487  15.134  0.00  0.00    +0.000 HD
ENDBRANCH   4  10
BRANCH   7  15
ATOM     15  C   UNL     1      48.128   6.921  13.655  0.00  0.00    +0.000 C 
BRANCH  15  16
ATOM     16  C   UNL     1      46.857   7.137  12.870  0.00  0.00    +0.000 A 
ATOM     17  C   UNL     1      46.333   8.412  12.648  0.00  0.00    +0.000 A 
ATOM     18  C   UNL     1      45.177   8.555  11.891  0.00  0.00    +0.000 A 
ATOM     19  F   UNL     1      44.686   9.781  11.664  0.00  0.00    +0.000 F 
ATOM     20  C   UNL     1      44.530   7.450  11.339  0.00  0.00    +0.000 A 
ATOM     21  C   UNL     1      45.022   6.156  11.535  0.00  0.00    +0.000 A 
ATOM     22  C   UNL     1      46.179   6.032  12.327  0.00  0.00    +0.000 A 
BRANCH  21  23
ATOM     23  N   UNL     1      44.413   5.044  11.001  0.00  0.00    +0.000 N 
ATOM     24  C   UNL     1      43.181   4.453  11.541  0.00  0.00    +0.000 C 
ATOM     25  C   UNL     1      43.359   2.925  11.616  0.00  0.00    +0.000 C 
ATOM     26  O   UNL     1      43.736   2.360  10.347  0.00  0.00    +0.000 OA
ATOM     27  C   UNL     1      44.965   2.944   9.880  0.00  0.00    +0.000 C 
ATOM     28  C   UNL     1      44.826   4.462   9.714  0.00  0.00    +0.000 C 
ENDBRANCH  21  23
ENDBRANCH  15  16
ENDBRANCH   7  15
TORSDOF 4
ENDMDL
MODEL 7
REMARK VINA RESULT:    -6.366      2.138      2.862
REMARK INTER + INTRA:          -8.354
REMARK INTER:                  -7.807
REMARK INTRA:                  -0.547
REMARK UNBOUND:                -0.500
REMARK  Name = 
REMARK  5 active torsions:
REMARK  status: ('A' for Active; 'I' for Inactive)
REMARK    1  A    between atoms: C_1  and  C_2
REMARK    2  A    between atoms: C_4  and  C_5
REMARK    3  A    between atoms: N_10  and  C_11
REMARK    4  A    between atoms: C_11  and  C_12
REMARK    5  A    between atoms: C_17  and  N_18
REMARK                            x       y       z     vdW  Elec       q    Type
REMARK                         _______ _______ _______ _____ _____    ______ ____
ROOT
ATOM      1  C   UNL     1      48.428   4.836  20.405  0.00  0.00    +0.000 C 
ATOM      2  C   UNL     1      48.658   5.027  18.937  0.00  0.00    +0.000 A 
ATOM      3  C   UNL     1      49.721   5.754  18.472  0.00  0.00    +0.000 A 
ATOM      4  C   UNL     1      49.806   5.854  17.102  0.00  0.00    +0.000 A 
ATOM      5  N   UNL     1      48.926   5.297  16.230  0.00  0.00    +0.000 NA
ATOM      6  C   UNL     1      47.920   4.611  16.781  0.00  0.00    +0.000 A 
ATOM      7  N   UNL     1      46.923   4.051  16.013  0.00  0.00    +0.000 N 
ATOM      8  N   UNL     1      47.763   4.454  18.103  0.00  0.00    +0.000 NA
ATOM      9  H   UNL     1      46.419   3.389  16.591  0.00  0.00    +0.000 HD
ENDROOT
BRANCH   4  10
ATOM     10  C   UNL     1      50.939   6.628  16.508  0.00  0.00    +0.000 C 
ATOM     11  N   UNL     1      50.775   7.017  15.206  0.00  0.00    +0.000 N 
ATOM     12  O   UNL     1      51.952   6.909  17.138  0.00  0.00    +0.000 OA
ATOM     13  H   UNL     1      49.893   6.841  14.738  0.00  0.00    +0.000 HD
ATOM     14  H   UNL     1      51.479   7.597  14.772  0.00  0.00    +0.000 HD
ENDBRANCH   4  10
BRANCH   7  15
ATOM     15  C   UNL     1      47.199   3.641  14.659  0.00  0.00    +0.000 C 
BRANCH  15  16
ATOM     16  C   UNL     1      46.497   4.515  13.647  0.00  0.00    +0.000 A 
ATOM     17  C   UNL     1      46.331   5.887  13.845  0.00  0.00    +0.000 A 
ATOM     18  C   UNL     1      45.706   6.649  12.866  0.00  0.00    +0.000 A 
ATOM     19  F   UNL     1      45.565   7.970  13.050  0.00  0.00    +0.000 F 
ATOM     20  C   UNL     1      45.246   6.074  11.683  0.00  0.00    +0.000 A 
ATOM     21  C   UNL     1      45.394   4.704  11.443  0.00  0.00    +0.000 A 
ATOM     22  C   UNL     1      46.006   3.947  12.460  0.00  0.00    +0.000 A 
BRANCH  21  23
ATOM     23  N   UNL     1      44.957   4.104  10.285  0.00  0.00    +0.000 N 
ATOM     24  C   UNL     1      44.148   2.877  10.260  0.00  0.00    +0.000 C 
ATOM     25  C   UNL     1      44.728   1.927   9.195  0.00  0.00    +0.000 C 
ATOM     26  O   UNL     1      44.825   2.554   7.904  0.00  0.00    +0.000 OA
ATOM     27  C   UNL     1      45.656   3.727   7.975  0.00  0.00    +0.000 C 
ATOM     28  C   UNL     1      45.087   4.747   8.968  0.00  0.00    +0.000 C 
ENDBRANCH  21  23
ENDBRANCH  15  16
ENDBRANCH   7  15
TORSDOF 4
ENDMDL
MODEL 8
REMARK VINA RESULT:    -6.338      4.024      8.861
REMARK INTER + INTRA:          -8.321
REMARK INTER:                  -7.663
REMARK INTRA:                  -0.657
REMARK UNBOUND:                -0.500
REMARK  Name = 
REMARK  5 active torsions:
REMARK  status: ('A' for Active; 'I' for Inactive)
REMARK    1  A    between atoms: C_1  and  C_2
REMARK    2  A    between atoms: C_4  and  C_5
REMARK    3  A    between atoms: N_10  and  C_11
REMARK    4  A    between atoms: C_11  and  C_12
REMARK    5  A    between atoms: C_17  and  N_18
REMARK                            x       y       z     vdW  Elec       q    Type
REMARK                         _______ _______ _______ _____ _____    ______ ____
ROOT
ATOM      1  C   UNL     1      44.758   3.677  11.139  0.00  0.00    +0.000 C 
ATOM      2  C   UNL     1      45.559   4.424  12.160  0.00  0.00    +0.000 A 
ATOM      3  C   UNL     1      45.879   5.744  11.989  0.00  0.00    +0.000 A 
ATOM      4  C   UNL     1      46.626   6.301  13.001  0.00  0.00    +0.000 A 
ATOM      5  N   UNL     1      47.045   5.636  14.108  0.00  0.00    +0.000 NA
ATOM      6  C   UNL     1      46.687   4.351  14.182  0.00  0.00    +0.000 A 
ATOM      7  N   UNL     1      47.101   3.545  15.220  0.00  0.00    +0.000 N 
ATOM      8  N   UNL     1      45.954   3.727  13.249  0.00  0.00    +0.000 NA
ATOM      9  H   UNL     1      46.531   2.708  15.212  0.00  0.00    +0.000 HD
ENDROOT
BRANCH   4  10
ATOM     10  C   UNL     1      47.017   7.741  12.896  0.00  0.00    +0.000 C 
ATOM     11  N   UNL     1      46.677   8.527  13.963  0.00  0.00    +0.000 N 
ATOM     12  O   UNL     1      47.609   8.198  11.925  0.00  0.00    +0.000 OA
ATOM     13  H   UNL     1      46.262   8.104  14.785  0.00  0.00    +0.000 HD
ATOM     14  H   UNL     1      46.971   9.494  13.977  0.00  0.00    +0.000 HD
ENDBRANCH   4  10
BRANCH   7  15
ATOM     15  C   UNL     1      47.381   4.119  16.513  0.00  0.00    +0.000 C 
BRANCH  15  16
ATOM     16  C   UNL     1      48.791   3.832  16.968  0.00  0.00    +0.000 A 
ATOM     17  C   UNL     1      49.306   2.535  17.007  0.00  0.00    +0.000 A 
ATOM     18  C   UNL     1      50.622   2.333  17.403  0.00  0.00    +0.000 A 
ATOM     19  F   UNL     1      51.120   1.088  17.422  0.00  0.00    +0.000 F 
ATOM     20  C   UNL     1      51.445   3.401  17.757  0.00  0.00    +0.000 A 
ATOM     21  C   UNL     1      50.971   4.715  17.729  0.00  0.00    +0.000 A 
ATOM     22  C   UNL     1      49.628   4.895  17.351  0.00  0.00    +0.000 A 
BRANCH  21  23
ATOM     23  N   UNL     1      51.757   5.793  18.066  0.00  0.00    +0.000 N 
ATOM     24  C   UNL     1      52.975   5.688  18.881  0.00  0.00    +0.000 C 
ATOM     25  C   UNL     1      52.959   6.809  19.937  0.00  0.00    +0.000 C 
ATOM     26  O   UNL     1      52.799   8.111  19.344  0.00  0.00    +0.000 OA
ATOM     27  C   UNL     1      51.575   8.173  18.589  0.00  0.00    +0.000 C 
ATOM     28  C   UNL     1      51.564   7.125  17.470  0.00  0.00    +0.000 C 
ENDBRANCH  21  23
ENDBRANCH  15  16
ENDBRANCH   7  15
TORSDOF 4
ENDMDL
MODEL 9
REMARK VINA RESULT:    -6.302      3.599      4.825
REMARK INTER + INTRA:          -8.275
REMARK INTER:                  -7.529
REMARK INTRA:                  -0.746
REMARK UNBOUND:                -0.500
REMARK  Name = 
REMARK  5 active torsions:
REMARK  status: ('A' for Active; 'I' for Inactive)
REMARK    1  A    between atoms: C_1  and  C_2
REMARK    2  A    between atoms: C_4  and  C_5
REMARK    3  A    between atoms: N_10  and  C_11
REMARK    4  A    between atoms: C_11  and  C_12
REMARK    5  A    between atoms: C_17  and  N_18
REMARK                            x       y       z     vdW  Elec       q    Type
REMARK                         _______ _______ _______ _____ _____    ______ ____
ROOT
ATOM      1  C   UNL     1      47.151   2.521  17.765  0.00  0.00    +0.000 C 
ATOM      2  C   UNL     1      48.269   3.484  17.508  0.00  0.00    +0.000 A 
ATOM      3  C   UNL     1      49.569   3.158  17.791  0.00  0.00    +0.000 A 
ATOM      4  C   UNL     1      50.492   4.140  17.513  0.00  0.00    +0.000 A 
ATOM      5  N   UNL     1      50.191   5.361  17.001  0.00  0.00    +0.000 NA
ATOM      6  C   UNL     1      48.895   5.586  16.763  0.00  0.00    +0.000 A 
ATOM      7  N   UNL     1      48.447   6.805  16.305  0.00  0.00    +0.000 N 
ATOM      8  N   UNL     1      47.928   4.687  16.995  0.00  0.00    +0.000 NA
ATOM      9  H   UNL     1      47.500   6.683  15.967  0.00  0.00    +0.000 HD
ENDROOT
BRANCH   4  10
ATOM     10  C   UNL     1      51.936   3.865  17.788  0.00  0.00    +0.000 C 
ATOM     11  N   UNL     1      52.196   2.737  18.518  0.00  0.00    +0.000 N 
ATOM     12  O   UNL     1      52.837   4.592  17.386  0.00  0.00    +0.000 OA
ATOM     13  H   UNL     1      51.437   2.113  18.765  0.00  0.00    +0.000 HD
ATOM     14  H   UNL     1      53.156   2.465  18.680  0.00  0.00    +0.000 HD
ENDBRANCH   4  10
BRANCH   7  15
ATOM     15  C   UNL     1      49.311   7.639  15.507  0.00  0.00    +0.000 C 
BRANCH  15  16
ATOM     16  C   UNL     1      48.975   7.560  14.037  0.00  0.00    +0.000 A 
ATOM     17  C   UNL     1      49.895   7.916  13.049  0.00  0.00    +0.000 A 
ATOM     18  C   UNL     1      49.543   7.793  11.710  0.00  0.00    +0.000 A 
ATOM     19  F   UNL     1      50.434   8.118  10.763  0.00  0.00    +0.000 F 
ATOM     20  C   UNL     1      48.290   7.314  11.331  0.00  0.00    +0.000 A 
ATOM     21  C   UNL     1      47.340   6.944  12.287  0.00  0.00    +0.000 A 
ATOM     22  C   UNL     1      47.708   7.102  13.637  0.00  0.00    +0.000 A 
BRANCH  21  23
ATOM     23  N   UNL     1      46.097   6.461  11.949  0.00  0.00    +0.000 N 
ATOM     24  C   UNL     1      44.906   6.619  12.795  0.00  0.00    +0.000 C 
ATOM     25  C   UNL     1      44.165   5.270  12.858  0.00  0.00    +0.000 C 
ATOM     26  O   UNL     1      43.853   4.761  11.549  0.00  0.00    +0.000 OA
ATOM     27  C   UNL     1      45.054   4.590  10.776  0.00  0.00    +0.000 C 
ATOM     28  C   UNL     1      45.800   5.919  10.614  0.00  0.00    +0.000 C 
ENDBRANCH  21  23
ENDBRANCH  15  16
ENDBRANCH   7  15
TORSDOF 4
ENDMDL
