MODEL 1
REMARK VINA RESULT:    -7.379      0.000      0.000
REMARK INTER + INTRA:          -9.780
REMARK INTER:                  -9.320
REMARK INTRA:                  -0.460
REMARK UNBOUND:                -0.460
REMARK  Name = 
REMARK  5 active torsions:
REMARK  status: ('A' for Active; 'I' for Inactive)
REMARK    1  A    between atoms: N_1  and  C_2
REMARK    2  A    between atoms: C_2  and  C_3
REMARK    3  A    between atoms: C_3  and  C_4
REMARK    4  A    between atoms: C_7  and  C_8
REMARK    5  A    between atoms: C_8  and  N_9
REMARK                            x       y       z     vdW  Elec       q    Type
REMARK                         _______ _______ _______ _____ _____    ______ ____
ROOT
ATOM      1  C   UNL     1      46.132   2.313   7.750  0.00  0.00    +0.000 A 
ATOM      2  C   UNL     1      45.400   1.704   8.775  0.00  0.00    +0.000 A 
ATOM      3  C   UNL     1      44.619   2.478   9.634  0.00  0.00    +0.000 A 
ATOM      4  C   UNL     1      44.586   3.859   9.453  0.00  0.00    +0.000 A 
ATOM      5  N   UNL     1      45.253   4.467   8.443  0.00  0.00    +0.000 NA
ATOM      6  C   UNL     1      45.989   3.689   7.615  0.00  0.00    +0.000 A 
ENDROOT
BRANCH   1   7
ATOM      7  C   UNL     1      46.977   1.475   6.821  0.00  0.00    +0.000 C 
BRANCH   7   8
ATOM      8  C   UNL     1      48.302   2.120   6.383  0.00  0.00    +0.000 C 
BRANCH   8   9
ATOM      9  N   UNL     1      48.263   2.516   4.977  0.00  0.00    +0.000 NA
ATOM     10  H   UNL     1      48.833   1.870   4.429  0.00  0.00    +0.000 HD
ATOM     11  H   UNL     1      48.695   3.434   4.865  0.00  0.00    +0.000 HD
ENDBRANCH   8   9
ENDBRANCH   7   8
ENDBRANCH   1   7
BRANCH   4  12
ATOM     12  C   UNL     1      43.803   4.749  10.384  0.00  0.00    +0.000 C 
BRANCH  12  13
ATOM     13  N   UNL     1      44.446   4.869  11.677  0.00  0.00    +0.000 N 
ATOM     14  C   UNL     1      43.987   4.304  12.836  0.00  0.00    +0.000 A 
ATOM     15  N   UNL     1      44.771   4.576  13.855  0.00  0.00    +0.000 NA
ATOM     16  C   UNL     1      45.766   5.367  13.340  0.00  0.00    +0.000 A 
ATOM     17  C   UNL     1      46.874   5.936  13.986  0.00  0.00    +0.000 A 
ATOM     18  C   UNL     1      47.757   6.730  13.243  0.00  0.00    +0.000 A 
ATOM     19  C   UNL     1      47.532   6.964  11.887  0.00  0.00    +0.000 A 
ATOM     20  C   UNL     1      46.435   6.403  11.221  0.00  0.00    +0.000 A 
ATOM     21  C   UNL     1      45.577   5.594  11.976  0.00  0.00    +0.000 A 
ENDBRANCH  12  13
ENDBRANCH   4  12
TORSDOF 5
ENDMDL
MODEL 2
REMARK VINA RESULT:    -7.154      1.564      1.707
REMARK INTER + INTRA:          -9.496
REMARK INTER:                  -9.075
REMARK INTRA:                  -0.421
REMARK UNBOUND:                -0.460
REMARK  Name = 
REMARK  5 active torsions:
REMARK  status: ('A' for Active; 'I' for Inactive)
REMARK    1  A    between atoms: N_1  and  C_2
REMARK    2  A    between atoms: C_2  and  C_3
REMARK    3  A    between atoms: C_3  and  C_4
REMARK    4  A    between atoms: C_7  and  C_8
REMARK    5  A    between atoms: C_8  and  N_9
REMARK                            x       y       z     vdW  Elec       q    Type
REMARK                         _______ _______ _______ _____ _____    ______ ____
ROOT
ATOM      1  C   UNL     1      46.121   2.405   7.903  0.00  0.00    +0.000 A 
ATOM      2  C   UNL     1      45.267   1.763   8.806  0.00  0.00    +0.000 A 
ATOM      3  C   UNL     1      44.436   2.514   9.639  0.00  0.00    +0.000 A 
ATOM      4  C   UNL     1      44.477   3.904   9.555  0.00  0.00    +0.000 A 
ATOM      5  N   UNL     1      45.265   4.547   8.660  0.00  0.00    +0.000 NA
ATOM      6  C   UNL     1      46.048   3.792   7.854  0.00  0.00    +0.000 A 
ENDROOT
BRANCH   1   7
ATOM      7  C   UNL     1      47.020   1.593   7.001  0.00  0.00    +0.000 C 
BRANCH   7   8
ATOM      8  C   UNL     1      48.280   2.321   6.507  0.00  0.00    +0.000 C 
BRANCH   8   9
ATOM      9  N   UNL     1      48.273   2.473   5.054  0.00  0.00    +0.000 NA
ATOM     10  H   UNL     1      47.307   2.487   4.722  0.00  0.00    +0.000 HD
ATOM     11  H   UNL     1      48.706   1.657   4.619  0.00  0.00    +0.000 HD
ENDBRANCH   8   9
ENDBRANCH   7   8
ENDBRANCH   1   7
BRANCH   4  12
ATOM     12  C   UNL     1      43.643   4.765  10.468  0.00  0.00    +0.000 C 
BRANCH  12  13
ATOM     13  N   UNL     1      44.459   5.462  11.441  0.00  0.00    +0.000 N 
ATOM     14  C   UNL     1      45.217   4.855  12.407  0.00  0.00    +0.000 A 
ATOM     15  N   UNL     1      45.855   5.732  13.148  0.00  0.00    +0.000 NA
ATOM     16  C   UNL     1      45.478   6.956  12.658  0.00  0.00    +0.000 A 
ATOM     17  C   UNL     1      45.868   8.239  13.074  0.00  0.00    +0.000 A 
ATOM     18  C   UNL     1      45.330   9.355  12.421  0.00  0.00    +0.000 A 
ATOM     19  C   UNL     1      44.411   9.196  11.384  0.00  0.00    +0.000 A 
ATOM     20  C   UNL     1      44.012   7.926  10.949  0.00  0.00    +0.000 A 
ATOM     21  C   UNL     1      44.578   6.823  11.601  0.00  0.00    +0.000 A 
ENDBRANCH  12  13
ENDBRANCH   4  12
TORSDOF 5
ENDMDL
MODEL 3
REMARK VINA RESULT:    -6.787      1.762      6.682
REMARK INTER + INTRA:          -9.032
REMARK INTER:                  -8.647
REMARK INTRA:                  -0.385
REMARK UNBOUND:                -0.460
REMARK  Name = 
REMARK  5 active torsions:
REMARK  status: ('A' for Active; 'I' for Inactive)
REMARK    1  A    between atoms: N_1  and  C_2
REMARK    2  A    between atoms: C_2  and  C_3
REMARK    3  A    between atoms: C_3  and  C_4
REMARK    4  A    between atoms: C_7  and  C_8
REMARK    5  A    between atoms: C_8  and  N_9
REMARK                            x       y       z     vdW  Elec       q    Type
REMARK                         _______ _______ _______ _____ _____    ______ ____
ROOT
ATOM      1  C   UNL     1      46.458   4.612  14.077  0.00  0.00    +0.000 A 
ATOM      2  C   UNL     1      45.691   5.589  13.434  0.00  0.00    +0.000 A 
ATOM      3  C   UNL     1      44.990   5.276  12.269  0.00  0.00    +0.000 A 
ATOM      4  C   UNL     1      45.071   3.981  11.762  0.00  0.00    +0.000 A 
ATOM      5  N   UNL     1      45.774   3.007  12.389  0.00  0.00    +0.000 NA
ATOM      6  C   UNL     1      46.430   3.336  13.526  0.00  0.00    +0.000 A 
ENDROOT
BRANCH   1   7
ATOM      7  C   UNL     1      47.217   4.951  15.337  0.00  0.00    +0.000 C 
BRANCH   7   8
ATOM      8  C   UNL     1      47.621   3.746  16.201  0.00  0.00    +0.000 C 
BRANCH   8   9
ATOM      9  N   UNL     1      46.610   3.453  17.214  0.00  0.00    +0.000 NA
ATOM     10  H   UNL     1      46.984   2.772  17.877  0.00  0.00    +0.000 HD
ATOM     11  H   UNL     1      45.804   3.004  16.778  0.00  0.00    +0.000 HD
ENDBRANCH   8   9
ENDBRANCH   7   8
ENDBRANCH   1   7
BRANCH   4  12
ATOM     12  C   UNL     1      44.379   3.601  10.478  0.00  0.00    +0.000 C 
BRANCH  12  13
ATOM     13  N   UNL     1      45.262   3.727   9.336  0.00  0.00    +0.000 N 
ATOM     14  C   UNL     1      45.655   4.914   8.777  0.00  0.00    +0.000 A 
ATOM     15  N   UNL     1      46.459   4.728   7.754  0.00  0.00    +0.000 NA
ATOM     16  C   UNL     1      46.574   3.366   7.632  0.00  0.00    +0.000 A 
ATOM     17  C   UNL     1      47.319   2.616   6.710  0.00  0.00    +0.000 A 
ATOM     18  C   UNL     1      47.266   1.218   6.774  0.00  0.00    +0.000 A 
ATOM     19  C   UNL     1      46.475   0.581   7.730  0.00  0.00    +0.000 A 
ATOM     20  C   UNL     1      45.727   1.310   8.663  0.00  0.00    +0.000 A 
ATOM     21  C   UNL     1      45.811   2.706   8.596  0.00  0.00    +0.000 A 
ENDBRANCH  12  13
ENDBRANCH   4  12
TORSDOF 5
ENDMDL
MODEL 4
REMARK VINA RESULT:    -6.395      1.766      6.282
REMARK INTER + INTRA:          -8.537
REMARK INTER:                  -8.108
REMARK INTRA:                  -0.429
REMARK UNBOUND:                -0.460
REMARK  Name = 
REMARK  5 active torsions:
REMARK  status: ('A' for Active; 'I' for Inactive)
REMARK    1  A    between atoms: N_1  and  C_2
REMARK    2  A    between atoms: C_2  and  C_3
REMARK    3  A    between atoms: C_3  and  C_4
REMARK    4  A    between atoms: C_7  and  C_8
REMARK    5  A    between atoms: C_8  and  N_9
REMARK                            x       y       z     vdW  Elec       q    Type
REMARK                         _______ _______ _______ _____ _____    ______ ____
ROOT
ATOM      1  C   UNL     1      46.616   6.105  12.741  0.00  0.00    +0.000 A 
ATOM      2  C   UNL     1      45.745   5.047  13.024  0.00  0.00    +0.000 A 
ATOM      3  C   UNL     1      45.001   4.459  12.000  0.00  0.00    +0.000 A 
ATOM      4  C   UNL     1      45.140   4.947  10.702  0.00  0.00    +0.000 A 
ATOM      5  N   UNL     1      46.007   5.942  10.397  0.00  0.00    +0.000 NA
ATOM      6  C   UNL     1      46.727   6.482  11.408  0.00  0.00    +0.000 A 
ENDROOT
BRANCH   1   7
ATOM      7  C   UNL     1      47.422   6.741  13.849  0.00  0.00    +0.000 C 
BRANCH   7   8
ATOM      8  C   UNL     1      47.742   8.231  13.651  0.00  0.00    +0.000 C 
BRANCH   8   9
ATOM      9  N   UNL     1      47.037   9.062  14.625  0.00  0.00    +0.000 NA
ATOM     10  H   UNL     1      46.947  10.009  14.256  0.00  0.00    +0.000 HD
ATOM     11  H   UNL     1      47.594   9.144  15.476  0.00  0.00    +0.000 HD
ENDBRANCH   8   9
ENDBRANCH   7   8
ENDBRANCH   1   7
BRANCH   4  12
ATOM     12  C   UNL     1      44.321   4.387   9.568  0.00  0.00    +0.000 C 
BRANCH  12  13
ATOM     13  N   UNL     1      44.898   3.166   9.042  0.00  0.00    +0.000 N 
ATOM     14  C   UNL     1      44.555   1.902   9.440  0.00  0.00    +0.000 A 
ATOM     15  N   UNL     1      45.237   0.985   8.792  0.00  0.00    +0.000 NA
ATOM     16  C   UNL     1      46.072   1.683   7.957  0.00  0.00    +0.000 A 
ATOM     17  C   UNL     1      47.012   1.201   7.033  0.00  0.00    +0.000 A 
ATOM     18  C   UNL     1      47.767   2.120   6.294  0.00  0.00    +0.000 A 
ATOM     19  C   UNL     1      47.600   3.492   6.482  0.00  0.00    +0.000 A 
ATOM     20  C   UNL     1      46.664   3.995   7.396  0.00  0.00    +0.000 A 
ATOM     21  C   UNL     1      45.904   3.060   8.108  0.00  0.00    +0.000 A 
ENDBRANCH  12  13
ENDBRANCH   4  12
TORSDOF 5
ENDMDL
MODEL 5
REMARK VINA RESULT:    -6.347      2.273      6.284
REMARK INTER + INTRA:          -8.476
REMARK INTER:                  -8.140
REMARK INTRA:                  -0.336
REMARK UNBOUND:                -0.460
REMARK  Name = 
REMARK  5 active torsions:
REMARK  status: ('A' for Active; 'I' for Inactive)
REMARK    1  A    between atoms: N_1  and  C_2
REMARK    2  A    between atoms: C_2  and  C_3
REMARK    3  A    between atoms: C_3  and  C_4
REMARK    4  A    between atoms: C_7  and  C_8
REMARK    5  A    between atoms: C_8  and  N_9
REMARK                            x       y       z     vdW  Elec       q    Type
REMARK                         _______ _______ _______ _____ _____    ______ ____
ROOT
ATOM      1  C   UNL     1      47.700   6.788  13.689  0.00  0.00    +0.000 A 
ATOM      2  C   UNL     1      47.131   7.820  12.934  0.00  0.00    +0.000 A 
ATOM      3  C   UNL     1      45.917   7.620  12.276  0.00  0.00    +0.000 A 
ATOM      4  C   UNL     1      45.290   6.381  12.383  0.00  0.00    +0.000 A 
ATOM      5  N   UNL     1      45.800   5.380  13.141  0.00  0.00    +0.000 NA
ATOM      6  C   UNL     1      46.971   5.609  13.781  0.00  0.00    +0.000 A 
ENDROOT
BRANCH   1   7
ATOM      7  C   UNL     1      49.014   7.005  14.401  0.00  0.00    +0.000 C 
BRANCH   7   8
ATOM      8  C   UNL     1      49.005   6.674  15.902  0.00  0.00    +0.000 C 
BRANCH   8   9
ATOM      9  N   UNL     1      50.175   5.883  16.280  0.00  0.00    +0.000 NA
ATOM     10  H   UNL     1      51.016   6.449  16.161  0.00  0.00    +0.000 HD
ATOM     11  H   UNL     1      50.277   5.092  15.644  0.00  0.00    +0.000 HD
ENDBRANCH   8   9
ENDBRANCH   7   8
ENDBRANCH   1   7
BRANCH   4  12
ATOM     12  C   UNL     1      44.006   6.091  11.649  0.00  0.00    +0.000 C 
BRANCH  12  13
ATOM     13  N   UNL     1      43.985   4.743  11.118  0.00  0.00    +0.000 N 
ATOM     14  C   UNL     1      43.293   3.696  11.664  0.00  0.00    +0.000 A 
ATOM     15  N   UNL     1      43.453   2.591  10.971  0.00  0.00    +0.000 NA
ATOM     16  C   UNL     1      44.301   2.931   9.947  0.00  0.00    +0.000 A 
ATOM     17  C   UNL     1      44.800   2.135   8.904  0.00  0.00    +0.000 A 
ATOM     18  C   UNL     1      45.675   2.709   7.974  0.00  0.00    +0.000 A 
ATOM     19  C   UNL     1      46.057   4.046   8.088  0.00  0.00    +0.000 A 
ATOM     20  C   UNL     1      45.568   4.859   9.118  0.00  0.00    +0.000 A 
ATOM     21  C   UNL     1      44.677   4.272  10.026  0.00  0.00    +0.000 A 
ENDBRANCH  12  13
ENDBRANCH   4  12
TORSDOF 5
ENDMDL
MODEL 6
REMARK VINA RESULT:    -5.667      2.064      3.282
REMARK INTER + INTRA:          -7.619
REMARK INTER:                  -7.202
REMARK INTRA:                  -0.417
REMARK UNBOUND:                -0.460
REMARK  Name = 
REMARK  5 active torsions:
REMARK  status: ('A' for Active; 'I' for Inactive)
REMARK    1  A    between atoms: N_1  and  C_2
REMARK    2  A    between atoms: C_2  and  C_3
REMARK    3  A    between atoms: C_3  and  C_4
REMARK    4  A    between atoms: C_7  and  C_8
REMARK    5  A    between atoms: C_8  and  N_9
REMARK                            x       y       z     vdW  Elec       q    Type
REMARK                         _______ _______ _______ _____ _____    ______ ____
ROOT
ATOM      1  C   UNL     1      44.705   3.008   9.967  0.00  0.00    +0.000 A 
ATOM      2  C   UNL     1      44.228   4.263   9.574  0.00  0.00    +0.000 A 
ATOM      3  C   UNL     1      44.168   5.310  10.495  0.00  0.00    +0.000 A 
ATOM      4  C   UNL     1      44.588   5.079  11.803  0.00  0.00    +0.000 A 
ATOM      5  N   UNL     1      45.092   3.885  12.197  0.00  0.00    +0.000 NA
ATOM      6  C   UNL     1      45.153   2.893  11.278  0.00  0.00    +0.000 A 
ENDROOT
BRANCH   1   7
ATOM      7  C   UNL     1      44.769   1.874   8.971  0.00  0.00    +0.000 C 
BRANCH   7   8
ATOM      8  C   UNL     1      46.070   1.794   8.156  0.00  0.00    +0.000 C 
BRANCH   8   9
ATOM      9  N   UNL     1      46.515   0.411   7.998  0.00  0.00    +0.000 NA
ATOM     10  H   UNL     1      47.535   0.382   8.011  0.00  0.00    +0.000 HD
ATOM     11  H   UNL     1      46.236   0.061   7.081  0.00  0.00    +0.000 HD
ENDBRANCH   8   9
ENDBRANCH   7   8
ENDBRANCH   1   7
BRANCH   4  12
ATOM     12  C   UNL     1      44.495   6.157  12.852  0.00  0.00    +0.000 C 
BRANCH  12  13
ATOM     13  N   UNL     1      45.337   7.292  12.532  0.00  0.00    +0.000 N 
ATOM     14  C   UNL     1      44.881   8.516  12.122  0.00  0.00    +0.000 A 
ATOM     15  N   UNL     1      45.867   9.356  11.904  0.00  0.00    +0.000 NA
ATOM     16  C   UNL     1      47.010   8.641  12.161  0.00  0.00    +0.000 A 
ATOM     17  C   UNL     1      48.350   9.051  12.095  0.00  0.00    +0.000 A 
ATOM     18  C   UNL     1      49.357   8.125  12.392  0.00  0.00    +0.000 A 
ATOM     19  C   UNL     1      49.036   6.812  12.735  0.00  0.00    +0.000 A 
ATOM     20  C   UNL     1      47.706   6.382  12.812  0.00  0.00    +0.000 A 
ATOM     21  C   UNL     1      46.713   7.329  12.532  0.00  0.00    +0.000 A 
ENDBRANCH  12  13
ENDBRANCH   4  12
TORSDOF 5
ENDMDL
MODEL 7
REMARK VINA RESULT:    -5.601      2.003      2.923
REMARK INTER + INTRA:          -7.534
REMARK INTER:                  -7.115
REMARK INTRA:                  -0.419
REMARK UNBOUND:                -0.460
REMARK  Name = 
REMARK  5 active torsions:
REMARK  status: ('A' for Active; 'I' for Inactive)
REMARK    1  A    between atoms: N_1  and  C_2
REMARK    2  A    between atoms: C_2  and  C_3
REMARK    3  A    between atoms: C_3  and  C_4
REMARK    4  A    between atoms: C_7  and  C_8
REMARK    5  A    between atoms: C_8  and  N_9
REMARK                            x       y       z     vdW  Elec       q    Type
REMARK                         _______ _______ _______ _____ _____    ______ ____
ROOT
ATOM      1  C   UNL     1      44.886   3.498   9.412  0.00  0.00    +0.000 A 
ATOM      2  C   UNL     1      44.204   3.148  10.582  0.00  0.00    +0.000 A 
ATOM      3  C   UNL     1      44.205   4.010  11.679  0.00  0.00    +0.000 A 
ATOM      4  C   UNL     1      44.897   5.215  11.587  0.00  0.00    +0.000 A 
ATOM      5  N   UNL     1      45.531   5.595  10.451  0.00  0.00    +0.000 NA
ATOM      6  C   UNL     1      45.499   4.746   9.398  0.00  0.00    +0.000 A 
ENDROOT
BRANCH   1   7
ATOM      7  C   UNL     1      44.885   2.565   8.225  0.00  0.00    +0.000 C 
BRANCH   7   8
ATOM      8  C   UNL     1      46.271   2.080   7.773  0.00  0.00    +0.000 C 
BRANCH   8   9
ATOM      9  N   UNL     1      46.440   0.649   8.014  0.00  0.00    +0.000 NA
ATOM     10  H   UNL     1      45.604   0.154   7.700  0.00  0.00    +0.000 HD
ATOM     11  H   UNL     1      46.510   0.473   9.017  0.00  0.00    +0.000 HD
ENDBRANCH   8   9
ENDBRANCH   7   8
ENDBRANCH   1   7
BRANCH   4  12
ATOM     12  C   UNL     1      44.978   6.160  12.758  0.00  0.00    +0.000 C 
BRANCH  12  13
ATOM     13  N   UNL     1      46.350   6.412  13.150  0.00  0.00    +0.000 N 
ATOM     14  C   UNL     1      47.124   5.557  13.890  0.00  0.00    +0.000 A 
ATOM     15  N   UNL     1      48.328   6.042  14.093  0.00  0.00    +0.000 NA
ATOM     16  C   UNL     1      48.328   7.269  13.479  0.00  0.00    +0.000 A 
ATOM     17  C   UNL     1      49.362   8.213  13.379  0.00  0.00    +0.000 A 
ATOM     18  C   UNL     1      49.116   9.417  12.707  0.00  0.00    +0.000 A 
ATOM     19  C   UNL     1      47.861   9.681  12.158  0.00  0.00    +0.000 A 
ATOM     20  C   UNL     1      46.817   8.751  12.242  0.00  0.00    +0.000 A 
ATOM     21  C   UNL     1      47.089   7.545  12.899  0.00  0.00    +0.000 A 
ENDBRANCH  12  13
ENDBRANCH   4  12
TORSDOF 5
ENDMDL
MODEL 8
REMARK VINA RESULT:    -5.271      3.806      7.744
REMARK INTER + INTRA:          -7.118
REMARK INTER:                  -6.736
REMARK INTRA:                  -0.383
REMARK UNBOUND:                -0.460
REMARK  Name = 
REMARK  5 active torsions:
REMARK  status: ('A' for Active; 'I' for Inactive)
REMARK    1  A    between atoms: N_1  and  C_2
REMARK    2  A    between atoms: C_2  and  C_3
REMARK    3  A    between atoms: C_3  and  C_4
REMARK    4  A    between atoms: C_7  and  C_8
REMARK    5  A    between atoms: C_8  and  N_9
REMARK                            x       y       z     vdW  Elec       q    Type
REMARK                         _______ _______ _______ _____ _____    ______ ____
ROOT
ATOM      1  C   UNL     1      48.333   5.470  17.140  0.00  0.00    +0.000 A 
ATOM      2  C   UNL     1      48.768   6.640  16.508  0.00  0.00    +0.000 A 
ATOM      3  C   UNL     1      48.584   6.805  15.134  0.00  0.00    +0.000 A 
ATOM      4  C   UNL     1      47.964   5.787  14.412  0.00  0.00    +0.000 A 
ATOM      5  N   UNL     1      47.497   4.664  15.009  0.00  0.00    +0.000 NA
ATOM      6  C   UNL     1      47.676   4.539  16.344  0.00  0.00    +0.000 A 
ENDROOT
BRANCH   1   7
ATOM      7  C   UNL     1      48.533   5.292  18.626  0.00  0.00    +0.000 C 
BRANCH   7   8
ATOM      8  C   UNL     1      48.707   3.838  19.093  0.00  0.00    +0.000 C 
BRANCH   8   9
ATOM      9  N   UNL     1      48.388   3.691  20.511  0.00  0.00    +0.000 NA
ATOM     10  H   UNL     1      49.240   3.808  21.062  0.00  0.00    +0.000 HD
ATOM     11  H   UNL     1      48.063   2.741  20.695  0.00  0.00    +0.000 HD
ENDBRANCH   8   9
ENDBRANCH   7   8
ENDBRANCH   1   7
BRANCH   4  12
ATOM     12  C   UNL     1      47.788   5.887  12.919  0.00  0.00    +0.000 C 
BRANCH  12  13
ATOM     13  N   UNL     1      46.416   6.184  12.560  0.00  0.00    +0.000 N 
ATOM     14  C   UNL     1      45.878   7.441  12.489  0.00  0.00    +0.000 A 
ATOM     15  N   UNL     1      44.613   7.411  12.137  0.00  0.00    +0.000 NA
ATOM     16  C   UNL     1      44.312   6.080  11.996  0.00  0.00    +0.000 A 
ATOM     17  C   UNL     1      43.100   5.477  11.625  0.00  0.00    +0.000 A 
ATOM     18  C   UNL     1      43.031   4.080  11.564  0.00  0.00    +0.000 A 
ATOM     19  C   UNL     1      44.143   3.299  11.880  0.00  0.00    +0.000 A 
ATOM     20  C   UNL     1      45.362   3.880  12.248  0.00  0.00    +0.000 A 
ATOM     21  C   UNL     1      45.417   5.278  12.282  0.00  0.00    +0.000 A 
ENDBRANCH  12  13
ENDBRANCH   4  12
TORSDOF 5
ENDMDL
MODEL 9
REMARK VINA RESULT:    -5.179      2.827      4.527
REMARK INTER + INTRA:          -7.002
REMARK INTER:                  -6.612
REMARK INTRA:                  -0.390
REMARK UNBOUND:                -0.460
REMARK  Name = 
REMARK  5 active torsions:
REMARK  status: ('A' for Active; 'I' for Inactive)
REMARK    1  A    between atoms: N_1  and  C_2
REMARK    2  A    between atoms: C_2  and  C_3
REMARK    3  A    between atoms: C_3  and  C_4
REMARK    4  A    between atoms: C_7  and  C_8
REMARK    5  A    between atoms: C_8  and  N_9
REMARK                            x       y       z     vdW  Elec       q    Type
REMARK                         _______ _______ _______ _____ _____    ______ ____
ROOT
ATOM      1  C   UNL     1      44.790   3.930  11.063  0.00  0.00    +0.000 A 
ATOM      2  C   UNL     1      45.002   3.896  12.446  0.00  0.00    +0.000 A 
ATOM      3  C   UNL     1      45.464   5.032  13.112  0.00  0.00    +0.000 A 
ATOM      4  C   UNL     1      45.712   6.189  12.376  0.00  0.00    +0.000 A 
ATOM      5  N   UNL     1      45.475   6.258  11.044  0.00  0.00    +0.000 NA
ATOM      6  C   UNL     1      45.011   5.146  10.428  0.00  0.00    +0.000 A 
ENDROOT
BRANCH   1   7
ATOM      7  C   UNL     1      44.290   2.701  10.342  0.00  0.00    +0.000 C 
BRANCH   7   8
ATOM      8  C   UNL     1      44.825   2.517   8.914  0.00  0.00    +0.000 C 
BRANCH   8   9
ATOM      9  N   UNL     1      45.586   1.276   8.784  0.00  0.00    +0.000 NA
ATOM     10  H   UNL     1      45.070   0.517   9.233  0.00  0.00    +0.000 HD
ATOM     11  H   UNL     1      46.466   1.356   9.294  0.00  0.00    +0.000 HD
ENDBRANCH   8   9
ENDBRANCH   7   8
ENDBRANCH   1   7
BRANCH   4  12
ATOM     12  C   UNL     1      46.263   7.428  13.034  0.00  0.00    +0.000 C 
BRANCH  12  13
ATOM     13  N   UNL     1      47.627   7.691  12.622  0.00  0.00    +0.000 N 
ATOM     14  C   UNL     1      48.669   6.813  12.753  0.00  0.00    +0.000 A 
ATOM     15  N   UNL     1      49.792   7.316  12.292  0.00  0.00    +0.000 NA
ATOM     16  C   UNL     1      49.470   8.579  11.866  0.00  0.00    +0.000 A 
ATOM     17  C   UNL     1      50.289   9.556  11.278  0.00  0.00    +0.000 A 
ATOM     18  C   UNL     1      49.729  10.793  10.938  0.00  0.00    +0.000 A 
ATOM     19  C   UNL     1      48.382  11.058  11.190  0.00  0.00    +0.000 A 
ATOM     20  C   UNL     1      47.546  10.096  11.771  0.00  0.00    +0.000 A 
ATOM     21  C   UNL     1      48.120   8.858  12.084  0.00  0.00    +0.000 A 
ENDBRANCH  12  13
ENDBRANCH   4  12
TORSDOF 5
ENDMDL
