MODEL 1
REMARK VINA RESULT:    -9.113      0.000      0.000
REMARK INTER + INTRA:         -12.691
REMARK INTER:                 -11.777
REMARK INTRA:                  -0.914
REMARK UNBOUND:                -0.914
REMARK  Name = 
REMARK  5 active torsions:
REMARK  status: ('A' for Active; 'I' for Inactive)
REMARK    1  A    between atoms: C_2  and  C_4
REMARK    2  A    between atoms: N_8  and  C_9
REMARK    3  A    between atoms: C_9  and  C_10
REMARK    4  A    between atoms: C_10  and  C_13
REMARK    5  A    between atoms: C_17  and  C_18
REMARK                            x       y       z     vdW  Elec       q    Type
REMARK                         _______ _______ _______ _____ _____    ______ ____
ROOT
ATOM      1  C   UNL     1      43.693   4.713  12.255  0.00  0.00    +0.000 C 
ATOM      2  F   UNL     1      42.733   5.559  12.736  0.00  0.00    +0.000 F 
ATOM      3  F   UNL     1      43.463   3.518  12.885  0.00  0.00    +0.000 F 
ENDROOT
BRANCH   1   4
ATOM      4  C   UNL     1      45.089   5.242  12.524  0.00  0.00    +0.000 A 
ATOM      5  C   UNL     1      45.726   6.082  11.604  0.00  0.00    +0.000 A 
ATOM      6  C   UNL     1      46.997   6.577  11.876  0.00  0.00    +0.000 A 
ATOM      7  C   UNL     1      47.642   6.241  13.071  0.00  0.00    +0.000 A 
ATOM      8  C   UNL     1      47.028   5.419  14.032  0.00  0.00    +0.000 A 
ATOM      9  C   UNL     1      45.748   4.920  13.727  0.00  0.00    +0.000 A 
BRANCH   8  10
ATOM     10  C   UNL     1      47.688   5.111  15.319  0.00  0.00    +0.000 A 
ATOM     11  C   UNL     1      48.640   5.969  15.887  0.00  0.00    +0.000 A 
ATOM     12  N   UNL     1      49.273   5.769  17.073  0.00  0.00    +0.000 NA
ATOM     13  C   UNL     1      48.938   4.647  17.747  0.00  0.00    +0.000 A 
ATOM     14  C   UNL     1      48.013   3.733  17.283  0.00  0.00    +0.000 A 
ATOM     15  F   UNL     1      47.715   2.642  18.000  0.00  0.00    +0.000 F 
ATOM     16  C   UNL     1      47.388   3.959  16.063  0.00  0.00    +0.000 A 
ENDBRANCH   8  10
ENDBRANCH   1   4
BRANCH   1  17
ATOM     17  C   UNL     1      43.474   4.503  10.737  0.00  0.00    +0.000 C 
BRANCH  17  22
ATOM     18  C   UNL     1      46.603   2.544   7.416  0.00  0.00    +0.000 A 
ATOM     19  C   UNL     1      46.080   3.787   7.676  0.00  0.00    +0.000 A 
ATOM     20  N   UNL     1      45.149   4.021   8.627  0.00  0.00    +0.000 NA
ATOM     21  C   UNL     1      44.723   2.966   9.341  0.00  0.00    +0.000 A 
ATOM     22  N   UNL     1      43.759   3.133  10.308  0.00  0.00    +0.000 N 
ATOM     23  N   UNL     1      45.180   1.720   9.168  0.00  0.00    +0.000 NA
ATOM     24  C   UNL     1      46.094   1.527   8.187  0.00  0.00    +0.000 A 
ATOM     25  H   UNL     1      43.847   2.417  11.020  0.00  0.00    +0.000 HD
BRANCH  18  27
ATOM     26  N   UNL     1      47.677   3.143   5.326  0.00  0.00    +0.000 N 
ATOM     27  C   UNL     1      47.610   2.277   6.382  0.00  0.00    +0.000 C 
ATOM     28  O   UNL     1      48.384   1.334   6.480  0.00  0.00    +0.000 OA
ATOM     29  H   UNL     1      48.444   2.996   4.680  0.00  0.00    +0.000 HD
ATOM     30  H   UNL     1      47.250   4.059   5.330  0.00  0.00    +0.000 HD
ENDBRANCH  18  27
ENDBRANCH  17  22
ENDBRANCH   1  17
TORSDOF 5
ENDMDL
MODEL 2
REMARK VINA RESULT:    -8.867      2.820      4.409
REMARK INTER + INTRA:         -12.373
REMARK INTER:                 -12.069
REMARK INTRA:                  -0.304
REMARK UNBOUND:                -0.914
REMARK  Name = 
REMARK  5 active torsions:
REMARK  status: ('A' for Active; 'I' for Inactive)
REMARK    1  A    between atoms: C_2  and  C_4
REMARK    2  A    between atoms: N_8  and  C_9
REMARK    3  A    between atoms: C_9  and  C_10
REMARK    4  A    between atoms: C_10  and  C_13
REMARK    5  A    between atoms: C_17  and  C_18
REMARK                            x       y       z     vdW  Elec       q    Type
REMARK                         _______ _______ _______ _____ _____    ______ ____
ROOT
ATOM      1  C   UNL     1      43.714   4.269  12.352  0.00  0.00    +0.000 C 
ATOM      2  F   UNL     1      42.659   4.605  13.153  0.00  0.00    +0.000 F 
ATOM      3  F   UNL     1      43.917   2.932  12.571  0.00  0.00    +0.000 F 
ENDROOT
BRANCH   1   4
ATOM      4  C   UNL     1      44.945   5.095  12.675  0.00  0.00    +0.000 A 
ATOM      5  C   UNL     1      46.093   4.494  13.201  0.00  0.00    +0.000 A 
ATOM      6  C   UNL     1      47.221   5.262  13.470  0.00  0.00    +0.000 A 
ATOM      7  C   UNL     1      47.214   6.637  13.214  0.00  0.00    +0.000 A 
ATOM      8  C   UNL     1      46.089   7.276  12.664  0.00  0.00    +0.000 A 
ATOM      9  C   UNL     1      44.956   6.480  12.414  0.00  0.00    +0.000 A 
BRANCH   8  10
ATOM     10  C   UNL     1      46.102   8.719  12.341  0.00  0.00    +0.000 A 
ATOM     11  C   UNL     1      44.922   9.472  12.267  0.00  0.00    +0.000 A 
ATOM     12  N   UNL     1      44.850  10.802  11.999  0.00  0.00    +0.000 NA
ATOM     13  C   UNL     1      46.028  11.434  11.797  0.00  0.00    +0.000 A 
ATOM     14  C   UNL     1      47.249  10.793  11.847  0.00  0.00    +0.000 A 
ATOM     15  F   UNL     1      48.385  11.475  11.646  0.00  0.00    +0.000 F 
ATOM     16  C   UNL     1      47.291   9.430  12.114  0.00  0.00    +0.000 A 
ENDBRANCH   8  10
ENDBRANCH   1   4
BRANCH   1  17
ATOM     17  C   UNL     1      43.309   4.455  10.869  0.00  0.00    +0.000 C 
BRANCH  17  22
ATOM     18  C   UNL     1      46.571   2.578   7.630  0.00  0.00    +0.000 A 
ATOM     19  C   UNL     1      45.752   2.083   8.615  0.00  0.00    +0.000 A 
ATOM     20  N   UNL     1      45.007   2.863   9.428  0.00  0.00    +0.000 NA
ATOM     21  C   UNL     1      45.092   4.192   9.249  0.00  0.00    +0.000 A 
ATOM     22  N   UNL     1      44.377   5.044  10.060  0.00  0.00    +0.000 N 
ATOM     23  N   UNL     1      45.853   4.767   8.311  0.00  0.00    +0.000 NA
ATOM     24  C   UNL     1      46.603   3.948   7.535  0.00  0.00    +0.000 A 
ATOM     25  H   UNL     1      44.186   5.914   9.576  0.00  0.00    +0.000 HD
BRANCH  18  27
ATOM     26  N   UNL     1      48.480   2.317   6.157  0.00  0.00    +0.000 N 
ATOM     27  C   UNL     1      47.389   1.740   6.746  0.00  0.00    +0.000 C 
ATOM     28  O   UNL     1      47.123   0.558   6.570  0.00  0.00    +0.000 OA
ATOM     29  H   UNL     1      49.084   1.693   5.634  0.00  0.00    +0.000 HD
ATOM     30  H   UNL     1      48.882   3.191   6.468  0.00  0.00    +0.000 HD
ENDBRANCH  18  27
ENDBRANCH  17  22
ENDBRANCH   1  17
TORSDOF 5
ENDMDL
MODEL 3
REMARK VINA RESULT:    -8.781      2.707      3.871
REMARK INTER + INTRA:         -12.263
REMARK INTER:                 -11.340
REMARK INTRA:                  -0.923
REMARK UNBOUND:                -0.914
REMARK  Name = 
REMARK  5 active torsions:
REMARK  status: ('A' for Active; 'I' for Inactive)
REMARK    1  A    between atoms: C_2  and  C_4
REMARK    2  A    between atoms: N_8  and  C_9
REMARK    3  A    between atoms: C_9  and  C_10
REMARK    4  A    between atoms: C_10  and  C_13
REMARK    5  A    between atoms: C_17  and  C_18
REMARK                            x       y       z     vdW  Elec       q    Type
REMARK                         _______ _______ _______ _____ _____    ______ ____
ROOT
ATOM      1  C   UNL     1      43.374   5.795  11.840  0.00  0.00    +0.000 C 
ATOM      2  F   UNL     1      43.091   7.058  11.403  0.00  0.00    +0.000 F 
ATOM      3  F   UNL     1      42.393   5.505  12.751  0.00  0.00    +0.000 F 
ENDROOT
BRANCH   1   4
ATOM      4  C   UNL     1      44.761   5.711  12.446  0.00  0.00    +0.000 A 
ATOM      5  C   UNL     1      45.157   4.586  13.178  0.00  0.00    +0.000 A 
ATOM      6  C   UNL     1      46.441   4.515  13.708  0.00  0.00    +0.000 A 
ATOM      7  C   UNL     1      47.343   5.566  13.511  0.00  0.00    +0.000 A 
ATOM      8  C   UNL     1      46.994   6.704  12.763  0.00  0.00    +0.000 A 
ATOM      9  C   UNL     1      45.684   6.757  12.249  0.00  0.00    +0.000 A 
BRANCH   8  10
ATOM     10  C   UNL     1      47.966   7.789  12.507  0.00  0.00    +0.000 A 
ATOM     11  C   UNL     1      47.797   9.074  13.040  0.00  0.00    +0.000 A 
ATOM     12  N   UNL     1      48.653  10.116  12.871  0.00  0.00    +0.000 NA
ATOM     13  C   UNL     1      49.756   9.868  12.131  0.00  0.00    +0.000 A 
ATOM     14  C   UNL     1      50.024   8.640  11.560  0.00  0.00    +0.000 A 
ATOM     15  F   UNL     1      51.139   8.452  10.842  0.00  0.00    +0.000 F 
ATOM     16  C   UNL     1      49.126   7.596  11.742  0.00  0.00    +0.000 A 
ENDBRANCH   8  10
ENDBRANCH   1   4
BRANCH   1  17
ATOM     17  C   UNL     1      43.237   4.804  10.658  0.00  0.00    +0.000 C 
BRANCH  17  22
ATOM     18  C   UNL     1      46.260   2.008   7.882  0.00  0.00    +0.000 A 
ATOM     19  C   UNL     1      45.597   1.870   9.077  0.00  0.00    +0.000 A 
ATOM     20  N   UNL     1      44.886   2.863   9.656  0.00  0.00    +0.000 NA
ATOM     21  C   UNL     1      44.844   4.042   9.013  0.00  0.00    +0.000 A 
ATOM     22  N   UNL     1      44.157   5.102   9.560  0.00  0.00    +0.000 N 
ATOM     23  N   UNL     1      45.448   4.269   7.840  0.00  0.00    +0.000 NA
ATOM     24  C   UNL     1      46.171   3.254   7.310  0.00  0.00    +0.000 A 
ATOM     25  H   UNL     1      43.845   5.733   8.831  0.00  0.00    +0.000 HD
BRANCH  18  27
ATOM     26  N   UNL     1      46.766  -0.349   7.620  0.00  0.00    +0.000 N 
ATOM     27  C   UNL     1      47.039   0.939   7.249  0.00  0.00    +0.000 C 
ATOM     28  O   UNL     1      47.878   1.189   6.393  0.00  0.00    +0.000 OA
ATOM     29  H   UNL     1      47.245  -1.072   7.096  0.00  0.00    +0.000 HD
ATOM     30  H   UNL     1      45.927  -0.618   8.113  0.00  0.00    +0.000 HD
ENDBRANCH  18  27
ENDBRANCH  17  22
ENDBRANCH   1  17
TORSDOF 5
ENDMDL
MODEL 4
REMARK VINA RESULT:    -8.689      2.213      2.806
REMARK INTER + INTRA:         -12.144
REMARK INTER:                 -11.263
REMARK INTRA:                  -0.880
REMARK UNBOUND:                -0.914
REMARK  Name = 
REMARK  5 active torsions:
REMARK  status: ('A' for Active; 'I' for Inactive)
REMARK    1  A    between atoms: C_2  and  C_4
REMARK    2  A    between atoms: N_8  and  C_9
REMARK    3  A    between atoms: C_9  and  C_10
REMARK    4  A    between atoms: C_10  and  C_13
REMARK    5  A    between atoms: C_17  and  C_18
REMARK                            x       y       z     vdW  Elec       q    Type
REMARK                         _______ _______ _______ _____ _____    ______ ____
ROOT
ATOM      1  C   UNL     1      44.362   3.978  12.343  0.00  0.00    +0.000 C 
ATOM      2  F   UNL     1      43.534   3.890  13.427  0.00  0.00    +0.000 F 
ATOM      3  F   UNL     1      45.289   2.985  12.521  0.00  0.00    +0.000 F 
ENDROOT
BRANCH   1   4
ATOM      4  C   UNL     1      45.004   5.348  12.240  0.00  0.00    +0.000 A 
ATOM      5  C   UNL     1      44.359   6.393  11.569  0.00  0.00    +0.000 A 
ATOM      6  C   UNL     1      44.951   7.650  11.503  0.00  0.00    +0.000 A 
ATOM      7  C   UNL     1      46.191   7.877  12.109  0.00  0.00    +0.000 A 
ATOM      8  C   UNL     1      46.862   6.861  12.813  0.00  0.00    +0.000 A 
ATOM      9  C   UNL     1      46.248   5.594  12.852  0.00  0.00    +0.000 A 
BRANCH   8  10
ATOM     10  C   UNL     1      48.146   7.116  13.501  0.00  0.00    +0.000 A 
ATOM     11  C   UNL     1      48.423   6.588  14.769  0.00  0.00    +0.000 A 
ATOM     12  N   UNL     1      49.583   6.757  15.457  0.00  0.00    +0.000 NA
ATOM     13  C   UNL     1      50.537   7.493  14.845  0.00  0.00    +0.000 A 
ATOM     14  C   UNL     1      50.373   8.059  13.597  0.00  0.00    +0.000 A 
ATOM     15  F   UNL     1      51.359   8.773  13.037  0.00  0.00    +0.000 F 
ATOM     16  C   UNL     1      49.172   7.877  12.921  0.00  0.00    +0.000 A 
ENDBRANCH   8  10
ENDBRANCH   1   4
BRANCH   1  17
ATOM     17  C   UNL     1      43.557   3.656  11.060  0.00  0.00    +0.000 C 
BRANCH  17  22
ATOM     18  C   UNL     1      46.567   2.677   7.233  0.00  0.00    +0.000 A 
ATOM     19  C   UNL     1      45.897   3.775   7.714  0.00  0.00    +0.000 A 
ATOM     20  N   UNL     1      45.049   3.730   8.766  0.00  0.00    +0.000 NA
ATOM     21  C   UNL     1      44.863   2.536   9.353  0.00  0.00    +0.000 A 
ATOM     22  N   UNL     1      43.994   2.418  10.413  0.00  0.00    +0.000 N 
ATOM     23  N   UNL     1      45.478   1.414   8.962  0.00  0.00    +0.000 NA
ATOM     24  C   UNL     1      46.299   1.500   7.888  0.00  0.00    +0.000 A 
ATOM     25  H   UNL     1      44.263   1.639  11.003  0.00  0.00    +0.000 HD
BRANCH  18  27
ATOM     26  N   UNL     1      48.802   2.433   6.324  0.00  0.00    +0.000 N 
ATOM     27  C   UNL     1      47.485   2.713   6.089  0.00  0.00    +0.000 C 
ATOM     28  O   UNL     1      47.078   2.952   4.959  0.00  0.00    +0.000 OA
ATOM     29  H   UNL     1      49.395   2.365   5.505  0.00  0.00    +0.000 HD
ATOM     30  H   UNL     1      49.132   1.985   7.168  0.00  0.00    +0.000 HD
ENDBRANCH  18  27
ENDBRANCH  17  22
ENDBRANCH   1  17
TORSDOF 5
ENDMDL
MODEL 5
REMARK VINA RESULT:    -8.239      3.458      8.209
REMARK INTER + INTRA:         -11.562
REMARK INTER:                 -10.923
REMARK INTRA:                  -0.639
REMARK UNBOUND:                -0.914
REMARK  Name = 
REMARK  5 active torsions:
REMARK  status: ('A' for Active; 'I' for Inactive)
REMARK    1  A    between atoms: C_2  and  C_4
REMARK    2  A    between atoms: N_8  and  C_9
REMARK    3  A    between atoms: C_9  and  C_10
REMARK    4  A    between atoms: C_10  and  C_13
REMARK    5  A    between atoms: C_17  and  C_18
REMARK                            x       y       z     vdW  Elec       q    Type
REMARK                         _______ _______ _______ _____ _____    ______ ____
ROOT
ATOM      1  C   UNL     1      45.812   6.924  12.390  0.00  0.00    +0.000 C 
ATOM      2  F   UNL     1      45.013   7.606  13.265  0.00  0.00    +0.000 F 
ATOM      3  F   UNL     1      46.273   7.871  11.515  0.00  0.00    +0.000 F 
ENDROOT
BRANCH   1   4
ATOM      4  C   UNL     1      45.050   5.817  11.686  0.00  0.00    +0.000 A 
ATOM      5  C   UNL     1      43.739   5.501  12.059  0.00  0.00    +0.000 A 
ATOM      6  C   UNL     1      43.046   4.499  11.387  0.00  0.00    +0.000 A 
ATOM      7  C   UNL     1      43.655   3.805  10.336  0.00  0.00    +0.000 A 
ATOM      8  C   UNL     1      44.962   4.107   9.915  0.00  0.00    +0.000 A 
ATOM      9  C   UNL     1      45.646   5.116  10.620  0.00  0.00    +0.000 A 
BRANCH   8  10
ATOM     10  C   UNL     1      45.584   3.412   8.768  0.00  0.00    +0.000 A 
ATOM     11  C   UNL     1      46.027   4.107   7.633  0.00  0.00    +0.000 A 
ATOM     12  N   UNL     1      46.627   3.547   6.551  0.00  0.00    +0.000 NA
ATOM     13  C   UNL     1      46.808   2.209   6.595  0.00  0.00    +0.000 A 
ATOM     14  C   UNL     1      46.413   1.426   7.661  0.00  0.00    +0.000 A 
ATOM     15  F   UNL     1      46.627   0.103   7.651  0.00  0.00    +0.000 F 
ATOM     16  C   UNL     1      45.793   2.025   8.751  0.00  0.00    +0.000 A 
ENDBRANCH   8  10
ENDBRANCH   1   4
BRANCH   1  17
ATOM     17  C   UNL     1      47.028   6.346  13.155  0.00  0.00    +0.000 C 
BRANCH  17  22
ATOM     18  C   UNL     1      48.402   4.383  17.505  0.00  0.00    +0.000 A 
ATOM     19  C   UNL     1      48.843   5.394  16.687  0.00  0.00    +0.000 A 
ATOM     20  N   UNL     1      48.309   5.661  15.475  0.00  0.00    +0.000 NA
ATOM     21  C   UNL     1      47.296   4.880  15.066  0.00  0.00    +0.000 A 
ATOM     22  N   UNL     1      46.723   5.084  13.831  0.00  0.00    +0.000 N 
ATOM     23  N   UNL     1      46.790   3.878  15.795  0.00  0.00    +0.000 NA
ATOM     24  C   UNL     1      47.373   3.629  16.992  0.00  0.00    +0.000 A 
ATOM     25  H   UNL     1      45.763   4.760  13.830  0.00  0.00    +0.000 HD
BRANCH  18  27
ATOM     26  N   UNL     1      48.337   3.154  19.594  0.00  0.00    +0.000 N 
ATOM     27  C   UNL     1      48.979   4.080  18.819  0.00  0.00    +0.000 C 
ATOM     28  O   UNL     1      50.016   4.612  19.193  0.00  0.00    +0.000 OA
ATOM     29  H   UNL     1      48.809   2.889  20.451  0.00  0.00    +0.000 HD
ATOM     30  H   UNL     1      47.645   2.512  19.234  0.00  0.00    +0.000 HD
ENDBRANCH  18  27
ENDBRANCH  17  22
ENDBRANCH   1  17
TORSDOF 5
ENDMDL
MODEL 6
REMARK VINA RESULT:    -7.560      3.746      8.015
REMARK INTER + INTRA:         -10.684
REMARK INTER:                  -9.670
REMARK INTRA:                  -1.015
REMARK UNBOUND:                -0.914
REMARK  Name = 
REMARK  5 active torsions:
REMARK  status: ('A' for Active; 'I' for Inactive)
REMARK    1  A    between atoms: C_2  and  C_4
REMARK    2  A    between atoms: N_8  and  C_9
REMARK    3  A    between atoms: C_9  and  C_10
REMARK    4  A    between atoms: C_10  and  C_13
REMARK    5  A    between atoms: C_17  and  C_18
REMARK                            x       y       z     vdW  Elec       q    Type
REMARK                         _______ _______ _______ _____ _____    ______ ____
ROOT
ATOM      1  C   UNL     1      48.738   8.673  12.466  0.00  0.00    +0.000 C 
ATOM      2  F   UNL     1      48.818   9.753  13.300  0.00  0.00    +0.000 F 
ATOM      3  F   UNL     1      49.435   9.038  11.344  0.00  0.00    +0.000 F 
ENDROOT
BRANCH   1   4
ATOM      4  C   UNL     1      47.298   8.314  12.154  0.00  0.00    +0.000 A 
ATOM      5  C   UNL     1      46.274   9.252  12.319  0.00  0.00    +0.000 A 
ATOM      6  C   UNL     1      44.961   8.914  12.006  0.00  0.00    +0.000 A 
ATOM      7  C   UNL     1      44.660   7.636  11.522  0.00  0.00    +0.000 A 
ATOM      8  C   UNL     1      45.662   6.672  11.320  0.00  0.00    +0.000 A 
ATOM      9  C   UNL     1      46.980   7.034  11.657  0.00  0.00    +0.000 A 
BRANCH   8  10
ATOM     10  C   UNL     1      45.351   5.341  10.756  0.00  0.00    +0.000 A 
ATOM     11  C   UNL     1      44.878   4.291  11.555  0.00  0.00    +0.000 A 
ATOM     12  N   UNL     1      44.548   3.049  11.111  0.00  0.00    +0.000 NA
ATOM     13  C   UNL     1      44.689   2.833   9.785  0.00  0.00    +0.000 A 
ATOM     14  C   UNL     1      45.143   3.794   8.905  0.00  0.00    +0.000 A 
ATOM     15  F   UNL     1      45.254   3.524   7.598  0.00  0.00    +0.000 F 
ATOM     16  C   UNL     1      45.482   5.053   9.389  0.00  0.00    +0.000 A 
ENDBRANCH   8  10
ENDBRANCH   1   4
BRANCH   1  17
ATOM     17  C   UNL     1      49.470   7.473  13.114  0.00  0.00    +0.000 C 
BRANCH  17  22
ATOM     18  C   UNL     1      47.939   4.611  16.873  0.00  0.00    +0.000 A 
ATOM     19  C   UNL     1      47.657   4.727  15.533  0.00  0.00    +0.000 A 
ATOM     20  N   UNL     1      48.181   5.688  14.741  0.00  0.00    +0.000 NA
ATOM     21  C   UNL     1      49.016   6.569  15.316  0.00  0.00    +0.000 A 
ATOM     22  N   UNL     1      49.566   7.587  14.570  0.00  0.00    +0.000 N 
ATOM     23  N   UNL     1      49.359   6.531  16.610  0.00  0.00    +0.000 NA
ATOM     24  C   UNL     1      48.790   5.567  17.372  0.00  0.00    +0.000 A 
ATOM     25  H   UNL     1      50.450   7.879  14.971  0.00  0.00    +0.000 HD
BRANCH  18  27
ATOM     26  N   UNL     1      47.948   3.392  18.969  0.00  0.00    +0.000 N 
ATOM     27  C   UNL     1      47.371   3.576  17.743  0.00  0.00    +0.000 C 
ATOM     28  O   UNL     1      46.393   2.925  17.398  0.00  0.00    +0.000 OA
ATOM     29  H   UNL     1      47.476   2.744  19.589  0.00  0.00    +0.000 HD
ATOM     30  H   UNL     1      48.573   4.063  19.395  0.00  0.00    +0.000 HD
ENDBRANCH  18  27
ENDBRANCH  17  22
ENDBRANCH   1  17
TORSDOF 5
ENDMDL
MODEL 7
REMARK VINA RESULT:    -7.432      3.601      8.472
REMARK INTER + INTRA:         -10.519
REMARK INTER:                  -9.743
REMARK INTRA:                  -0.777
REMARK UNBOUND:                -0.914
REMARK  Name = 
REMARK  5 active torsions:
REMARK  status: ('A' for Active; 'I' for Inactive)
REMARK    1  A    between atoms: C_2  and  C_4
REMARK    2  A    between atoms: N_8  and  C_9
REMARK    3  A    between atoms: C_9  and  C_10
REMARK    4  A    between atoms: C_10  and  C_13
REMARK    5  A    between atoms: C_17  and  C_18
REMARK                            x       y       z     vdW  Elec       q    Type
REMARK                         _______ _______ _______ _____ _____    ______ ____
ROOT
ATOM      1  C   UNL     1      45.095   6.281  11.871  0.00  0.00    +0.000 C 
ATOM      2  F   UNL     1      44.566   6.444  13.121  0.00  0.00    +0.000 F 
ATOM      3  F   UNL     1      44.576   7.306  11.127  0.00  0.00    +0.000 F 
ENDROOT
BRANCH   1   4
ATOM      4  C   UNL     1      44.750   4.922  11.292  0.00  0.00    +0.000 A 
ATOM      5  C   UNL     1      43.716   4.152  11.838  0.00  0.00    +0.000 A 
ATOM      6  C   UNL     1      43.397   2.918  11.280  0.00  0.00    +0.000 A 
ATOM      7  C   UNL     1      44.105   2.442  10.172  0.00  0.00    +0.000 A 
ATOM      8  C   UNL     1      45.135   3.194   9.580  0.00  0.00    +0.000 A 
ATOM      9  C   UNL     1      45.448   4.432  10.171  0.00  0.00    +0.000 A 
BRANCH   8  10
ATOM     10  C   UNL     1      45.845   2.715   8.374  0.00  0.00    +0.000 A 
ATOM     11  C   UNL     1      46.330   1.403   8.273  0.00  0.00    +0.000 A 
ATOM     12  N   UNL     1      46.971   0.881   7.195  0.00  0.00    +0.000 NA
ATOM     13  C   UNL     1      47.138   1.709   6.141  0.00  0.00    +0.000 A 
ATOM     14  C   UNL     1      46.699   3.018   6.129  0.00  0.00    +0.000 A 
ATOM     15  F   UNL     1      46.886   3.790   5.051  0.00  0.00    +0.000 F 
ATOM     16  C   UNL     1      46.055   3.528   7.250  0.00  0.00    +0.000 A 
ENDBRANCH   8  10
ENDBRANCH   1   4
BRANCH   1  17
ATOM     17  C   UNL     1      46.631   6.468  11.938  0.00  0.00    +0.000 C 
BRANCH  17  22
ATOM     18  C   UNL     1      48.951   7.460  16.215  0.00  0.00    +0.000 A 
ATOM     19  C   UNL     1      48.594   8.165  15.092  0.00  0.00    +0.000 A 
ATOM     20  N   UNL     1      48.026   7.599  14.004  0.00  0.00    +0.000 NA
ATOM     21  C   UNL     1      47.813   6.273  14.045  0.00  0.00    +0.000 A 
ATOM     22  N   UNL     1      47.259   5.630  12.961  0.00  0.00    +0.000 N 
ATOM     23  N   UNL     1      48.117   5.504  15.097  0.00  0.00    +0.000 NA
ATOM     24  C   UNL     1      48.709   6.109  16.155  0.00  0.00    +0.000 A 
ATOM     25  H   UNL     1      46.773   4.793  13.259  0.00  0.00    +0.000 HD
BRANCH  18  27
ATOM     26  N   UNL     1      49.132   7.656  18.626  0.00  0.00    +0.000 N 
ATOM     27  C   UNL     1      49.574   8.064  17.398  0.00  0.00    +0.000 C 
ATOM     28  O   UNL     1      50.482   8.879  17.289  0.00  0.00    +0.000 OA
ATOM     29  H   UNL     1      49.646   8.011  19.424  0.00  0.00    +0.000 HD
ATOM     30  H   UNL     1      48.584   6.818  18.768  0.00  0.00    +0.000 HD
ENDBRANCH  18  27
ENDBRANCH  17  22
ENDBRANCH   1  17
TORSDOF 5
ENDMDL
MODEL 8
REMARK VINA RESULT:    -7.049      4.182      8.755
REMARK INTER + INTRA:         -10.023
REMARK INTER:                  -9.282
REMARK INTRA:                  -0.742
REMARK UNBOUND:                -0.914
REMARK  Name = 
REMARK  5 active torsions:
REMARK  status: ('A' for Active; 'I' for Inactive)
REMARK    1  A    between atoms: C_2  and  C_4
REMARK    2  A    between atoms: N_8  and  C_9
REMARK    3  A    between atoms: C_9  and  C_10
REMARK    4  A    between atoms: C_10  and  C_13
REMARK    5  A    between atoms: C_17  and  C_18
REMARK                            x       y       z     vdW  Elec       q    Type
REMARK                         _______ _______ _______ _____ _____    ______ ____
ROOT
ATOM      1  C   UNL     1      48.587   8.002  12.721  0.00  0.00    +0.000 C 
ATOM      2  F   UNL     1      49.011   9.265  12.417  0.00  0.00    +0.000 F 
ATOM      3  F   UNL     1      49.486   7.167  12.112  0.00  0.00    +0.000 F 
ENDROOT
BRANCH   1   4
ATOM      4  C   UNL     1      47.167   7.760  12.245  0.00  0.00    +0.000 A 
ATOM      5  C   UNL     1      46.171   8.723  12.442  0.00  0.00    +0.000 A 
ATOM      6  C   UNL     1      44.880   8.495  11.978  0.00  0.00    +0.000 A 
ATOM      7  C   UNL     1      44.571   7.306  11.310  0.00  0.00    +0.000 A 
ATOM      8  C   UNL     1      45.547   6.322  11.071  0.00  0.00    +0.000 A 
ATOM      9  C   UNL     1      46.843   6.571  11.563  0.00  0.00    +0.000 A 
BRANCH   8  10
ATOM     10  C   UNL     1      45.233   5.090  10.316  0.00  0.00    +0.000 A 
ATOM     11  C   UNL     1      44.497   4.042  10.884  0.00  0.00    +0.000 A 
ATOM     12  N   UNL     1      44.148   2.890  10.252  0.00  0.00    +0.000 NA
ATOM     13  C   UNL     1      44.550   2.770   8.968  0.00  0.00    +0.000 A 
ATOM     14  C   UNL     1      45.278   3.739   8.308  0.00  0.00    +0.000 A 
ATOM     15  F   UNL     1      45.641   3.567   7.030  0.00  0.00    +0.000 F 
ATOM     16  C   UNL     1      45.628   4.903   8.983  0.00  0.00    +0.000 A 
ENDBRANCH   8  10
ENDBRANCH   1   4
BRANCH   1  17
ATOM     17  C   UNL     1      48.691   7.784  14.251  0.00  0.00    +0.000 C 
BRANCH  17  22
ATOM     18  C   UNL     1      48.490   5.399  18.602  0.00  0.00    +0.000 A 
ATOM     19  C   UNL     1      48.793   6.670  18.178  0.00  0.00    +0.000 A 
ATOM     20  N   UNL     1      48.851   7.029  16.877  0.00  0.00    +0.000 NA
ATOM     21  C   UNL     1      48.600   6.074  15.966  0.00  0.00    +0.000 A 
ATOM     22  N   UNL     1      48.667   6.368  14.623  0.00  0.00    +0.000 N 
ATOM     23  N   UNL     1      48.286   4.812  16.281  0.00  0.00    +0.000 NA
ATOM     24  C   UNL     1      48.264   4.490  17.597  0.00  0.00    +0.000 A 
ATOM     25  H   UNL     1      48.066   5.745  14.096  0.00  0.00    +0.000 HD
BRANCH  18  27
ATOM     26  N   UNL     1      48.521   3.662  20.294  0.00  0.00    +0.000 N 
ATOM     27  C   UNL     1      48.430   4.997  20.012  0.00  0.00    +0.000 C 
ATOM     28  O   UNL     1      48.338   5.830  20.904  0.00  0.00    +0.000 OA
ATOM     29  H   UNL     1      48.579   3.420  21.277  0.00  0.00    +0.000 HD
ATOM     30  H   UNL     1      48.853   2.976  19.631  0.00  0.00    +0.000 HD
ENDBRANCH  18  27
ENDBRANCH  17  22
ENDBRANCH   1  17
TORSDOF 5
ENDMDL
MODEL 9
REMARK VINA RESULT:    -7.014      3.235      4.775
REMARK INTER + INTRA:          -9.979
REMARK INTER:                  -9.060
REMARK INTRA:                  -0.918
REMARK UNBOUND:                -0.914
REMARK  Name = 
REMARK  5 active torsions:
REMARK  status: ('A' for Active; 'I' for Inactive)
REMARK    1  A    between atoms: C_2  and  C_4
REMARK    2  A    between atoms: N_8  and  C_9
REMARK    3  A    between atoms: C_9  and  C_10
REMARK    4  A    between atoms: C_10  and  C_13
REMARK    5  A    between atoms: C_17  and  C_18
REMARK                            x       y       z     vdW  Elec       q    Type
REMARK                         _______ _______ _______ _____ _____    ______ ____
ROOT
ATOM      1  C   UNL     1      48.328   8.415  12.714  0.00  0.00    +0.000 C 
ATOM      2  F   UNL     1      48.784   7.318  12.039  0.00  0.00    +0.000 F 
ATOM      3  F   UNL     1      49.065   9.463  12.230  0.00  0.00    +0.000 F 
ENDROOT
BRANCH   1   4
ATOM      4  C   UNL     1      48.481   8.252  14.214  0.00  0.00    +0.000 A 
ATOM      5  C   UNL     1      48.454   9.364  15.062  0.00  0.00    +0.000 A 
ATOM      6  C   UNL     1      48.573   9.194  16.438  0.00  0.00    +0.000 A 
ATOM      7  C   UNL     1      48.717   7.912  16.979  0.00  0.00    +0.000 A 
ATOM      8  C   UNL     1      48.727   6.767  16.164  0.00  0.00    +0.000 A 
ATOM      9  C   UNL     1      48.619   6.967  14.775  0.00  0.00    +0.000 A 
BRANCH   8  10
ATOM     10  C   UNL     1      48.824   5.409  16.742  0.00  0.00    +0.000 A 
ATOM     11  C   UNL     1      50.032   4.901  17.239  0.00  0.00    +0.000 A 
ATOM     12  N   UNL     1      50.199   3.676  17.803  0.00  0.00    +0.000 NA
ATOM     13  C   UNL     1      49.094   2.903  17.889  0.00  0.00    +0.000 A 
ATOM     14  C   UNL     1      47.853   3.303  17.435  0.00  0.00    +0.000 A 
ATOM     15  F   UNL     1      46.791   2.495  17.555  0.00  0.00    +0.000 F 
ATOM     16  C   UNL     1      47.715   4.557  16.853  0.00  0.00    +0.000 A 
ENDBRANCH   8  10
ENDBRANCH   1   4
BRANCH   1  17
ATOM     17  C   UNL     1      46.845   8.663  12.343  0.00  0.00    +0.000 C 
BRANCH  17  22
ATOM     18  C   UNL     1      44.592   4.317  11.509  0.00  0.00    +0.000 A 
ATOM     19  C   UNL     1      45.226   5.269  10.750  0.00  0.00    +0.000 A 
ATOM     20  N   UNL     1      45.686   6.438  11.249  0.00  0.00    +0.000 NA
ATOM     21  C   UNL     1      45.498   6.660  12.560  0.00  0.00    +0.000 A 
ATOM     22  N   UNL     1      45.921   7.841  13.126  0.00  0.00    +0.000 N 
ATOM     23  N   UNL     1      44.900   5.789  13.382  0.00  0.00    +0.000 NA
ATOM     24  C   UNL     1      44.432   4.643  12.834  0.00  0.00    +0.000 A 
ATOM     25  H   UNL     1      46.116   7.709  14.112  0.00  0.00    +0.000 HD
BRANCH  18  27
ATOM     26  N   UNL     1      44.836   2.412  10.028  0.00  0.00    +0.000 N 
ATOM     27  C   UNL     1      44.083   3.048  10.976  0.00  0.00    +0.000 C 
ATOM     28  O   UNL     1      43.040   2.559  11.392  0.00  0.00    +0.000 OA
ATOM     29  H   UNL     1      44.515   1.492   9.751  0.00  0.00    +0.000 HD
ATOM     30  H   UNL     1      45.805   2.635   9.847  0.00  0.00    +0.000 HD
ENDBRANCH  18  27
ENDBRANCH  17  22
ENDBRANCH   1  17
TORSDOF 5
ENDMDL
