MODEL 1
REMARK VINA RESULT:    -7.703      0.000      0.000
REMARK INTER + INTRA:         -10.167
REMARK INTER:                  -9.730
REMARK INTRA:                  -0.437
REMARK UNBOUND:                -0.437
REMARK  Name = 
REMARK  5 active torsions:
REMARK  status: ('A' for Active; 'I' for Inactive)
REMARK    1  A    between atoms: C_2  and  C_5
REMARK    2  A    between atoms: N_3  and  O_4
REMARK    3  A    between atoms: C_8  and  N_9
REMARK    4  A    between atoms: N_9  and  C_10
REMARK    5  A    between atoms: C_10  and  C_11
REMARK                            x       y       z     vdW  Elec       q    Type
REMARK                         _______ _______ _______ _____ _____    ______ ____
ROOT
ATOM      1  C   UNL     1      46.142   2.541   7.965  0.00  0.00    +0.000 A 
ATOM      2  C   UNL     1      46.106   3.916   7.825  0.00  0.00    +0.000 A 
ATOM      3  N   UNL     1      45.292   4.699   8.583  0.00  0.00    +0.000 NA
ATOM      4  C   UNL     1      44.545   4.083   9.522  0.00  0.00    +0.000 A 
ATOM      5  C   UNL     1      44.578   2.683   9.623  0.00  0.00    +0.000 A 
ATOM      6  N   UNL     1      45.365   1.882   8.867  0.00  0.00    +0.000 NA
ENDROOT
BRANCH   1   8
ATOM      7  O   UNL     1      47.162   0.501   7.278  0.00  0.00    +0.000 OA
ATOM      8  C   UNL     1      47.045   1.714   7.129  0.00  0.00    +0.000 C 
ATOM      9  N   UNL     1      47.735   2.425   6.182  0.00  0.00    +0.000 N 
ATOM     10  H   UNL     1      47.661   3.436   6.094  0.00  0.00    +0.000 HD
BRANCH   9  11
ATOM     11  O   UNL     1      48.653   1.735   5.370  0.00  0.00    +0.000 OA
ATOM     12  H   UNL     1      48.077   1.100   4.894  0.00  0.00    +0.000 HD
ENDBRANCH   9  11
ENDBRANCH   1   8
BRANCH   4  13
ATOM     13  N   UNL     1      43.743   4.902  10.303  0.00  0.00    +0.000 N 
ATOM     14  H   UNL     1      43.227   4.327  10.964  0.00  0.00    +0.000 HD
BRANCH  13  15
ATOM     15  C   UNL     1      44.339   6.079  10.912  0.00  0.00    +0.000 C 
BRANCH  15  16
ATOM     16  C   UNL     1      45.251   5.684  12.037  0.00  0.00    +0.000 A 
ATOM     17  C   UNL     1      46.563   6.163  12.114  0.00  0.00    +0.000 A 
ATOM     18  C   UNL     1      47.408   5.710  13.122  0.00  0.00    +0.000 A 
ATOM     19  C   UNL     1      46.910   4.787  14.026  0.00  0.00    +0.000 A 
ATOM     20  N   UNL     1      45.650   4.303  13.987  0.00  0.00    +0.000 NA
ATOM     21  C   UNL     1      44.853   4.760  12.996  0.00  0.00    +0.000 A 
ENDBRANCH  15  16
ENDBRANCH  13  15
ENDBRANCH   4  13
TORSDOF 5
ENDMDL
MODEL 2
REMARK VINA RESULT:    -7.517      3.537      6.346
REMARK INTER + INTRA:          -9.932
REMARK INTER:                  -9.597
REMARK INTRA:                  -0.335
REMARK UNBOUND:                -0.437
REMARK  Name = 
REMARK  5 active torsions:
REMARK  status: ('A' for Active; 'I' for Inactive)
REMARK    1  A    between atoms: C_2  and  C_5
REMARK    2  A    between atoms: N_3  and  O_4
REMARK    3  A    between atoms: C_8  and  N_9
REMARK    4  A    between atoms: N_9  and  C_10
REMARK    5  A    between atoms: C_10  and  C_11
REMARK                            x       y       z     vdW  Elec       q    Type
REMARK                         _______ _______ _______ _____ _____    ______ ____
ROOT
ATOM      1  C   UNL     1      46.365   4.741  13.443  0.00  0.00    +0.000 A 
ATOM      2  C   UNL     1      46.614   5.842  12.645  0.00  0.00    +0.000 A 
ATOM      3  N   UNL     1      46.131   5.939  11.377  0.00  0.00    +0.000 NA
ATOM      4  C   UNL     1      45.351   4.931  10.936  0.00  0.00    +0.000 A 
ATOM      5  C   UNL     1      45.140   3.812  11.756  0.00  0.00    +0.000 A 
ATOM      6  N   UNL     1      45.626   3.683  13.013  0.00  0.00    +0.000 NA
ENDROOT
BRANCH   1   8
ATOM      7  O   UNL     1      46.739   3.686  15.546  0.00  0.00    +0.000 OA
ATOM      8  C   UNL     1      46.900   4.665  14.824  0.00  0.00    +0.000 C 
ATOM      9  N   UNL     1      47.583   5.786  15.220  0.00  0.00    +0.000 N 
ATOM     10  H   UNL     1      47.676   6.609  14.628  0.00  0.00    +0.000 HD
BRANCH   9  11
ATOM     11  O   UNL     1      48.089   5.829  16.532  0.00  0.00    +0.000 OA
ATOM     12  H   UNL     1      48.752   6.548  16.477  0.00  0.00    +0.000 HD
ENDBRANCH   9  11
ENDBRANCH   1   8
BRANCH   4  13
ATOM     13  N   UNL     1      44.846   5.063   9.651  0.00  0.00    +0.000 N 
ATOM     14  H   UNL     1      45.522   5.563   9.079  0.00  0.00    +0.000 HD
BRANCH  13  15
ATOM     15  C   UNL     1      44.304   3.885   8.995  0.00  0.00    +0.000 C 
BRANCH  15  16
ATOM     16  C   UNL     1      45.404   3.080   8.367  0.00  0.00    +0.000 A 
ATOM     17  C   UNL     1      46.255   3.634   7.404  0.00  0.00    +0.000 A 
ATOM     18  C   UNL     1      47.209   2.837   6.781  0.00  0.00    +0.000 A 
ATOM     19  C   UNL     1      47.282   1.503   7.142  0.00  0.00    +0.000 A 
ATOM     20  N   UNL     1      46.481   0.931   8.068  0.00  0.00    +0.000 NA
ATOM     21  C   UNL     1      45.564   1.730   8.656  0.00  0.00    +0.000 A 
ENDBRANCH  15  16
ENDBRANCH  13  15
ENDBRANCH   4  13
TORSDOF 5
ENDMDL
MODEL 3
REMARK VINA RESULT:    -7.249      3.468      6.419
REMARK INTER + INTRA:          -9.593
REMARK INTER:                  -9.285
REMARK INTRA:                  -0.308
REMARK UNBOUND:                -0.437
REMARK  Name = 
REMARK  5 active torsions:
REMARK  status: ('A' for Active; 'I' for Inactive)
REMARK    1  A    between atoms: C_2  and  C_5
REMARK    2  A    between atoms: N_3  and  O_4
REMARK    3  A    between atoms: C_8  and  N_9
REMARK    4  A    between atoms: N_9  and  C_10
REMARK    5  A    between atoms: C_10  and  C_11
REMARK                            x       y       z     vdW  Elec       q    Type
REMARK                         _______ _______ _______ _____ _____    ______ ____
ROOT
ATOM      1  C   UNL     1      46.315   4.811  13.049  0.00  0.00    +0.000 A 
ATOM      2  C   UNL     1      45.730   3.564  12.934  0.00  0.00    +0.000 A 
ATOM      3  N   UNL     1      44.996   3.207  11.846  0.00  0.00    +0.000 NA
ATOM      4  C   UNL     1      44.897   4.108  10.848  0.00  0.00    +0.000 A 
ATOM      5  C   UNL     1      45.475   5.377  11.003  0.00  0.00    +0.000 A 
ATOM      6  N   UNL     1      46.192   5.763  12.084  0.00  0.00    +0.000 NA
ENDROOT
BRANCH   1   8
ATOM      7  O   UNL     1      48.091   5.913  14.192  0.00  0.00    +0.000 OA
ATOM      8  C   UNL     1      47.116   5.170  14.244  0.00  0.00    +0.000 C 
ATOM      9  N   UNL     1      46.670   4.595  15.407  0.00  0.00    +0.000 N 
ATOM     10  H   UNL     1      45.885   3.948  15.432  0.00  0.00    +0.000 HD
BRANCH   9  11
ATOM     11  O   UNL     1      47.393   4.839  16.589  0.00  0.00    +0.000 OA
ATOM     12  H   UNL     1      47.429   5.818  16.615  0.00  0.00    +0.000 HD
ENDBRANCH   9  11
ENDBRANCH   1   8
BRANCH   4  13
ATOM     13  N   UNL     1      44.167   3.714   9.736  0.00  0.00    +0.000 N 
ATOM     14  H   UNL     1      43.190   3.959   9.877  0.00  0.00    +0.000 HD
BRANCH  13  15
ATOM     15  C   UNL     1      44.663   4.075   8.418  0.00  0.00    +0.000 C 
BRANCH  15  16
ATOM     16  C   UNL     1      45.700   3.093   7.959  0.00  0.00    +0.000 A 
ATOM     17  C   UNL     1      46.627   3.423   6.964  0.00  0.00    +0.000 A 
ATOM     18  C   UNL     1      47.520   2.462   6.502  0.00  0.00    +0.000 A 
ATOM     19  C   UNL     1      47.457   1.194   7.054  0.00  0.00    +0.000 A 
ATOM     20  N   UNL     1      46.581   0.837   8.017  0.00  0.00    +0.000 NA
ATOM     21  C   UNL     1      45.725   1.792   8.445  0.00  0.00    +0.000 A 
ENDBRANCH  15  16
ENDBRANCH  13  15
ENDBRANCH   4  13
TORSDOF 5
ENDMDL
MODEL 4
REMARK VINA RESULT:    -6.272      3.587      5.665
REMARK INTER + INTRA:          -8.359
REMARK INTER:                  -8.011
REMARK INTRA:                  -0.348
REMARK UNBOUND:                -0.437
REMARK  Name = 
REMARK  5 active torsions:
REMARK  status: ('A' for Active; 'I' for Inactive)
REMARK    1  A    between atoms: C_2  and  C_5
REMARK    2  A    between atoms: N_3  and  O_4
REMARK    3  A    between atoms: C_8  and  N_9
REMARK    4  A    between atoms: N_9  and  C_10
REMARK    5  A    between atoms: C_10  and  C_11
REMARK                            x       y       z     vdW  Elec       q    Type
REMARK                         _______ _______ _______ _____ _____    ______ ____
ROOT
ATOM      1  C   UNL     1      45.109   4.159  11.883  0.00  0.00    +0.000 A 
ATOM      2  C   UNL     1      45.664   3.177  12.681  0.00  0.00    +0.000 A 
ATOM      3  N   UNL     1      46.387   3.475  13.794  0.00  0.00    +0.000 NA
ATOM      4  C   UNL     1      46.505   4.778  14.122  0.00  0.00    +0.000 A 
ATOM      5  C   UNL     1      45.957   5.755  13.276  0.00  0.00    +0.000 A 
ATOM      6  N   UNL     1      45.251   5.484  12.154  0.00  0.00    +0.000 NA
ENDROOT
BRANCH   1   8
ATOM      7  O   UNL     1      43.653   2.776  10.600  0.00  0.00    +0.000 OA
ATOM      8  C   UNL     1      44.319   3.804  10.678  0.00  0.00    +0.000 C 
ATOM      9  N   UNL     1      44.403   4.724   9.665  0.00  0.00    +0.000 N 
ATOM     10  H   UNL     1      44.990   5.554   9.726  0.00  0.00    +0.000 HD
BRANCH   9  11
ATOM     11  O   UNL     1      43.725   4.454   8.463  0.00  0.00    +0.000 OA
ATOM     12  H   UNL     1      43.181   5.261   8.343  0.00  0.00    +0.000 HD
ENDBRANCH   9  11
ENDBRANCH   1   8
BRANCH   4  13
ATOM     13  N   UNL     1      47.223   5.058  15.275  0.00  0.00    +0.000 N 
ATOM     14  H   UNL     1      47.029   6.015  15.562  0.00  0.00    +0.000 HD
BRANCH  13  15
ATOM     15  C   UNL     1      47.166   4.110  16.375  0.00  0.00    +0.000 C 
BRANCH  15  16
ATOM     16  C   UNL     1      48.548   3.687  16.776  0.00  0.00    +0.000 A 
ATOM     17  C   UNL     1      48.989   2.371  16.597  0.00  0.00    +0.000 A 
ATOM     18  C   UNL     1      50.246   1.992  17.058  0.00  0.00    +0.000 A 
ATOM     19  C   UNL     1      51.026   2.948  17.686  0.00  0.00    +0.000 A 
ATOM     20  N   UNL     1      50.638   4.228  17.876  0.00  0.00    +0.000 NA
ATOM     21  C   UNL     1      49.412   4.565  17.419  0.00  0.00    +0.000 A 
ENDBRANCH  15  16
ENDBRANCH  13  15
ENDBRANCH   4  13
TORSDOF 5
ENDMDL
MODEL 5
REMARK VINA RESULT:    -6.099      4.095      6.804
REMARK INTER + INTRA:          -8.141
REMARK INTER:                  -7.918
REMARK INTRA:                  -0.223
REMARK UNBOUND:                -0.437
REMARK  Name = 
REMARK  5 active torsions:
REMARK  status: ('A' for Active; 'I' for Inactive)
REMARK    1  A    between atoms: C_2  and  C_5
REMARK    2  A    between atoms: N_3  and  O_4
REMARK    3  A    between atoms: C_8  and  N_9
REMARK    4  A    between atoms: N_9  and  C_10
REMARK    5  A    between atoms: C_10  and  C_11
REMARK                            x       y       z     vdW  Elec       q    Type
REMARK                         _______ _______ _______ _____ _____    ______ ____
ROOT
ATOM      1  C   UNL     1      47.438   6.204  13.748  0.00  0.00    +0.000 A 
ATOM      2  C   UNL     1      46.673   6.402  12.614  0.00  0.00    +0.000 A 
ATOM      3  N   UNL     1      45.974   5.392  12.029  0.00  0.00    +0.000 NA
ATOM      4  C   UNL     1      46.014   4.186  12.630  0.00  0.00    +0.000 A 
ATOM      5  C   UNL     1      46.823   4.006  13.763  0.00  0.00    +0.000 A 
ATOM      6  N   UNL     1      47.543   4.989  14.351  0.00  0.00    +0.000 NA
ENDROOT
BRANCH   1   8
ATOM      7  O   UNL     1      49.400   7.297  14.544  0.00  0.00    +0.000 OA
ATOM      8  C   UNL     1      48.185   7.325  14.368  0.00  0.00    +0.000 C 
ATOM      9  N   UNL     1      47.398   8.389  14.727  0.00  0.00    +0.000 N 
ATOM     10  H   UNL     1      46.387   8.385  14.613  0.00  0.00    +0.000 HD
BRANCH   9  11
ATOM     11  O   UNL     1      48.009   9.483  15.365  0.00  0.00    +0.000 OA
ATOM     12  H   UNL     1      47.540  10.247  14.968  0.00  0.00    +0.000 HD
ENDBRANCH   9  11
ENDBRANCH   1   8
BRANCH   4  13
ATOM     13  N   UNL     1      45.272   3.177  12.034  0.00  0.00    +0.000 N 
ATOM     14  H   UNL     1      44.851   2.603  12.760  0.00  0.00    +0.000 HD
BRANCH  13  15
ATOM     15  C   UNL     1      44.342   3.535  10.976  0.00  0.00    +0.000 C 
BRANCH  15  16
ATOM     16  C   UNL     1      44.972   3.329   9.630  0.00  0.00    +0.000 A 
ATOM     17  C   UNL     1      45.361   2.057   9.194  0.00  0.00    +0.000 A 
ATOM     18  C   UNL     1      46.019   1.914   7.976  0.00  0.00    +0.000 A 
ATOM     19  C   UNL     1      46.267   3.053   7.231  0.00  0.00    +0.000 A 
ATOM     20  N   UNL     1      45.905   4.296   7.615  0.00  0.00    +0.000 NA
ATOM     21  C   UNL     1      45.269   4.404   8.802  0.00  0.00    +0.000 A 
ENDBRANCH  15  16
ENDBRANCH  13  15
ENDBRANCH   4  13
TORSDOF 5
ENDMDL
MODEL 6
REMARK VINA RESULT:    -5.558      3.633      5.102
REMARK INTER + INTRA:          -7.457
REMARK INTER:                  -7.148
REMARK INTRA:                  -0.309
REMARK UNBOUND:                -0.437
REMARK  Name = 
REMARK  5 active torsions:
REMARK  status: ('A' for Active; 'I' for Inactive)
REMARK    1  A    between atoms: C_2  and  C_5
REMARK    2  A    between atoms: N_3  and  O_4
REMARK    3  A    between atoms: C_8  and  N_9
REMARK    4  A    between atoms: N_9  and  C_10
REMARK    5  A    between atoms: C_10  and  C_11
REMARK                            x       y       z     vdW  Elec       q    Type
REMARK                         _______ _______ _______ _____ _____    ______ ____
ROOT
ATOM      1  C   UNL     1      44.707   4.153  11.678  0.00  0.00    +0.000 A 
ATOM      2  C   UNL     1      44.886   5.337  10.988  0.00  0.00    +0.000 A 
ATOM      3  N   UNL     1      45.429   6.439  11.573  0.00  0.00    +0.000 NA
ATOM      4  C   UNL     1      45.835   6.320  12.853  0.00  0.00    +0.000 A 
ATOM      5  C   UNL     1      45.613   5.115  13.539  0.00  0.00    +0.000 A 
ATOM      6  N   UNL     1      45.057   4.012  12.985  0.00  0.00    +0.000 NA
ENDROOT
BRANCH   1   8
ATOM      7  O   UNL     1      43.076   2.440  11.391  0.00  0.00    +0.000 OA
ATOM      8  C   UNL     1      44.119   2.965  11.013  0.00  0.00    +0.000 C 
ATOM      9  N   UNL     1      44.845   2.508   9.944  0.00  0.00    +0.000 N 
ATOM     10  H   UNL     1      45.730   2.926   9.663  0.00  0.00    +0.000 HD
BRANCH   9  11
ATOM     11  O   UNL     1      44.393   1.356   9.275  0.00  0.00    +0.000 OA
ATOM     12  H   UNL     1      43.525   1.645   8.922  0.00  0.00    +0.000 HD
ENDBRANCH   9  11
ENDBRANCH   1   8
BRANCH   4  13
ATOM     13  N   UNL     1      46.411   7.446  13.422  0.00  0.00    +0.000 N 
ATOM     14  H   UNL     1      47.423   7.350  13.395  0.00  0.00    +0.000 HD
BRANCH  13  15
ATOM     15  C   UNL     1      45.949   8.754  12.989  0.00  0.00    +0.000 C 
BRANCH  15  16
ATOM     16  C   UNL     1      47.032   9.472  12.238  0.00  0.00    +0.000 A 
ATOM     17  C   UNL     1      48.303   8.910  12.076  0.00  0.00    +0.000 A 
ATOM     18  C   UNL     1      49.308   9.638  11.448  0.00  0.00    +0.000 A 
ATOM     19  C   UNL     1      49.008  10.913  11.000  0.00  0.00    +0.000 A 
ATOM     20  N   UNL     1      47.794  11.490  11.135  0.00  0.00    +0.000 NA
ATOM     21  C   UNL     1      46.838  10.758  11.749  0.00  0.00    +0.000 A 
ENDBRANCH  15  16
ENDBRANCH  13  15
ENDBRANCH   4  13
TORSDOF 5
ENDMDL
MODEL 7
REMARK VINA RESULT:    -5.502      3.018      4.592
REMARK INTER + INTRA:          -7.386
REMARK INTER:                  -7.011
REMARK INTRA:                  -0.375
REMARK UNBOUND:                -0.437
REMARK  Name = 
REMARK  5 active torsions:
REMARK  status: ('A' for Active; 'I' for Inactive)
REMARK    1  A    between atoms: C_2  and  C_5
REMARK    2  A    between atoms: N_3  and  O_4
REMARK    3  A    between atoms: C_8  and  N_9
REMARK    4  A    between atoms: N_9  and  C_10
REMARK    5  A    between atoms: C_10  and  C_11
REMARK                            x       y       z     vdW  Elec       q    Type
REMARK                         _______ _______ _______ _____ _____    ______ ____
ROOT
ATOM      1  C   UNL     1      44.335   4.326  11.484  0.00  0.00    +0.000 A 
ATOM      2  C   UNL     1      44.100   4.632  12.811  0.00  0.00    +0.000 A 
ATOM      3  N   UNL     1      44.423   5.842  13.342  0.00  0.00    +0.000 NA
ATOM      4  C   UNL     1      44.943   6.763  12.505  0.00  0.00    +0.000 A 
ATOM      5  C   UNL     1      45.200   6.415  11.170  0.00  0.00    +0.000 A 
ATOM      6  N   UNL     1      44.906   5.212  10.624  0.00  0.00    +0.000 NA
ENDROOT
BRANCH   1   8
ATOM      7  O   UNL     1      43.023   2.342  11.358  0.00  0.00    +0.000 OA
ATOM      8  C   UNL     1      43.967   3.000  10.931  0.00  0.00    +0.000 C 
ATOM      9  N   UNL     1      44.775   2.579   9.908  0.00  0.00    +0.000 N 
ATOM     10  H   UNL     1      45.580   3.114   9.589  0.00  0.00    +0.000 HD
BRANCH   9  11
ATOM     11  O   UNL     1      44.535   1.311   9.347  0.00  0.00    +0.000 OA
ATOM     12  H   UNL     1      45.193   1.274   8.622  0.00  0.00    +0.000 HD
ENDBRANCH   9  11
ENDBRANCH   1   8
BRANCH   4  13
ATOM     13  N   UNL     1      45.240   7.999  13.060  0.00  0.00    +0.000 N 
ATOM     14  H   UNL     1      45.482   7.872  14.040  0.00  0.00    +0.000 HD
BRANCH  13  15
ATOM     15  C   UNL     1      46.159   8.874  12.352  0.00  0.00    +0.000 C 
BRANCH  15  16
ATOM     16  C   UNL     1      47.577   8.568  12.736  0.00  0.00    +0.000 A 
ATOM     17  C   UNL     1      48.490   8.058  11.807  0.00  0.00    +0.000 A 
ATOM     18  C   UNL     1      49.772   7.706  12.216  0.00  0.00    +0.000 A 
ATOM     19  C   UNL     1      50.101   7.876  13.550  0.00  0.00    +0.000 A 
ATOM     20  N   UNL     1      49.250   8.367  14.477  0.00  0.00    +0.000 NA
ATOM     21  C   UNL     1      48.012   8.699  14.050  0.00  0.00    +0.000 A 
ENDBRANCH  15  16
ENDBRANCH  13  15
ENDBRANCH   4  13
TORSDOF 5
ENDMDL
MODEL 8
REMARK VINA RESULT:    -5.458      3.698      5.744
REMARK INTER + INTRA:          -7.331
REMARK INTER:                  -6.962
REMARK INTRA:                  -0.370
REMARK UNBOUND:                -0.437
REMARK  Name = 
REMARK  5 active torsions:
REMARK  status: ('A' for Active; 'I' for Inactive)
REMARK    1  A    between atoms: C_2  and  C_5
REMARK    2  A    between atoms: N_3  and  O_4
REMARK    3  A    between atoms: C_8  and  N_9
REMARK    4  A    between atoms: N_9  and  C_10
REMARK    5  A    between atoms: C_10  and  C_11
REMARK                            x       y       z     vdW  Elec       q    Type
REMARK                         _______ _______ _______ _____ _____    ______ ____
ROOT
ATOM      1  C   UNL     1      45.552   4.102  12.442  0.00  0.00    +0.000 A 
ATOM      2  C   UNL     1      45.730   5.419  12.061  0.00  0.00    +0.000 A 
ATOM      3  N   UNL     1      46.506   6.278  12.774  0.00  0.00    +0.000 NA
ATOM      4  C   UNL     1      47.144   5.781  13.853  0.00  0.00    +0.000 A 
ATOM      5  C   UNL     1      46.922   4.449  14.234  0.00  0.00    +0.000 A 
ATOM      6  N   UNL     1      46.138   3.581  13.553  0.00  0.00    +0.000 NA
ENDROOT
BRANCH   1   8
ATOM      7  O   UNL     1      44.765   3.124  10.417  0.00  0.00    +0.000 OA
ATOM      8  C   UNL     1      44.704   3.185  11.641  0.00  0.00    +0.000 C 
ATOM      9  N   UNL     1      43.849   2.419  12.391  0.00  0.00    +0.000 N 
ATOM     10  H   UNL     1      43.779   2.507  13.402  0.00  0.00    +0.000 HD
BRANCH   9  11
ATOM     11  O   UNL     1      42.970   1.551  11.718  0.00  0.00    +0.000 OA
ATOM     12  H   UNL     1      42.825   2.016  10.868  0.00  0.00    +0.000 HD
ENDBRANCH   9  11
ENDBRANCH   1   8
BRANCH   4  13
ATOM     13  N   UNL     1      47.953   6.667  14.550  0.00  0.00    +0.000 N 
ATOM     14  H   UNL     1      48.853   6.226  14.724  0.00  0.00    +0.000 HD
BRANCH  13  15
ATOM     15  C   UNL     1      48.069   8.031  14.061  0.00  0.00    +0.000 C 
BRANCH  15  16
ATOM     16  C   UNL     1      49.385   8.230  13.367  0.00  0.00    +0.000 A 
ATOM     17  C   UNL     1      49.488   8.187  11.972  0.00  0.00    +0.000 A 
ATOM     18  C   UNL     1      50.735   8.291  11.366  0.00  0.00    +0.000 A 
ATOM     19  C   UNL     1      51.846   8.437  12.178  0.00  0.00    +0.000 A 
ATOM     20  N   UNL     1      51.789   8.486  13.527  0.00  0.00    +0.000 NA
ATOM     21  C   UNL     1      50.564   8.381  14.088  0.00  0.00    +0.000 A 
ENDBRANCH  15  16
ENDBRANCH  13  15
ENDBRANCH   4  13
TORSDOF 5
ENDMDL
MODEL 9
REMARK VINA RESULT:    -5.403      3.823      5.977
REMARK INTER + INTRA:          -7.261
REMARK INTER:                  -6.934
REMARK INTRA:                  -0.328
REMARK UNBOUND:                -0.437
REMARK  Name = 
REMARK  5 active torsions:
REMARK  status: ('A' for Active; 'I' for Inactive)
REMARK    1  A    between atoms: C_2  and  C_5
REMARK    2  A    between atoms: N_3  and  O_4
REMARK    3  A    between atoms: C_8  and  N_9
REMARK    4  A    between atoms: N_9  and  C_10
REMARK    5  A    between atoms: C_10  and  C_11
REMARK                            x       y       z     vdW  Elec       q    Type
REMARK                         _______ _______ _______ _____ _____    ______ ____
ROOT
ATOM      1  C   UNL     1      45.607   4.167  12.599  0.00  0.00    +0.000 A 
ATOM      2  C   UNL     1      45.713   5.509  12.285  0.00  0.00    +0.000 A 
ATOM      3  N   UNL     1      46.453   6.370  13.035  0.00  0.00    +0.000 NA
ATOM      4  C   UNL     1      47.128   5.852  14.081  0.00  0.00    +0.000 A 
ATOM      5  C   UNL     1      46.978   4.493  14.395  0.00  0.00    +0.000 A 
ATOM      6  N   UNL     1      46.232   3.621  13.677  0.00  0.00    +0.000 NA
ENDROOT
BRANCH   1   8
ATOM      7  O   UNL     1      44.948   3.157  10.544  0.00  0.00    +0.000 OA
ATOM      8  C   UNL     1      44.798   3.251  11.759  0.00  0.00    +0.000 C 
ATOM      9  N   UNL     1      43.871   2.524  12.461  0.00  0.00    +0.000 N 
ATOM     10  H   UNL     1      43.728   2.639  13.462  0.00  0.00    +0.000 HD
BRANCH   9  11
ATOM     11  O   UNL     1      43.023   1.659  11.746  0.00  0.00    +0.000 OA
ATOM     12  H   UNL     1      42.545   2.277  11.154  0.00  0.00    +0.000 HD
ENDBRANCH   9  11
ENDBRANCH   1   8
BRANCH   4  13
ATOM     13  N   UNL     1      47.898   6.742  14.816  0.00  0.00    +0.000 N 
ATOM     14  H   UNL     1      47.282   7.383  15.310  0.00  0.00    +0.000 HD
BRANCH  13  15
ATOM     15  C   UNL     1      48.962   6.211  15.651  0.00  0.00    +0.000 C 
BRANCH  15  16
ATOM     16  C   UNL     1      48.569   6.263  17.099  0.00  0.00    +0.000 A 
ATOM     17  C   UNL     1      48.527   7.473  17.800  0.00  0.00    +0.000 A 
ATOM     18  C   UNL     1      48.240   7.476  19.161  0.00  0.00    +0.000 A 
ATOM     19  C   UNL     1      48.005   6.261  19.781  0.00  0.00    +0.000 A 
ATOM     20  N   UNL     1      48.033   5.073  19.140  0.00  0.00    +0.000 NA
ATOM     21  C   UNL     1      48.314   5.102  17.818  0.00  0.00    +0.000 A 
ENDBRANCH  15  16
ENDBRANCH  13  15
ENDBRANCH   4  13
TORSDOF 5
ENDMDL
