MODEL 1
REMARK VINA RESULT:    -9.151      0.000      0.000
REMARK INTER + INTRA:         -12.692
REMARK INTER:                 -11.826
REMARK INTRA:                  -0.865
REMARK UNBOUND:                -0.865
REMARK  Name = 
REMARK  5 active torsions:
REMARK  status: ('A' for Active; 'I' for Inactive)
REMARK    1  A    between atoms: C_2  and  C_4
REMARK    2  A    between atoms: C_7  and  O_8
REMARK    3  A    between atoms: O_8  and  C_9
REMARK    4  A    between atoms: C_9  and  C_10
REMARK    5  A    between atoms: C_15  and  C_16
REMARK                            x       y       z     vdW  Elec       q    Type
REMARK                         _______ _______ _______ _____ _____    ______ ____
ROOT
ATOM      1  C   UNL     1      43.822   4.394  11.563  0.00  0.00    +0.000 C 
ENDROOT
BRANCH   1   2
ATOM      2  C   UNL     1      45.120   4.888  12.152  0.00  0.00    +0.000 A 
ATOM      3  C   UNL     1      45.710   6.077  11.704  0.00  0.00    +0.000 A 
ATOM      4  C   UNL     1      46.856   6.556  12.315  0.00  0.00    +0.000 A 
ATOM      5  F   UNL     1      47.412   7.695  11.883  0.00  0.00    +0.000 F 
ATOM      6  C   UNL     1      47.415   5.898  13.401  0.00  0.00    +0.000 A 
ATOM      7  C   UNL     1      46.822   4.739  13.925  0.00  0.00    +0.000 A 
ATOM      8  C   UNL     1      45.694   4.223  13.255  0.00  0.00    +0.000 A 
BRANCH   7   9
ATOM      9  C   UNL     1      47.313   4.140  15.181  0.00  0.00    +0.000 A 
ATOM     10  C   UNL     1      47.142   4.792  16.407  0.00  0.00    +0.000 A 
ATOM     11  C   UNL     1      47.578   4.188  17.579  0.00  0.00    +0.000 A 
ATOM     12  C   UNL     1      48.179   2.939  17.508  0.00  0.00    +0.000 A 
ATOM     13  C   UNL     1      48.309   2.349  16.260  0.00  0.00    +0.000 A 
ATOM     14  N   UNL     1      47.884   2.915  15.105  0.00  0.00    +0.000 NA
ENDBRANCH   7   9
ENDBRANCH   1   2
BRANCH   1  15
ATOM     15  O   UNL     1      43.788   4.604  10.149  0.00  0.00    +0.000 OA
BRANCH  15  19
ATOM     16  C   UNL     1      46.399   2.430   7.728  0.00  0.00    +0.000 A 
ATOM     17  C   UNL     1      45.632   1.741   8.673  0.00  0.00    +0.000 A 
ATOM     18  C   UNL     1      44.745   2.434   9.500  0.00  0.00    +0.000 A 
ATOM     19  C   UNL     1      44.617   3.820   9.393  0.00  0.00    +0.000 A 
ATOM     20  C   UNL     1      45.391   4.509   8.452  0.00  0.00    +0.000 A 
ATOM     21  C   UNL     1      46.286   3.820   7.627  0.00  0.00    +0.000 A 
BRANCH  16  23
ATOM     22  N   UNL     1      48.471   2.413   6.455  0.00  0.00    +0.000 N 
ATOM     23  C   UNL     1      47.360   1.719   6.845  0.00  0.00    +0.000 C 
ATOM     24  O   UNL     1      47.185   0.557   6.508  0.00  0.00    +0.000 OA
ATOM     25  H   UNL     1      49.165   1.890   5.937  0.00  0.00    +0.000 HD
ATOM     26  H   UNL     1      48.771   3.258   6.919  0.00  0.00    +0.000 HD
ENDBRANCH  16  23
ENDBRANCH  15  19
ENDBRANCH   1  15
TORSDOF 5
ENDMDL
MODEL 2
REMARK VINA RESULT:    -9.114      2.393      3.942
REMARK INTER + INTRA:         -12.644
REMARK INTER:                 -11.546
REMARK INTRA:                  -1.098
REMARK UNBOUND:                -0.865
REMARK  Name = 
REMARK  5 active torsions:
REMARK  status: ('A' for Active; 'I' for Inactive)
REMARK    1  A    between atoms: C_2  and  C_4
REMARK    2  A    between atoms: C_7  and  O_8
REMARK    3  A    between atoms: O_8  and  C_9
REMARK    4  A    between atoms: C_9  and  C_10
REMARK    5  A    between atoms: C_15  and  C_16
REMARK                            x       y       z     vdW  Elec       q    Type
REMARK                         _______ _______ _______ _____ _____    ______ ____
ROOT
ATOM      1  C   UNL     1      43.486   4.515  11.297  0.00  0.00    +0.000 C 
ENDROOT
BRANCH   1   2
ATOM      2  C   UNL     1      44.738   4.854  12.069  0.00  0.00    +0.000 A 
ATOM      3  C   UNL     1      45.405   3.881  12.825  0.00  0.00    +0.000 A 
ATOM      4  C   UNL     1      46.596   4.191  13.457  0.00  0.00    +0.000 A 
ATOM      5  F   UNL     1      47.230   3.255  14.175  0.00  0.00    +0.000 F 
ATOM      6  C   UNL     1      47.172   5.446  13.323  0.00  0.00    +0.000 A 
ATOM      7  C   UNL     1      46.572   6.432  12.523  0.00  0.00    +0.000 A 
ATOM      8  C   UNL     1      45.327   6.128  11.937  0.00  0.00    +0.000 A 
BRANCH   7   9
ATOM      9  C   UNL     1      47.269   7.701  12.240  0.00  0.00    +0.000 A 
ATOM     10  C   UNL     1      48.587   7.713  11.770  0.00  0.00    +0.000 A 
ATOM     11  C   UNL     1      49.205   8.920  11.474  0.00  0.00    +0.000 A 
ATOM     12  C   UNL     1      48.496  10.100  11.649  0.00  0.00    +0.000 A 
ATOM     13  C   UNL     1      47.191  10.012  12.111  0.00  0.00    +0.000 A 
ATOM     14  N   UNL     1      46.565   8.846  12.399  0.00  0.00    +0.000 NA
ENDBRANCH   7   9
ENDBRANCH   1   2
BRANCH   1  15
ATOM     15  O   UNL     1      43.677   4.725   9.895  0.00  0.00    +0.000 OA
BRANCH  15  19
ATOM     16  C   UNL     1      46.333   2.264   7.822  0.00  0.00    +0.000 A 
ATOM     17  C   UNL     1      45.428   1.674   8.710  0.00  0.00    +0.000 A 
ATOM     18  C   UNL     1      44.522   2.465   9.421  0.00  0.00    +0.000 A 
ATOM     19  C   UNL     1      44.512   3.851   9.253  0.00  0.00    +0.000 A 
ATOM     20  C   UNL     1      45.423   4.440   8.369  0.00  0.00    +0.000 A 
ATOM     21  C   UNL     1      46.337   3.652   7.661  0.00  0.00    +0.000 A 
BRANCH  16  23
ATOM     22  N   UNL     1      48.410   2.099   6.568  0.00  0.00    +0.000 N 
ATOM     23  C   UNL     1      47.316   1.447   7.064  0.00  0.00    +0.000 C 
ATOM     24  O   UNL     1      47.173   0.242   6.916  0.00  0.00    +0.000 OA
ATOM     25  H   UNL     1      49.120   1.519   6.140  0.00  0.00    +0.000 HD
ATOM     26  H   UNL     1      48.685   3.015   6.891  0.00  0.00    +0.000 HD
ENDBRANCH  16  23
ENDBRANCH  15  19
ENDBRANCH   1  15
TORSDOF 5
ENDMDL
MODEL 3
REMARK VINA RESULT:    -8.355      2.703      4.726
REMARK INTER + INTRA:         -11.663
REMARK INTER:                 -10.665
REMARK INTRA:                  -0.998
REMARK UNBOUND:                -0.865
REMARK  Name = 
REMARK  5 active torsions:
REMARK  status: ('A' for Active; 'I' for Inactive)
REMARK    1  A    between atoms: C_2  and  C_4
REMARK    2  A    between atoms: C_7  and  O_8
REMARK    3  A    between atoms: O_8  and  C_9
REMARK    4  A    between atoms: C_9  and  C_10
REMARK    5  A    between atoms: C_15  and  C_16
REMARK                            x       y       z     vdW  Elec       q    Type
REMARK                         _______ _______ _______ _____ _____    ______ ____
ROOT
ATOM      1  C   UNL     1      44.358   3.635  11.727  0.00  0.00    +0.000 C 
ENDROOT
BRANCH   1   2
ATOM      2  C   UNL     1      45.072   4.834  12.302  0.00  0.00    +0.000 A 
ATOM      3  C   UNL     1      46.221   4.681  13.089  0.00  0.00    +0.000 A 
ATOM      4  C   UNL     1      46.908   5.796  13.536  0.00  0.00    +0.000 A 
ATOM      5  F   UNL     1      48.007   5.642  14.286  0.00  0.00    +0.000 F 
ATOM      6  C   UNL     1      46.503   7.075  13.183  0.00  0.00    +0.000 A 
ATOM      7  C   UNL     1      45.396   7.274  12.343  0.00  0.00    +0.000 A 
ATOM      8  C   UNL     1      44.664   6.136  11.947  0.00  0.00    +0.000 A 
BRANCH   7   9
ATOM      9  C   UNL     1      45.071   8.618  11.827  0.00  0.00    +0.000 A 
ATOM     10  C   UNL     1      45.914   9.708  12.069  0.00  0.00    +0.000 A 
ATOM     11  C   UNL     1      45.605  10.953  11.539  0.00  0.00    +0.000 A 
ATOM     12  C   UNL     1      44.457  11.091  10.770  0.00  0.00    +0.000 A 
ATOM     13  C   UNL     1      43.673   9.965  10.565  0.00  0.00    +0.000 A 
ATOM     14  N   UNL     1      43.958   8.740  11.066  0.00  0.00    +0.000 NA
ENDBRANCH   7   9
ENDBRANCH   1   2
BRANCH   1  15
ATOM     15  O   UNL     1      43.956   3.878  10.376  0.00  0.00    +0.000 OA
BRANCH  15  19
ATOM     16  C   UNL     1      46.702   2.716   7.459  0.00  0.00    +0.000 A 
ATOM     17  C   UNL     1      46.432   4.079   7.619  0.00  0.00    +0.000 A 
ATOM     18  C   UNL     1      45.520   4.506   8.587  0.00  0.00    +0.000 A 
ATOM     19  C   UNL     1      44.869   3.579   9.402  0.00  0.00    +0.000 A 
ATOM     20  C   UNL     1      45.134   2.215   9.234  0.00  0.00    +0.000 A 
ATOM     21  C   UNL     1      46.041   1.782   8.262  0.00  0.00    +0.000 A 
BRANCH  16  23
ATOM     22  N   UNL     1      47.823   3.018   5.322  0.00  0.00    +0.000 N 
ATOM     23  C   UNL     1      47.657   2.233   6.428  0.00  0.00    +0.000 C 
ATOM     24  O   UNL     1      48.291   1.197   6.573  0.00  0.00    +0.000 OA
ATOM     25  H   UNL     1      48.546   2.731   4.675  0.00  0.00    +0.000 HD
ATOM     26  H   UNL     1      47.525   3.982   5.295  0.00  0.00    +0.000 HD
ENDBRANCH  16  23
ENDBRANCH  15  19
ENDBRANCH   1  15
TORSDOF 5
ENDMDL
MODEL 4
REMARK VINA RESULT:    -7.965      2.271      2.908
REMARK INTER + INTRA:         -11.159
REMARK INTER:                 -10.297
REMARK INTRA:                  -0.862
REMARK UNBOUND:                -0.865
REMARK  Name = 
REMARK  5 active torsions:
REMARK  status: ('A' for Active; 'I' for Inactive)
REMARK    1  A    between atoms: C_2  and  C_4
REMARK    2  A    between atoms: C_7  and  O_8
REMARK    3  A    between atoms: O_8  and  C_9
REMARK    4  A    between atoms: C_9  and  C_10
REMARK    5  A    between atoms: C_15  and  C_16
REMARK                            x       y       z     vdW  Elec       q    Type
REMARK                         _______ _______ _______ _____ _____    ______ ____
ROOT
ATOM      1  C   UNL     1      44.461   4.161  11.674  0.00  0.00    +0.000 C 
ENDROOT
BRANCH   1   2
ATOM      2  C   UNL     1      45.077   5.533  11.797  0.00  0.00    +0.000 A 
ATOM      3  C   UNL     1      44.377   6.677  11.392  0.00  0.00    +0.000 A 
ATOM      4  C   UNL     1      44.927   7.932  11.591  0.00  0.00    +0.000 A 
ATOM      5  F   UNL     1      44.250   9.022  11.205  0.00  0.00    +0.000 F 
ATOM      6  C   UNL     1      46.150   8.085  12.228  0.00  0.00    +0.000 A 
ATOM      7  C   UNL     1      46.857   6.970  12.708  0.00  0.00    +0.000 A 
ATOM      8  C   UNL     1      46.320   5.694  12.442  0.00  0.00    +0.000 A 
BRANCH   7   9
ATOM      9  C   UNL     1      48.066   7.142  13.535  0.00  0.00    +0.000 A 
ATOM     10  C   UNL     1      48.180   6.522  14.785  0.00  0.00    +0.000 A 
ATOM     11  C   UNL     1      49.346   6.668  15.525  0.00  0.00    +0.000 A 
ATOM     12  C   UNL     1      50.383   7.430  15.004  0.00  0.00    +0.000 A 
ATOM     13  C   UNL     1      50.202   8.008  13.756  0.00  0.00    +0.000 A 
ATOM     14  N   UNL     1      49.079   7.873  13.013  0.00  0.00    +0.000 NA
ENDBRANCH   7   9
ENDBRANCH   1   2
BRANCH   1  15
ATOM     15  O   UNL     1      43.936   3.951  10.360  0.00  0.00    +0.000 OA
BRANCH  15  19
ATOM     16  C   UNL     1      46.651   2.703   7.448  0.00  0.00    +0.000 A 
ATOM     17  C   UNL     1      46.382   4.070   7.571  0.00  0.00    +0.000 A 
ATOM     18  C   UNL     1      45.481   4.527   8.536  0.00  0.00    +0.000 A 
ATOM     19  C   UNL     1      44.839   3.624   9.385  0.00  0.00    +0.000 A 
ATOM     20  C   UNL     1      45.102   2.255   9.255  0.00  0.00    +0.000 A 
ATOM     21  C   UNL     1      45.999   1.794   8.286  0.00  0.00    +0.000 A 
BRANCH  16  23
ATOM     22  N   UNL     1      47.858   3.008   5.359  0.00  0.00    +0.000 N 
ATOM     23  C   UNL     1      47.595   2.190   6.422  0.00  0.00    +0.000 C 
ATOM     24  O   UNL     1      48.138   1.100   6.535  0.00  0.00    +0.000 OA
ATOM     25  H   UNL     1      48.575   2.692   4.719  0.00  0.00    +0.000 HD
ATOM     26  H   UNL     1      47.641   3.993   5.370  0.00  0.00    +0.000 HD
ENDBRANCH  16  23
ENDBRANCH  15  19
ENDBRANCH   1  15
TORSDOF 5
ENDMDL
MODEL 5
REMARK VINA RESULT:    -7.684      3.680      7.201
REMARK INTER + INTRA:         -10.795
REMARK INTER:                  -9.814
REMARK INTRA:                  -0.981
REMARK UNBOUND:                -0.865
REMARK  Name = 
REMARK  5 active torsions:
REMARK  status: ('A' for Active; 'I' for Inactive)
REMARK    1  A    between atoms: C_2  and  C_4
REMARK    2  A    between atoms: C_7  and  O_8
REMARK    3  A    between atoms: O_8  and  C_9
REMARK    4  A    between atoms: C_9  and  C_10
REMARK    5  A    between atoms: C_15  and  C_16
REMARK                            x       y       z     vdW  Elec       q    Type
REMARK                         _______ _______ _______ _____ _____    ______ ____
ROOT
ATOM      1  C   UNL     1      44.254   6.635  11.345  0.00  0.00    +0.000 C 
ENDROOT
BRANCH   1   2
ATOM      2  C   UNL     1      44.357   5.172  10.987  0.00  0.00    +0.000 A 
ATOM      3  C   UNL     1      43.546   4.217  11.613  0.00  0.00    +0.000 A 
ATOM      4  C   UNL     1      43.598   2.894  11.211  0.00  0.00    +0.000 A 
ATOM      5  F   UNL     1      42.817   1.986  11.812  0.00  0.00    +0.000 F 
ATOM      6  C   UNL     1      44.412   2.497  10.160  0.00  0.00    +0.000 A 
ATOM      7  C   UNL     1      45.193   3.431   9.461  0.00  0.00    +0.000 A 
ATOM      8  C   UNL     1      45.184   4.763   9.921  0.00  0.00    +0.000 A 
BRANCH   7   9
ATOM      9  C   UNL     1      45.922   3.041   8.238  0.00  0.00    +0.000 A 
ATOM     10  C   UNL     1      46.388   1.734   8.062  0.00  0.00    +0.000 A 
ATOM     11  C   UNL     1      47.036   1.384   6.885  0.00  0.00    +0.000 A 
ATOM     12  C   UNL     1      47.207   2.346   5.899  0.00  0.00    +0.000 A 
ATOM     13  C   UNL     1      46.712   3.620   6.140  0.00  0.00    +0.000 A 
ATOM     14  N   UNL     1      46.070   3.982   7.276  0.00  0.00    +0.000 NA
ENDBRANCH   7   9
ENDBRANCH   1   2
BRANCH   1  15
ATOM     15  O   UNL     1      44.890   6.902  12.598  0.00  0.00    +0.000 OA
BRANCH  15  19
ATOM     16  C   UNL     1      48.962   7.790  12.416  0.00  0.00    +0.000 A 
ATOM     17  C   UNL     1      48.572   6.531  12.882  0.00  0.00    +0.000 A 
ATOM     18  C   UNL     1      47.218   6.196  12.955  0.00  0.00    +0.000 A 
ATOM     19  C   UNL     1      46.242   7.114  12.566  0.00  0.00    +0.000 A 
ATOM     20  C   UNL     1      46.634   8.377  12.107  0.00  0.00    +0.000 A 
ATOM     21  C   UNL     1      47.988   8.719  12.039  0.00  0.00    +0.000 A 
BRANCH  16  23
ATOM     22  N   UNL     1      51.164   7.918  13.440  0.00  0.00    +0.000 N 
ATOM     23  C   UNL     1      50.395   8.177  12.341  0.00  0.00    +0.000 C 
ATOM     24  O   UNL     1      50.875   8.674  11.332  0.00  0.00    +0.000 OA
ATOM     25  H   UNL     1      52.156   8.094  13.343  0.00  0.00    +0.000 HD
ATOM     26  H   UNL     1      50.870   7.283  14.167  0.00  0.00    +0.000 HD
ENDBRANCH  16  23
ENDBRANCH  15  19
ENDBRANCH   1  15
TORSDOF 5
ENDMDL
MODEL 6
REMARK VINA RESULT:    -7.293      3.361      8.270
REMARK INTER + INTRA:         -10.290
REMARK INTER:                  -9.670
REMARK INTRA:                  -0.620
REMARK UNBOUND:                -0.865
REMARK  Name = 
REMARK  5 active torsions:
REMARK  status: ('A' for Active; 'I' for Inactive)
REMARK    1  A    between atoms: C_2  and  C_4
REMARK    2  A    between atoms: C_7  and  O_8
REMARK    3  A    between atoms: O_8  and  C_9
REMARK    4  A    between atoms: C_9  and  C_10
REMARK    5  A    between atoms: C_15  and  C_16
REMARK                            x       y       z     vdW  Elec       q    Type
REMARK                         _______ _______ _______ _____ _____    ______ ____
ROOT
ATOM      1  C   UNL     1      46.121   5.145  14.015  0.00  0.00    +0.000 C 
ENDROOT
BRANCH   1   2
ATOM      2  C   UNL     1      45.170   4.850  12.881  0.00  0.00    +0.000 A 
ATOM      3  C   UNL     1      43.864   5.357  12.884  0.00  0.00    +0.000 A 
ATOM      4  C   UNL     1      43.036   5.144  11.796  0.00  0.00    +0.000 A 
ATOM      5  F   UNL     1      41.789   5.635  11.804  0.00  0.00    +0.000 F 
ATOM      6  C   UNL     1      43.490   4.469  10.672  0.00  0.00    +0.000 A 
ATOM      7  C   UNL     1      44.811   4.000  10.598  0.00  0.00    +0.000 A 
ATOM      8  C   UNL     1      45.626   4.163  11.737  0.00  0.00    +0.000 A 
BRANCH   7   9
ATOM      9  C   UNL     1      45.344   3.439   9.342  0.00  0.00    +0.000 A 
ATOM     10  C   UNL     1      45.755   4.272   8.296  0.00  0.00    +0.000 A 
ATOM     11  C   UNL     1      46.290   3.719   7.141  0.00  0.00    +0.000 A 
ATOM     12  C   UNL     1      46.410   2.340   7.048  0.00  0.00    +0.000 A 
ATOM     13  C   UNL     1      45.989   1.576   8.127  0.00  0.00    +0.000 A 
ATOM     14  N   UNL     1      45.471   2.093   9.266  0.00  0.00    +0.000 NA
ENDBRANCH   7   9
ENDBRANCH   1   2
BRANCH   1  15
ATOM     15  O   UNL     1      46.451   3.952  14.730  0.00  0.00    +0.000 OA
BRANCH  15  19
ATOM     16  C   UNL     1      48.806   4.642  18.103  0.00  0.00    +0.000 A 
ATOM     17  C   UNL     1      47.990   3.508  18.079  0.00  0.00    +0.000 A 
ATOM     18  C   UNL     1      47.189   3.241  16.966  0.00  0.00    +0.000 A 
ATOM     19  C   UNL     1      47.194   4.105  15.869  0.00  0.00    +0.000 A 
ATOM     20  C   UNL     1      48.006   5.245  15.899  0.00  0.00    +0.000 A 
ATOM     21  C   UNL     1      48.805   5.518  17.014  0.00  0.00    +0.000 A 
BRANCH  16  23
ATOM     22  N   UNL     1      49.369   4.304  20.445  0.00  0.00    +0.000 N 
ATOM     23  C   UNL     1      49.658   4.956  19.280  0.00  0.00    +0.000 C 
ATOM     24  O   UNL     1      50.597   5.737  19.205  0.00  0.00    +0.000 OA
ATOM     25  H   UNL     1      50.014   4.450  21.211  0.00  0.00    +0.000 HD
ATOM     26  H   UNL     1      48.789   3.479  20.472  0.00  0.00    +0.000 HD
ENDBRANCH  16  23
ENDBRANCH  15  19
ENDBRANCH   1  15
TORSDOF 5
ENDMDL
MODEL 7
REMARK VINA RESULT:    -7.240      3.153      3.849
REMARK INTER + INTRA:         -10.222
REMARK INTER:                  -9.372
REMARK INTRA:                  -0.850
REMARK UNBOUND:                -0.865
REMARK  Name = 
REMARK  5 active torsions:
REMARK  status: ('A' for Active; 'I' for Inactive)
REMARK    1  A    between atoms: C_2  and  C_4
REMARK    2  A    between atoms: C_7  and  O_8
REMARK    3  A    between atoms: O_8  and  C_9
REMARK    4  A    between atoms: C_9  and  C_10
REMARK    5  A    between atoms: C_15  and  C_16
REMARK                            x       y       z     vdW  Elec       q    Type
REMARK                         _______ _______ _______ _____ _____    ______ ____
ROOT
ATOM      1  C   UNL     1      45.145   4.987  11.864  0.00  0.00    +0.000 C 
ENDROOT
BRANCH   1   2
ATOM      2  C   UNL     1      45.672   6.400  11.924  0.00  0.00    +0.000 A 
ATOM      3  C   UNL     1      44.813   7.480  12.165  0.00  0.00    +0.000 A 
ATOM      4  C   UNL     1      45.329   8.758  12.300  0.00  0.00    +0.000 A 
ATOM      5  F   UNL     1      44.502   9.786  12.534  0.00  0.00    +0.000 F 
ATOM      6  C   UNL     1      46.696   8.988  12.243  0.00  0.00    +0.000 A 
ATOM      7  C   UNL     1      47.598   7.927  12.068  0.00  0.00    +0.000 A 
ATOM      8  C   UNL     1      47.060   6.639  11.866  0.00  0.00    +0.000 A 
BRANCH   7   9
ATOM      9  C   UNL     1      49.053   8.146  12.181  0.00  0.00    +0.000 A 
ATOM     10  C   UNL     1      49.616   8.659  13.354  0.00  0.00    +0.000 A 
ATOM     11  C   UNL     1      50.992   8.818  13.448  0.00  0.00    +0.000 A 
ATOM     12  C   UNL     1      51.787   8.459  12.368  0.00  0.00    +0.000 A 
ATOM     13  C   UNL     1      51.160   7.950  11.241  0.00  0.00    +0.000 A 
ATOM     14  N   UNL     1      49.821   7.778  11.129  0.00  0.00    +0.000 NA
ENDBRANCH   7   9
ENDBRANCH   1   2
BRANCH   1  15
ATOM     15  O   UNL     1      44.391   4.772  10.668  0.00  0.00    +0.000 OA
BRANCH  15  19
ATOM     16  C   UNL     1      46.356   2.810   7.554  0.00  0.00    +0.000 A 
ATOM     17  C   UNL     1      45.656   2.044   8.492  0.00  0.00    +0.000 A 
ATOM     18  C   UNL     1      44.984   2.665   9.547  0.00  0.00    +0.000 A 
ATOM     19  C   UNL     1      45.006   4.055   9.677  0.00  0.00    +0.000 A 
ATOM     20  C   UNL     1      45.714   4.819   8.743  0.00  0.00    +0.000 A 
ATOM     21  C   UNL     1      46.394   4.201   7.688  0.00  0.00    +0.000 A 
BRANCH  16  23
ATOM     22  N   UNL     1      47.291   2.935   5.313  0.00  0.00    +0.000 N 
ATOM     23  C   UNL     1      47.091   2.174   6.430  0.00  0.00    +0.000 C 
ATOM     24  O   UNL     1      47.526   1.034   6.508  0.00  0.00    +0.000 OA
ATOM     25  H   UNL     1      47.876   2.529   4.594  0.00  0.00    +0.000 HD
ATOM     26  H   UNL     1      47.184   3.939   5.317  0.00  0.00    +0.000 HD
ENDBRANCH  16  23
ENDBRANCH  15  19
ENDBRANCH   1  15
TORSDOF 5
ENDMDL
MODEL 8
REMARK VINA RESULT:    -6.985      3.456      7.055
REMARK INTER + INTRA:          -9.893
REMARK INTER:                  -9.092
REMARK INTRA:                  -0.801
REMARK UNBOUND:                -0.865
REMARK  Name = 
REMARK  5 active torsions:
REMARK  status: ('A' for Active; 'I' for Inactive)
REMARK    1  A    between atoms: C_2  and  C_4
REMARK    2  A    between atoms: C_7  and  O_8
REMARK    3  A    between atoms: O_8  and  C_9
REMARK    4  A    between atoms: C_9  and  C_10
REMARK    5  A    between atoms: C_15  and  C_16
REMARK                            x       y       z     vdW  Elec       q    Type
REMARK                         _______ _______ _______ _____ _____    ______ ____
ROOT
ATOM      1  C   UNL     1      46.095   4.839  14.017  0.00  0.00    +0.000 C 
ENDROOT
BRANCH   1   2
ATOM      2  C   UNL     1      45.155   4.613  12.858  0.00  0.00    +0.000 A 
ATOM      3  C   UNL     1      43.863   5.156  12.860  0.00  0.00    +0.000 A 
ATOM      4  C   UNL     1      43.048   5.008  11.751  0.00  0.00    +0.000 A 
ATOM      5  F   UNL     1      41.815   5.532  11.759  0.00  0.00    +0.000 F 
ATOM      6  C   UNL     1      43.502   4.363  10.610  0.00  0.00    +0.000 A 
ATOM      7  C   UNL     1      44.811   3.860  10.539  0.00  0.00    +0.000 A 
ATOM      8  C   UNL     1      45.611   3.958  11.696  0.00  0.00    +0.000 A 
BRANCH   7   9
ATOM      9  C   UNL     1      45.350   3.333   9.271  0.00  0.00    +0.000 A 
ATOM     10  C   UNL     1      45.689   4.190   8.218  0.00  0.00    +0.000 A 
ATOM     11  C   UNL     1      46.232   3.670   7.051  0.00  0.00    +0.000 A 
ATOM     12  C   UNL     1      46.430   2.300   6.953  0.00  0.00    +0.000 A 
ATOM     13  C   UNL     1      46.078   1.512   8.038  0.00  0.00    +0.000 A 
ATOM     14  N   UNL     1      45.555   1.997   9.190  0.00  0.00    +0.000 NA
ENDBRANCH   7   9
ENDBRANCH   1   2
BRANCH   1  15
ATOM     15  O   UNL     1      47.411   5.155  13.555  0.00  0.00    +0.000 OA
BRANCH  15  19
ATOM     16  C   UNL     1      48.236   8.948  12.028  0.00  0.00    +0.000 A 
ATOM     17  C   UNL     1      47.026   8.745  12.697  0.00  0.00    +0.000 A 
ATOM     18  C   UNL     1      46.715   7.490  13.225  0.00  0.00    +0.000 A 
ATOM     19  C   UNL     1      47.608   6.426  13.087  0.00  0.00    +0.000 A 
ATOM     20  C   UNL     1      48.815   6.628  12.410  0.00  0.00    +0.000 A 
ATOM     21  C   UNL     1      49.128   7.882  11.874  0.00  0.00    +0.000 A 
BRANCH  16  23
ATOM     22  N   UNL     1      47.549  11.105  11.139  0.00  0.00    +0.000 N 
ATOM     23  C   UNL     1      48.586  10.269  11.446  0.00  0.00    +0.000 C 
ATOM     24  O   UNL     1      49.749  10.611  11.278  0.00  0.00    +0.000 OA
ATOM     25  H   UNL     1      47.800  12.037  10.836  0.00  0.00    +0.000 HD
ATOM     26  H   UNL     1      46.618  10.965  11.502  0.00  0.00    +0.000 HD
ENDBRANCH  16  23
ENDBRANCH  15  19
ENDBRANCH   1  15
TORSDOF 5
ENDMDL
MODEL 9
REMARK VINA RESULT:    -6.751      3.466      8.273
REMARK INTER + INTRA:          -9.589
REMARK INTER:                  -8.807
REMARK INTRA:                  -0.783
REMARK UNBOUND:                -0.865
REMARK  Name = 
REMARK  5 active torsions:
REMARK  status: ('A' for Active; 'I' for Inactive)
REMARK    1  A    between atoms: C_2  and  C_4
REMARK    2  A    between atoms: C_7  and  O_8
REMARK    3  A    between atoms: O_8  and  C_9
REMARK    4  A    between atoms: C_9  and  C_10
REMARK    5  A    between atoms: C_15  and  C_16
REMARK                            x       y       z     vdW  Elec       q    Type
REMARK                         _______ _______ _______ _____ _____    ______ ____
ROOT
ATOM      1  C   UNL     1      48.227   7.050  14.021  0.00  0.00    +0.000 C 
ENDROOT
BRANCH   1   2
ATOM      2  C   UNL     1      46.988   7.144  13.163  0.00  0.00    +0.000 A 
ATOM      3  C   UNL     1      46.304   8.357  13.014  0.00  0.00    +0.000 A 
ATOM      4  C   UNL     1      45.220   8.441  12.158  0.00  0.00    +0.000 A 
ATOM      5  F   UNL     1      44.573   9.606  12.018  0.00  0.00    +0.000 F 
ATOM      6  C   UNL     1      44.819   7.349  11.403  0.00  0.00    +0.000 A 
ATOM      7  C   UNL     1      45.514   6.131  11.471  0.00  0.00    +0.000 A 
ATOM      8  C   UNL     1      46.575   6.036  12.395  0.00  0.00    +0.000 A 
BRANCH   7   9
ATOM      9  C   UNL     1      45.198   5.027  10.544  0.00  0.00    +0.000 A 
ATOM     10  C   UNL     1      45.623   5.059   9.211  0.00  0.00    +0.000 A 
ATOM     11  C   UNL     1      45.345   3.990   8.371  0.00  0.00    +0.000 A 
ATOM     12  C   UNL     1      44.648   2.901   8.876  0.00  0.00    +0.000 A 
ATOM     13  C   UNL     1      44.265   2.935  10.209  0.00  0.00    +0.000 A 
ATOM     14  N   UNL     1      44.531   3.963  11.049  0.00  0.00    +0.000 NA
ENDBRANCH   7   9
ENDBRANCH   1   2
BRANCH   1  15
ATOM     15  O   UNL     1      48.433   5.710  14.476  0.00  0.00    +0.000 OA
BRANCH  15  19
ATOM     16  C   UNL     1      48.082   5.228  18.605  0.00  0.00    +0.000 A 
ATOM     17  C   UNL     1      47.358   4.373  17.768  0.00  0.00    +0.000 A 
ATOM     18  C   UNL     1      47.452   4.502  16.380  0.00  0.00    +0.000 A 
ATOM     19  C   UNL     1      48.266   5.485  15.816  0.00  0.00    +0.000 A 
ATOM     20  C   UNL     1      48.984   6.345  16.656  0.00  0.00    +0.000 A 
ATOM     21  C   UNL     1      48.888   6.223  18.046  0.00  0.00    +0.000 A 
BRANCH  16  23
ATOM     22  N   UNL     1      48.612   4.052  20.667  0.00  0.00    +0.000 N 
ATOM     23  C   UNL     1      47.991   5.121  20.084  0.00  0.00    +0.000 C 
ATOM     24  O   UNL     1      47.415   5.965  20.756  0.00  0.00    +0.000 OA
ATOM     25  H   UNL     1      48.629   4.042  21.679  0.00  0.00    +0.000 HD
ATOM     26  H   UNL     1      49.303   3.499  20.182  0.00  0.00    +0.000 HD
ENDBRANCH  16  23
ENDBRANCH  15  19
ENDBRANCH   1  15
TORSDOF 5
ENDMDL
