MODEL 1
REMARK VINA RESULT:    -7.434      0.000      0.000
REMARK INTER + INTRA:          -8.848
REMARK INTER:                  -8.738
REMARK INTRA:                  -0.110
REMARK UNBOUND:                -0.110
REMARK  Name = 
REMARK  3 active torsions:
REMARK  status: ('A' for Active; 'I' for Inactive)
REMARK    1  A    between atoms: C_2  and  C_4
REMARK    2  A    between atoms: N_8  and  C_9
REMARK    3  A    between atoms: C_9  and  C_10
REMARK                            x       y       z     vdW  Elec       q    Type
REMARK                         _______ _______ _______ _____ _____    ______ ____
ROOT
ATOM      1  C   UNL     1      46.307   2.970   7.730  0.00  0.00    +0.000 A 
ATOM      2  C   UNL     1      45.727   1.885   8.379  0.00  0.00    +0.000 A 
ATOM      3  C   UNL     1      44.917   2.124   9.482  0.00  0.00    +0.000 A 
ATOM      4  C   UNL     1      44.735   3.426   9.938  0.00  0.00    +0.000 A 
ATOM      5  N   UNL     1      43.715   3.583  10.907  0.00  0.00    +0.000 N 
ATOM      6  N   UNL     1      45.370   4.481   9.383  0.00  0.00    +0.000 NA
ATOM      7  C   UNL     1      46.144   4.233   8.291  0.00  0.00    +0.000 A 
ATOM      8  H   UNL     1      42.852   3.529  10.354  0.00  0.00    +0.000 HD
ENDROOT
BRANCH   1  10
ATOM      9  N   UNL     1      48.334   2.524   6.500  0.00  0.00    +0.000 N 
ATOM     10  C   UNL     1      46.993   2.822   6.440  0.00  0.00    +0.000 C 
ATOM     11  O   UNL     1      46.400   2.902   5.373  0.00  0.00    +0.000 OA
ATOM     12  H   UNL     1      48.782   2.282   5.623  0.00  0.00    +0.000 HD
ATOM     13  H   UNL     1      48.773   2.205   7.353  0.00  0.00    +0.000 HD
ENDBRANCH   1  10
BRANCH   5  14
ATOM     14  C   UNL     1      43.641   4.827  11.727  0.00  0.00    +0.000 C 
ATOM     15  C   UNL     1      42.312   5.436  12.141  0.00  0.00    +0.000 C 
ATOM     16  C   UNL     1      43.041   5.993  10.961  0.00  0.00    +0.000 C 
BRANCH  14  17
ATOM     17  C   UNL     1      44.817   4.972  12.718  0.00  0.00    +0.000 A 
ATOM     18  N   UNL     1      45.404   6.198  12.779  0.00  0.00    +0.000 NA
ATOM     19  C   UNL     1      46.673   6.242  13.219  0.00  0.00    +0.000 A 
ATOM     20  C   UNL     1      47.361   5.140  13.657  0.00  0.00    +0.000 A 
ATOM     21  C   UNL     1      46.635   3.976  13.711  0.00  0.00    +0.000 A 
ATOM     22  N   UNL     1      45.369   3.868  13.271  0.00  0.00    +0.000 NA
ENDBRANCH  14  17
ENDBRANCH   5  14
TORSDOF 3
ENDMDL
MODEL 2
REMARK VINA RESULT:    -6.378      3.044      6.164
REMARK INTER + INTRA:          -7.606
REMARK INTER:                  -8.050
REMARK INTRA:                   0.444
REMARK UNBOUND:                -0.110
REMARK  Name = 
REMARK  3 active torsions:
REMARK  status: ('A' for Active; 'I' for Inactive)
REMARK    1  A    between atoms: C_2  and  C_4
REMARK    2  A    between atoms: N_8  and  C_9
REMARK    3  A    between atoms: C_9  and  C_10
REMARK                            x       y       z     vdW  Elec       q    Type
REMARK                         _______ _______ _______ _____ _____    ______ ____
ROOT
ATOM      1  C   UNL     1      48.135   6.356  13.903  0.00  0.00    +0.000 A 
ATOM      2  C   UNL     1      48.224   7.166  12.776  0.00  0.00    +0.000 A 
ATOM      3  C   UNL     1      47.286   7.007  11.765  0.00  0.00    +0.000 A 
ATOM      4  C   UNL     1      46.308   6.023  11.876  0.00  0.00    +0.000 A 
ATOM      5  N   UNL     1      45.270   6.101  10.917  0.00  0.00    +0.000 N 
ATOM      6  N   UNL     1      46.267   5.161  12.915  0.00  0.00    +0.000 NA
ATOM      7  C   UNL     1      47.181   5.343  13.907  0.00  0.00    +0.000 A 
ATOM      8  H   UNL     1      44.693   6.880  11.254  0.00  0.00    +0.000 HD
ENDROOT
BRANCH   1  10
ATOM      9  N   UNL     1      48.322   6.404  16.308  0.00  0.00    +0.000 N 
ATOM     10  C   UNL     1      48.948   6.605  15.100  0.00  0.00    +0.000 C 
ATOM     11  O   UNL     1      50.130   6.916  15.033  0.00  0.00    +0.000 OA
ATOM     12  H   UNL     1      48.910   6.435  17.133  0.00  0.00    +0.000 HD
ATOM     13  H   UNL     1      47.444   5.908  16.378  0.00  0.00    +0.000 HD
ENDBRANCH   1  10
BRANCH   5  14
ATOM     14  C   UNL     1      44.361   4.938  10.696  0.00  0.00    +0.000 C 
ATOM     15  C   UNL     1      42.884   4.997  11.046  0.00  0.00    +0.000 C 
ATOM     16  C   UNL     1      43.840   4.352  11.996  0.00  0.00    +0.000 C 
BRANCH  14  17
ATOM     17  C   UNL     1      44.758   4.082   9.472  0.00  0.00    +0.000 A 
ATOM     18  N   UNL     1      44.636   2.735   9.617  0.00  0.00    +0.000 NA
ATOM     19  C   UNL     1      45.399   1.968   8.818  0.00  0.00    +0.000 A 
ATOM     20  C   UNL     1      46.224   2.473   7.847  0.00  0.00    +0.000 A 
ATOM     21  C   UNL     1      46.159   3.833   7.668  0.00  0.00    +0.000 A 
ATOM     22  N   UNL     1      45.427   4.651   8.444  0.00  0.00    +0.000 NA
ENDBRANCH  14  17
ENDBRANCH   5  14
TORSDOF 3
ENDMDL
MODEL 3
REMARK VINA RESULT:    -6.113      3.313      6.214
REMARK INTER + INTRA:          -7.295
REMARK INTER:                  -7.533
REMARK INTRA:                   0.238
REMARK UNBOUND:                -0.110
REMARK  Name = 
REMARK  3 active torsions:
REMARK  status: ('A' for Active; 'I' for Inactive)
REMARK    1  A    between atoms: C_2  and  C_4
REMARK    2  A    between atoms: N_8  and  C_9
REMARK    3  A    between atoms: C_9  and  C_10
REMARK                            x       y       z     vdW  Elec       q    Type
REMARK                         _______ _______ _______ _____ _____    ______ ____
ROOT
ATOM      1  C   UNL     1      45.365   9.251  12.040  0.00  0.00    +0.000 A 
ATOM      2  C   UNL     1      46.247   8.556  12.860  0.00  0.00    +0.000 A 
ATOM      3  C   UNL     1      46.220   7.168  12.841  0.00  0.00    +0.000 A 
ATOM      4  C   UNL     1      45.293   6.503  12.044  0.00  0.00    +0.000 A 
ATOM      5  N   UNL     1      45.505   5.110  11.915  0.00  0.00    +0.000 N 
ATOM      6  N   UNL     1      44.363   7.161  11.318  0.00  0.00    +0.000 NA
ATOM      7  C   UNL     1      44.416   8.521  11.331  0.00  0.00    +0.000 A 
ATOM      8  H   UNL     1      46.293   5.048  11.260  0.00  0.00    +0.000 HD
ENDROOT
BRANCH   1  10
ATOM      9  N   UNL     1      44.293  11.402  11.834  0.00  0.00    +0.000 N 
ATOM     10  C   UNL     1      45.475  10.702  11.840  0.00  0.00    +0.000 C 
ATOM     11  O   UNL     1      46.558  11.266  11.742  0.00  0.00    +0.000 OA
ATOM     12  H   UNL     1      44.367  12.414  11.839  0.00  0.00    +0.000 HD
ATOM     13  H   UNL     1      43.429  10.995  12.166  0.00  0.00    +0.000 HD
ENDBRANCH   1  10
BRANCH   5  14
ATOM     14  C   UNL     1      44.421   4.228  11.392  0.00  0.00    +0.000 C 
ATOM     15  C   UNL     1      42.968   4.420  11.793  0.00  0.00    +0.000 C 
ATOM     16  C   UNL     1      43.788   3.377  12.478  0.00  0.00    +0.000 C 
BRANCH  14  17
ATOM     17  C   UNL     1      44.691   3.720   9.958  0.00  0.00    +0.000 A 
ATOM     18  N   UNL     1      44.649   2.372   9.781  0.00  0.00    +0.000 NA
ATOM     19  C   UNL     1      45.333   1.875   8.735  0.00  0.00    +0.000 A 
ATOM     20  C   UNL     1      46.002   2.657   7.829  0.00  0.00    +0.000 A 
ATOM     21  C   UNL     1      45.854   4.011   7.997  0.00  0.00    +0.000 A 
ATOM     22  N   UNL     1      45.195   4.565   9.030  0.00  0.00    +0.000 NA
ENDBRANCH  14  17
ENDBRANCH   5  14
TORSDOF 3
ENDMDL
MODEL 4
REMARK VINA RESULT:    -5.459      3.363      5.421
REMARK INTER + INTRA:          -6.526
REMARK INTER:                  -6.953
REMARK INTRA:                   0.427
REMARK UNBOUND:                -0.110
REMARK  Name = 
REMARK  3 active torsions:
REMARK  status: ('A' for Active; 'I' for Inactive)
REMARK    1  A    between atoms: C_2  and  C_4
REMARK    2  A    between atoms: N_8  and  C_9
REMARK    3  A    between atoms: C_9  and  C_10
REMARK                            x       y       z     vdW  Elec       q    Type
REMARK                         _______ _______ _______ _____ _____    ______ ____
ROOT
ATOM      1  C   UNL     1      45.008   3.892  11.544  0.00  0.00    +0.000 A 
ATOM      2  C   UNL     1      45.458   3.741  12.850  0.00  0.00    +0.000 A 
ATOM      3  C   UNL     1      46.169   4.780  13.435  0.00  0.00    +0.000 A 
ATOM      4  C   UNL     1      46.452   5.927  12.698  0.00  0.00    +0.000 A 
ATOM      5  N   UNL     1      46.966   7.009  13.451  0.00  0.00    +0.000 N 
ATOM      6  N   UNL     1      46.111   6.050  11.398  0.00  0.00    +0.000 NA
ATOM      7  C   UNL     1      45.397   5.032  10.845  0.00  0.00    +0.000 A 
ATOM      8  H   UNL     1      46.138   7.379  13.932  0.00  0.00    +0.000 HD
ENDROOT
BRANCH   1  10
ATOM      9  N   UNL     1      44.498   2.334   9.774  0.00  0.00    +0.000 N 
ATOM     10  C   UNL     1      44.072   2.940  10.932  0.00  0.00    +0.000 C 
ATOM     11  O   UNL     1      43.000   2.655  11.451  0.00  0.00    +0.000 OA
ATOM     12  H   UNL     1      43.923   1.576   9.424  0.00  0.00    +0.000 HD
ATOM     13  H   UNL     1      45.465   2.363   9.480  0.00  0.00    +0.000 HD
ENDBRANCH   1  10
BRANCH   5  14
ATOM     14  C   UNL     1      47.629   8.156  12.764  0.00  0.00    +0.000 C 
ATOM     15  C   UNL     1      48.696   7.947  11.703  0.00  0.00    +0.000 C 
ATOM     16  C   UNL     1      49.105   8.262  13.104  0.00  0.00    +0.000 C 
BRANCH  14  17
ATOM     17  C   UNL     1      46.702   9.381  12.595  0.00  0.00    +0.000 A 
ATOM     18  N   UNL     1      45.367   9.124  12.567  0.00  0.00    +0.000 NA
ATOM     19  C   UNL     1      44.587  10.030  11.951  0.00  0.00    +0.000 A 
ATOM     20  C   UNL     1      45.063  11.201  11.420  0.00  0.00    +0.000 A 
ATOM     21  C   UNL     1      46.396  11.448  11.639  0.00  0.00    +0.000 A 
ATOM     22  N   UNL     1      47.226  10.574  12.234  0.00  0.00    +0.000 NA
ENDBRANCH  14  17
ENDBRANCH   5  14
TORSDOF 3
ENDMDL
MODEL 5
REMARK VINA RESULT:    -5.445      2.982      5.731
REMARK INTER + INTRA:          -6.509
REMARK INTER:                  -6.830
REMARK INTRA:                   0.321
REMARK UNBOUND:                -0.110
REMARK  Name = 
REMARK  3 active torsions:
REMARK  status: ('A' for Active; 'I' for Inactive)
REMARK    1  A    between atoms: C_2  and  C_4
REMARK    2  A    between atoms: N_8  and  C_9
REMARK    3  A    between atoms: C_9  and  C_10
REMARK                            x       y       z     vdW  Elec       q    Type
REMARK                         _______ _______ _______ _____ _____    ______ ____
ROOT
ATOM      1  C   UNL     1      48.754   7.229  13.163  0.00  0.00    +0.000 A 
ATOM      2  C   UNL     1      48.295   6.570  14.298  0.00  0.00    +0.000 A 
ATOM      3  C   UNL     1      47.154   5.785  14.198  0.00  0.00    +0.000 A 
ATOM      4  C   UNL     1      46.471   5.707  12.987  0.00  0.00    +0.000 A 
ATOM      5  N   UNL     1      45.473   4.706  12.928  0.00  0.00    +0.000 N 
ATOM      6  N   UNL     1      46.844   6.419  11.902  0.00  0.00    +0.000 NA
ATOM      7  C   UNL     1      47.976   7.166  12.010  0.00  0.00    +0.000 A 
ATOM      8  H   UNL     1      46.010   3.839  12.818  0.00  0.00    +0.000 HD
ENDROOT
BRANCH   1  10
ATOM      9  N   UNL     1      50.898   7.636  14.190  0.00  0.00    +0.000 N 
ATOM     10  C   UNL     1      50.061   7.896  13.131  0.00  0.00    +0.000 C 
ATOM     11  O   UNL     1      50.412   8.598  12.191  0.00  0.00    +0.000 OA
ATOM     12  H   UNL     1      51.850   7.977  14.108  0.00  0.00    +0.000 HD
ATOM     13  H   UNL     1      50.729   6.871  14.829  0.00  0.00    +0.000 HD
ENDBRANCH   1  10
BRANCH   5  14
ATOM     14  C   UNL     1      44.444   4.731  11.847  0.00  0.00    +0.000 C 
ATOM     15  C   UNL     1      43.493   5.902  11.672  0.00  0.00    +0.000 C 
ATOM     16  C   UNL     1      43.028   4.677  12.390  0.00  0.00    +0.000 C 
BRANCH  14  17
ATOM     17  C   UNL     1      44.895   3.996  10.564  0.00  0.00    +0.000 A 
ATOM     18  N   UNL     1      45.415   4.775   9.577  0.00  0.00    +0.000 NA
ATOM     19  C   UNL     1      45.355   4.288   8.325  0.00  0.00    +0.000 A 
ATOM     20  C   UNL     1      44.862   3.046   8.019  0.00  0.00    +0.000 A 
ATOM     21  C   UNL     1      44.510   2.270   9.096  0.00  0.00    +0.000 A 
ATOM     22  N   UNL     1      44.534   2.708  10.367  0.00  0.00    +0.000 NA
ENDBRANCH  14  17
ENDBRANCH   5  14
TORSDOF 3
ENDMDL
MODEL 6
REMARK VINA RESULT:    -5.318      3.650      5.634
REMARK INTER + INTRA:          -6.360
REMARK INTER:                  -6.263
REMARK INTRA:                  -0.098
REMARK UNBOUND:                -0.110
REMARK  Name = 
REMARK  3 active torsions:
REMARK  status: ('A' for Active; 'I' for Inactive)
REMARK    1  A    between atoms: C_2  and  C_4
REMARK    2  A    between atoms: N_8  and  C_9
REMARK    3  A    between atoms: C_9  and  C_10
REMARK                            x       y       z     vdW  Elec       q    Type
REMARK                         _______ _______ _______ _____ _____    ______ ____
ROOT
ATOM      1  C   UNL     1      44.615   4.839  12.146  0.00  0.00    +0.000 A 
ATOM      2  C   UNL     1      44.130   6.121  11.911  0.00  0.00    +0.000 A 
ATOM      3  C   UNL     1      45.019   7.187  11.951  0.00  0.00    +0.000 A 
ATOM      4  C   UNL     1      46.357   6.963  12.262  0.00  0.00    +0.000 A 
ATOM      5  N   UNL     1      47.214   8.067  12.043  0.00  0.00    +0.000 N 
ATOM      6  N   UNL     1      46.825   5.740  12.592  0.00  0.00    +0.000 NA
ATOM      7  C   UNL     1      45.947   4.703  12.529  0.00  0.00    +0.000 A 
ATOM      8  H   UNL     1      47.330   8.081  11.024  0.00  0.00    +0.000 HD
ENDROOT
BRANCH   1  10
ATOM      9  N   UNL     1      44.194   2.499  12.555  0.00  0.00    +0.000 N 
ATOM     10  C   UNL     1      43.793   3.646  11.911  0.00  0.00    +0.000 C 
ATOM     11  O   UNL     1      42.776   3.678  11.230  0.00  0.00    +0.000 OA
ATOM     12  H   UNL     1      43.557   1.711  12.513  0.00  0.00    +0.000 HD
ATOM     13  H   UNL     1      44.865   2.518  13.311  0.00  0.00    +0.000 HD
ENDBRANCH   1  10
BRANCH   5  14
ATOM     14  C   UNL     1      48.579   8.091  12.646  0.00  0.00    +0.000 C 
ATOM     15  C   UNL     1      49.687   8.968  12.088  0.00  0.00    +0.000 C 
ATOM     16  C   UNL     1      49.636   7.522  11.716  0.00  0.00    +0.000 C 
BRANCH  14  17
ATOM     17  C   UNL     1      48.573   7.858  14.173  0.00  0.00    +0.000 A 
ATOM     18  N   UNL     1      48.005   8.837  14.928  0.00  0.00    +0.000 NA
ATOM     19  C   UNL     1      48.400   8.921  16.211  0.00  0.00    +0.000 A 
ATOM     20  C   UNL     1      49.281   8.044  16.790  0.00  0.00    +0.000 A 
ATOM     21  C   UNL     1      49.675   6.995  15.996  0.00  0.00    +0.000 A 
ATOM     22  N   UNL     1      49.325   6.868  14.705  0.00  0.00    +0.000 NA
ENDBRANCH  14  17
ENDBRANCH   5  14
TORSDOF 3
ENDMDL
MODEL 7
REMARK VINA RESULT:    -5.266      2.609      3.900
REMARK INTER + INTRA:          -6.299
REMARK INTER:                  -6.201
REMARK INTRA:                  -0.098
REMARK UNBOUND:                -0.110
REMARK  Name = 
REMARK  3 active torsions:
REMARK  status: ('A' for Active; 'I' for Inactive)
REMARK    1  A    between atoms: C_2  and  C_4
REMARK    2  A    between atoms: N_8  and  C_9
REMARK    3  A    between atoms: C_9  and  C_10
REMARK                            x       y       z     vdW  Elec       q    Type
REMARK                         _______ _______ _______ _____ _____    ______ ____
ROOT
ATOM      1  C   UNL     1      44.978   3.585  10.037  0.00  0.00    +0.000 A 
ATOM      2  C   UNL     1      44.846   3.257  11.381  0.00  0.00    +0.000 A 
ATOM      3  C   UNL     1      45.089   4.239  12.333  0.00  0.00    +0.000 A 
ATOM      4  C   UNL     1      45.498   5.507  11.932  0.00  0.00    +0.000 A 
ATOM      5  N   UNL     1      45.487   6.489  12.951  0.00  0.00    +0.000 N 
ATOM      6  N   UNL     1      45.729   5.815  10.638  0.00  0.00    +0.000 NA
ATOM      7  C   UNL     1      45.467   4.848   9.716  0.00  0.00    +0.000 A 
ATOM      8  H   UNL     1      44.491   6.713  13.056  0.00  0.00    +0.000 HD
ENDROOT
BRANCH   1  10
ATOM      9  N   UNL     1      44.179   3.268   7.783  0.00  0.00    +0.000 N 
ATOM     10  C   UNL     1      44.534   2.677   8.972  0.00  0.00    +0.000 C 
ATOM     11  O   UNL     1      44.533   1.461   9.111  0.00  0.00    +0.000 OA
ATOM     12  H   UNL     1      44.007   2.645   7.002  0.00  0.00    +0.000 HD
ATOM     13  H   UNL     1      44.416   4.228   7.571  0.00  0.00    +0.000 HD
ENDBRANCH   1  10
BRANCH   5  14
ATOM     14  C   UNL     1      46.215   7.778  12.762  0.00  0.00    +0.000 C 
ATOM     15  C   UNL     1      45.667   9.093  13.291  0.00  0.00    +0.000 C 
ATOM     16  C   UNL     1      45.468   8.739  11.853  0.00  0.00    +0.000 C 
BRANCH  14  17
ATOM     17  C   UNL     1      47.751   7.613  12.751  0.00  0.00    +0.000 A 
ATOM     18  N   UNL     1      48.309   7.106  13.883  0.00  0.00    +0.000 NA
ATOM     19  C   UNL     1      49.602   7.397  14.105  0.00  0.00    +0.000 A 
ATOM     20  C   UNL     1      50.378   8.112  13.230  0.00  0.00    +0.000 A 
ATOM     21  C   UNL     1      49.774   8.442  12.042  0.00  0.00    +0.000 A 
ATOM     22  N   UNL     1      48.481   8.190  11.770  0.00  0.00    +0.000 NA
ENDBRANCH  14  17
ENDBRANCH   5  14
TORSDOF 3
ENDMDL
MODEL 8
REMARK VINA RESULT:    -5.176      6.511      9.135
REMARK INTER + INTRA:          -6.193
REMARK INTER:                  -6.132
REMARK INTRA:                  -0.061
REMARK UNBOUND:                -0.110
REMARK  Name = 
REMARK  3 active torsions:
REMARK  status: ('A' for Active; 'I' for Inactive)
REMARK    1  A    between atoms: C_2  and  C_4
REMARK    2  A    between atoms: N_8  and  C_9
REMARK    3  A    between atoms: C_9  and  C_10
REMARK                            x       y       z     vdW  Elec       q    Type
REMARK                         _______ _______ _______ _____ _____    ______ ____
ROOT
ATOM      1  C   UNL     1      52.488   1.617  17.650  0.00  0.00    +0.000 A 
ATOM      2  C   UNL     1      52.872   2.948  17.771  0.00  0.00    +0.000 A 
ATOM      3  C   UNL     1      51.889   3.929  17.755  0.00  0.00    +0.000 A 
ATOM      4  C   UNL     1      50.556   3.571  17.576  0.00  0.00    +0.000 A 
ATOM      5  N   UNL     1      49.622   4.609  17.812  0.00  0.00    +0.000 N 
ATOM      6  N   UNL     1      50.175   2.295  17.357  0.00  0.00    +0.000 NA
ATOM      7  C   UNL     1      51.147   1.343  17.396  0.00  0.00    +0.000 A 
ATOM      8  H   UNL     1      49.592   4.675  18.835  0.00  0.00    +0.000 HD
ENDROOT
BRANCH   1  10
ATOM      9  N   UNL     1      53.804  -0.198  16.759  0.00  0.00    +0.000 N 
ATOM     10  C   UNL     1      53.433   0.516  17.874  0.00  0.00    +0.000 C 
ATOM     11  O   UNL     1      53.910   0.280  18.977  0.00  0.00    +0.000 OA
ATOM     12  H   UNL     1      54.559  -0.864  16.880  0.00  0.00    +0.000 HD
ATOM     13  H   UNL     1      53.624   0.141  15.824  0.00  0.00    +0.000 HD
ENDBRANCH   1  10
BRANCH   5  14
ATOM     14  C   UNL     1      48.215   4.478  17.333  0.00  0.00    +0.000 C 
ATOM     15  C   UNL     1      47.036   4.943  18.171  0.00  0.00    +0.000 C 
ATOM     16  C   UNL     1      47.408   3.496  18.164  0.00  0.00    +0.000 C 
BRANCH  14  17
ATOM     17  C   UNL     1      48.080   4.610  15.800  0.00  0.00    +0.000 A 
ATOM     18  N   UNL     1      48.383   5.827  15.273  0.00  0.00    +0.000 NA
ATOM     19  C   UNL     1      47.830   6.129  14.085  0.00  0.00    +0.000 A 
ATOM     20  C   UNL     1      47.047   5.258  13.372  0.00  0.00    +0.000 A 
ATOM     21  C   UNL     1      46.931   3.999  13.906  0.00  0.00    +0.000 A 
ATOM     22  N   UNL     1      47.447   3.645  15.095  0.00  0.00    +0.000 NA
ENDBRANCH  14  17
ENDBRANCH   5  14
TORSDOF 3
ENDMDL
MODEL 9
REMARK VINA RESULT:    -5.174      3.488      5.396
REMARK INTER + INTRA:          -6.191
REMARK INTER:                  -6.446
REMARK INTRA:                   0.254
REMARK UNBOUND:                -0.110
REMARK  Name = 
REMARK  3 active torsions:
REMARK  status: ('A' for Active; 'I' for Inactive)
REMARK    1  A    between atoms: C_2  and  C_4
REMARK    2  A    between atoms: N_8  and  C_9
REMARK    3  A    between atoms: C_9  and  C_10
REMARK                            x       y       z     vdW  Elec       q    Type
REMARK                         _______ _______ _______ _____ _____    ______ ____
ROOT
ATOM      1  C   UNL     1      45.228   3.978  11.804  0.00  0.00    +0.000 A 
ATOM      2  C   UNL     1      45.914   3.399  12.865  0.00  0.00    +0.000 A 
ATOM      3  C   UNL     1      46.741   4.201  13.641  0.00  0.00    +0.000 A 
ATOM      4  C   UNL     1      46.900   5.546  13.321  0.00  0.00    +0.000 A 
ATOM      5  N   UNL     1      47.566   6.319  14.302  0.00  0.00    +0.000 N 
ATOM      6  N   UNL     1      46.322   6.102  12.235  0.00  0.00    +0.000 NA
ATOM      7  C   UNL     1      45.499   5.309  11.497  0.00  0.00    +0.000 A 
ATOM      8  H   UNL     1      46.851   6.453  15.025  0.00  0.00    +0.000 HD
ENDROOT
BRANCH   1  10
ATOM      9  N   UNL     1      44.606   2.306  10.180  0.00  0.00    +0.000 N 
ATOM     10  C   UNL     1      44.177   3.256  11.076  0.00  0.00    +0.000 C 
ATOM     11  O   UNL     1      42.987   3.444  11.293  0.00  0.00    +0.000 OA
ATOM     12  H   UNL     1      43.892   1.708   9.779  0.00  0.00    +0.000 HD
ATOM     13  H   UNL     1      45.558   1.965  10.178  0.00  0.00    +0.000 HD
ENDBRANCH   1  10
BRANCH   5  14
ATOM     14  C   UNL     1      48.109   7.666  13.958  0.00  0.00    +0.000 C 
ATOM     15  C   UNL     1      47.835   8.885  14.823  0.00  0.00    +0.000 C 
ATOM     16  C   UNL     1      47.017   8.657  13.594  0.00  0.00    +0.000 C 
BRANCH  14  17
ATOM     17  C   UNL     1      49.478   7.605  13.245  0.00  0.00    +0.000 A 
ATOM     18  N   UNL     1      50.567   7.885  14.010  0.00  0.00    +0.000 NA
ATOM     19  C   UNL     1      51.665   8.318  13.367  0.00  0.00    +0.000 A 
ATOM     20  C   UNL     1      51.751   8.426  12.003  0.00  0.00    +0.000 A 
ATOM     21  C   UNL     1      50.659   7.969  11.307  0.00  0.00    +0.000 A 
ATOM     22  N   UNL     1      49.529   7.539  11.895  0.00  0.00    +0.000 NA
ENDBRANCH  14  17
ENDBRANCH   5  14
TORSDOF 3
ENDMDL
