MODEL 1
REMARK VINA RESULT:    -7.518      0.000      0.000
REMARK INTER + INTRA:         -11.770
REMARK INTER:                 -10.595
REMARK INTRA:                  -1.175
REMARK UNBOUND:                -1.175
REMARK  Name = 
REMARK  8 active torsions:
REMARK  status: ('A' for Active; 'I' for Inactive)
REMARK    1  A    between atoms: C_1  and  O_2
REMARK    2  A    between atoms: O_2  and  C_3
REMARK    3  A    between atoms: C_8  and  C_9
REMARK    4  A    between atoms: N_11  and  C_12
REMARK    5  A    between atoms: C_12  and  C_13
REMARK    6  A    between atoms: C_16  and  C_17
REMARK    7  A    between atoms: C_17  and  N_18
REMARK    8  A    between atoms: C_19  and  C_21
REMARK                            x       y       z     vdW  Elec       q    Type
REMARK                         _______ _______ _______ _____ _____    ______ ____
ROOT
ATOM      1  C   UNL     1      50.051   7.592  15.266  0.00  0.00    +0.000 A 
ATOM      2  C   UNL     1      50.094   8.738  14.475  0.00  0.00    +0.000 A 
ATOM      3  C   UNL     1      49.214   8.854  13.400  0.00  0.00    +0.000 A 
ATOM      4  C   UNL     1      48.323   7.819  13.119  0.00  0.00    +0.000 A 
ATOM      5  C   UNL     1      48.352   6.710  13.959  0.00  0.00    +0.000 A 
ATOM      6  N   UNL     1      49.196   6.569  15.010  0.00  0.00    +0.000 NA
ENDROOT
BRANCH   1   7
ATOM      7  C   UNL     1      50.997   7.448  16.438  0.00  0.00    +0.000 C 
BRANCH   7  10
ATOM      8  C   UNL     1      50.899   5.278  17.613  0.00  0.00    +0.000 C 
ATOM      9  O   UNL     1      50.143   5.723  18.472  0.00  0.00    +0.000 OA
ATOM     10  N   UNL     1      51.420   6.077  16.624  0.00  0.00    +0.000 N 
ATOM     11  H   UNL     1      51.939   5.637  15.869  0.00  0.00    +0.000 HD
BRANCH   8  17
ATOM     12  C   UNL     1      50.431   2.774  17.166  0.00  0.00    +0.000 A 
ATOM     13  C   UNL     1      50.880   1.447  17.280  0.00  0.00    +0.000 A 
ATOM     14  C   UNL     1      52.146   1.157  17.794  0.00  0.00    +0.000 A 
ATOM     15  C   UNL     1      52.985   2.186  18.200  0.00  0.00    +0.000 A 
ATOM     16  C   UNL     1      52.546   3.507  18.113  0.00  0.00    +0.000 A 
ATOM     17  C   UNL     1      51.266   3.820  17.611  0.00  0.00    +0.000 A 
BRANCH  12  19
ATOM     18  C   UNL     1      48.057   2.891  17.459  0.00  0.00    +0.000 C 
ATOM     19  O   UNL     1      49.205   3.107  16.646  0.00  0.00    +0.000 OA
ENDBRANCH  12  19
ENDBRANCH   8  17
ENDBRANCH   7  10
ENDBRANCH   1   7
BRANCH   4  20
ATOM     20  C   UNL     1      47.343   7.913  11.988  0.00  0.00    +0.000 C 
BRANCH  20  21
ATOM     21  N   UNL     1      46.702   6.648  11.738  0.00  0.00    +0.000 N 
ATOM     22  C   UNL     1      45.335   6.540  11.684  0.00  0.00    +0.000 C 
ATOM     23  O   UNL     1      44.602   7.520  11.791  0.00  0.00    +0.000 OA
ATOM     24  H   UNL     1      47.258   5.811  11.881  0.00  0.00    +0.000 HD
BRANCH  22  25
ATOM     25  C   UNL     1      44.789   5.198  11.434  0.00  0.00    +0.000 A 
ATOM     26  C   UNL     1      44.048   4.563  12.423  0.00  0.00    +0.000 A 
ATOM     27  S   UNL     1      43.442   3.040  11.952  0.00  0.00    +0.000 S 
ATOM     28  C   UNL     1      44.193   3.151  10.429  0.00  0.00    +0.000 A 
ATOM     29  N   UNL     1      44.089   2.141   9.523  0.00  0.00    +0.000 NA
ATOM     30  C   UNL     1      44.730   2.345   8.421  0.00  0.00    +0.000 A 
ATOM     31  N   UNL     1      45.464   3.468   8.141  0.00  0.00    +0.000 N 
ATOM     32  C   UNL     1      45.576   4.523   9.015  0.00  0.00    +0.000 A 
ATOM     33  O   UNL     1      46.211   5.531   8.720  0.00  0.00    +0.000 OA
ATOM     34  C   UNL     1      44.881   4.342  10.275  0.00  0.00    +0.000 A 
ATOM     35  H   UNL     1      45.936   3.569   7.255  0.00  0.00    +0.000 HD
ENDBRANCH  22  25
ENDBRANCH  20  21
ENDBRANCH   4  20
TORSDOF 7
ENDMDL
MODEL 2
REMARK VINA RESULT:    -7.052      3.125      9.505
REMARK INTER + INTRA:         -11.113
REMARK INTER:                 -10.012
REMARK INTRA:                  -1.101
REMARK UNBOUND:                -1.175
REMARK  Name = 
REMARK  8 active torsions:
REMARK  status: ('A' for Active; 'I' for Inactive)
REMARK    1  A    between atoms: C_1  and  O_2
REMARK    2  A    between atoms: O_2  and  C_3
REMARK    3  A    between atoms: C_8  and  C_9
REMARK    4  A    between atoms: N_11  and  C_12
REMARK    5  A    between atoms: C_12  and  C_13
REMARK    6  A    between atoms: C_16  and  C_17
REMARK    7  A    between atoms: C_17  and  N_18
REMARK    8  A    between atoms: C_19  and  C_21
REMARK                            x       y       z     vdW  Elec       q    Type
REMARK                         _______ _______ _______ _____ _____    ______ ____
ROOT
ATOM      1  C   UNL     1      47.645   5.668  14.723  0.00  0.00    +0.000 A 
ATOM      2  C   UNL     1      48.585   6.244  15.575  0.00  0.00    +0.000 A 
ATOM      3  C   UNL     1      48.938   5.577  16.747  0.00  0.00    +0.000 A 
ATOM      4  C   UNL     1      48.333   4.360  17.061  0.00  0.00    +0.000 A 
ATOM      5  C   UNL     1      47.403   3.861  16.155  0.00  0.00    +0.000 A 
ATOM      6  N   UNL     1      47.039   4.487  15.009  0.00  0.00    +0.000 NA
ENDROOT
BRANCH   1   7
ATOM      7  C   UNL     1      47.249   6.375  13.446  0.00  0.00    +0.000 C 
BRANCH   7  10
ATOM      8  C   UNL     1      45.905   5.895  11.431  0.00  0.00    +0.000 C 
ATOM      9  O   UNL     1      45.537   7.063  11.339  0.00  0.00    +0.000 OA
ATOM     10  N   UNL     1      46.685   5.462  12.476  0.00  0.00    +0.000 N 
ATOM     11  H   UNL     1      47.063   4.519  12.440  0.00  0.00    +0.000 HD
BRANCH   8  17
ATOM     12  C   UNL     1      44.821   3.693  10.614  0.00  0.00    +0.000 A 
ATOM     13  C   UNL     1      44.579   2.820   9.540  0.00  0.00    +0.000 A 
ATOM     14  C   UNL     1      44.986   3.144   8.244  0.00  0.00    +0.000 A 
ATOM     15  C   UNL     1      45.640   4.345   7.999  0.00  0.00    +0.000 A 
ATOM     16  C   UNL     1      45.907   5.211   9.058  0.00  0.00    +0.000 A 
ATOM     17  C   UNL     1      45.518   4.897  10.376  0.00  0.00    +0.000 A 
BRANCH  12  19
ATOM     18  C   UNL     1      43.307   2.556  12.081  0.00  0.00    +0.000 C 
ATOM     19  O   UNL     1      44.419   3.427  11.900  0.00  0.00    +0.000 OA
ENDBRANCH  12  19
ENDBRANCH   8  17
ENDBRANCH   7  10
ENDBRANCH   1   7
BRANCH   4  20
ATOM     20  C   UNL     1      48.701   3.598  18.298  0.00  0.00    +0.000 C 
BRANCH  20  21
ATOM     21  N   UNL     1      50.112   3.311  18.342  0.00  0.00    +0.000 N 
ATOM     22  C   UNL     1      50.682   2.401  17.487  0.00  0.00    +0.000 C 
ATOM     23  O   UNL     1      50.029   1.834  16.615  0.00  0.00    +0.000 OA
ATOM     24  H   UNL     1      50.612   3.578  19.184  0.00  0.00    +0.000 HD
BRANCH  22  25
ATOM     25  C   UNL     1      52.128   2.178  17.630  0.00  0.00    +0.000 A 
ATOM     26  C   UNL     1      52.619   0.881  17.705  0.00  0.00    +0.000 A 
ATOM     27  S   UNL     1      54.319   0.798  17.812  0.00  0.00    +0.000 S 
ATOM     28  C   UNL     1      54.456   2.494  17.814  0.00  0.00    +0.000 A 
ATOM     29  N   UNL     1      55.673   3.096  17.909  0.00  0.00    +0.000 NA
ATOM     30  C   UNL     1      55.628   4.387  17.927  0.00  0.00    +0.000 A 
ATOM     31  N   UNL     1      54.479   5.129  17.854  0.00  0.00    +0.000 N 
ATOM     32  C   UNL     1      53.232   4.565  17.731  0.00  0.00    +0.000 A 
ATOM     33  O   UNL     1      52.225   5.259  17.632  0.00  0.00    +0.000 OA
ATOM     34  C   UNL     1      53.224   3.114  17.716  0.00  0.00    +0.000 A 
ATOM     35  H   UNL     1      54.515   6.138  17.865  0.00  0.00    +0.000 HD
ENDBRANCH  22  25
ENDBRANCH  20  21
ENDBRANCH   4  20
TORSDOF 7
ENDMDL
MODEL 3
REMARK VINA RESULT:    -7.036      2.934      8.768
REMARK INTER + INTRA:         -11.091
REMARK INTER:                 -10.022
REMARK INTRA:                  -1.068
REMARK UNBOUND:                -1.175
REMARK  Name = 
REMARK  8 active torsions:
REMARK  status: ('A' for Active; 'I' for Inactive)
REMARK    1  A    between atoms: C_1  and  O_2
REMARK    2  A    between atoms: O_2  and  C_3
REMARK    3  A    between atoms: C_8  and  C_9
REMARK    4  A    between atoms: N_11  and  C_12
REMARK    5  A    between atoms: C_12  and  C_13
REMARK    6  A    between atoms: C_16  and  C_17
REMARK    7  A    between atoms: C_17  and  N_18
REMARK    8  A    between atoms: C_19  and  C_21
REMARK                            x       y       z     vdW  Elec       q    Type
REMARK                         _______ _______ _______ _____ _____    ______ ____
ROOT
ATOM      1  C   UNL     1      48.207   7.818  13.522  0.00  0.00    +0.000 A 
ATOM      2  C   UNL     1      47.948   8.918  14.337  0.00  0.00    +0.000 A 
ATOM      3  C   UNL     1      48.274   8.851  15.691  0.00  0.00    +0.000 A 
ATOM      4  C   UNL     1      48.829   7.683  16.213  0.00  0.00    +0.000 A 
ATOM      5  C   UNL     1      49.050   6.634  15.327  0.00  0.00    +0.000 A 
ATOM      6  N   UNL     1      48.743   6.669  14.008  0.00  0.00    +0.000 NA
ENDROOT
BRANCH   1   7
ATOM      7  C   UNL     1      47.863   7.872  12.050  0.00  0.00    +0.000 C 
BRANCH   7  10
ATOM      8  C   UNL     1      45.886   6.570  11.344  0.00  0.00    +0.000 C 
ATOM      9  O   UNL     1      45.122   7.494  11.611  0.00  0.00    +0.000 OA
ATOM     10  N   UNL     1      47.234   6.649  11.598  0.00  0.00    +0.000 N 
ATOM     11  H   UNL     1      47.837   5.911  11.247  0.00  0.00    +0.000 HD
BRANCH   8  17
ATOM     12  C   UNL     1      44.631   4.309  11.376  0.00  0.00    +0.000 A 
ATOM     13  C   UNL     1      44.252   3.155  10.669  0.00  0.00    +0.000 A 
ATOM     14  C   UNL     1      44.556   3.009   9.313  0.00  0.00    +0.000 A 
ATOM     15  C   UNL     1      45.241   4.014   8.642  0.00  0.00    +0.000 A 
ATOM     16  C   UNL     1      45.643   5.155   9.335  0.00  0.00    +0.000 A 
ATOM     17  C   UNL     1      45.359   5.315  10.707  0.00  0.00    +0.000 A 
BRANCH  12  19
ATOM     18  C   UNL     1      43.003   4.887  13.036  0.00  0.00    +0.000 C 
ATOM     19  O   UNL     1      44.333   4.505  12.702  0.00  0.00    +0.000 OA
ENDBRANCH  12  19
ENDBRANCH   8  17
ENDBRANCH   7  10
ENDBRANCH   1   7
BRANCH   4  20
ATOM     20  C   UNL     1      49.217   7.577  17.657  0.00  0.00    +0.000 C 
BRANCH  20  21
ATOM     21  N   UNL     1      50.275   6.620  17.852  0.00  0.00    +0.000 N 
ATOM     22  C   UNL     1      50.086   5.492  18.610  0.00  0.00    +0.000 C 
ATOM     23  O   UNL     1      48.996   5.221  19.107  0.00  0.00    +0.000 OA
ATOM     24  H   UNL     1      51.222   6.931  17.658  0.00  0.00    +0.000 HD
BRANCH  22  25
ATOM     25  C   UNL     1      51.239   4.591  18.751  0.00  0.00    +0.000 A 
ATOM     26  C   UNL     1      52.333   4.989  19.509  0.00  0.00    +0.000 A 
ATOM     27  S   UNL     1      53.558   3.808  19.615  0.00  0.00    +0.000 S 
ATOM     28  C   UNL     1      52.693   2.742  18.609  0.00  0.00    +0.000 A 
ATOM     29  N   UNL     1      53.206   1.527  18.274  0.00  0.00    +0.000 NA
ATOM     30  C   UNL     1      52.458   0.832  17.482  0.00  0.00    +0.000 A 
ATOM     31  N   UNL     1      51.242   1.241  16.999  0.00  0.00    +0.000 N 
ATOM     32  C   UNL     1      50.674   2.448  17.332  0.00  0.00    +0.000 A 
ATOM     33  O   UNL     1      49.567   2.769  16.911  0.00  0.00    +0.000 OA
ATOM     34  C   UNL     1      51.479   3.273  18.213  0.00  0.00    +0.000 A 
ATOM     35  H   UNL     1      50.702   0.645  16.390  0.00  0.00    +0.000 HD
ENDBRANCH  22  25
ENDBRANCH  20  21
ENDBRANCH   4  20
TORSDOF 7
ENDMDL
MODEL 4
REMARK VINA RESULT:    -6.985      3.436      8.987
REMARK INTER + INTRA:         -11.019
REMARK INTER:                 -10.322
REMARK INTRA:                  -0.697
REMARK UNBOUND:                -1.175
REMARK  Name = 
REMARK  8 active torsions:
REMARK  status: ('A' for Active; 'I' for Inactive)
REMARK    1  A    between atoms: C_1  and  O_2
REMARK    2  A    between atoms: O_2  and  C_3
REMARK    3  A    between atoms: C_8  and  C_9
REMARK    4  A    between atoms: N_11  and  C_12
REMARK    5  A    between atoms: C_12  and  C_13
REMARK    6  A    between atoms: C_16  and  C_17
REMARK    7  A    between atoms: C_17  and  N_18
REMARK    8  A    between atoms: C_19  and  C_21
REMARK                            x       y       z     vdW  Elec       q    Type
REMARK                         _______ _______ _______ _____ _____    ______ ____
ROOT
ATOM      1  C   UNL     1      44.756   4.823  12.074  0.00  0.00    +0.000 A 
ATOM      2  C   UNL     1      43.995   5.916  11.667  0.00  0.00    +0.000 A 
ATOM      3  C   UNL     1      44.454   7.203  11.945  0.00  0.00    +0.000 A 
ATOM      4  C   UNL     1      45.650   7.377  12.641  0.00  0.00    +0.000 A 
ATOM      5  C   UNL     1      46.342   6.229  13.012  0.00  0.00    +0.000 A 
ATOM      6  N   UNL     1      45.920   4.966  12.757  0.00  0.00    +0.000 NA
ENDROOT
BRANCH   1   7
ATOM      7  C   UNL     1      44.275   3.419  11.782  0.00  0.00    +0.000 C 
BRANCH   7  10
ATOM      8  C   UNL     1      44.741   2.939   9.404  0.00  0.00    +0.000 C 
ATOM      9  O   UNL     1      43.715   3.506   9.038  0.00  0.00    +0.000 OA
ATOM     10  N   UNL     1      45.051   2.790  10.734  0.00  0.00    +0.000 N 
ATOM     11  H   UNL     1      45.967   2.425  10.980  0.00  0.00    +0.000 HD
BRANCH   8  17
ATOM     12  C   UNL     1      46.385   3.175   7.422  0.00  0.00    +0.000 A 
ATOM     13  C   UNL     1      47.217   2.530   6.490  0.00  0.00    +0.000 A 
ATOM     14  C   UNL     1      47.406   1.147   6.530  0.00  0.00    +0.000 A 
ATOM     15  C   UNL     1      46.770   0.385   7.502  0.00  0.00    +0.000 A 
ATOM     16  C   UNL     1      45.925   1.008   8.420  0.00  0.00    +0.000 A 
ATOM     17  C   UNL     1      45.709   2.401   8.388  0.00  0.00    +0.000 A 
BRANCH  12  19
ATOM     18  C   UNL     1      46.641   5.260   8.572  0.00  0.00    +0.000 C 
ATOM     19  O   UNL     1      46.189   4.534   7.434  0.00  0.00    +0.000 OA
ENDBRANCH  12  19
ENDBRANCH   8  17
ENDBRANCH   7  10
ENDBRANCH   1   7
BRANCH   4  20
ATOM     20  C   UNL     1      46.192   8.743  12.938  0.00  0.00    +0.000 C 
BRANCH  20  21
ATOM     21  N   UNL     1      46.741   8.816  14.268  0.00  0.00    +0.000 N 
ATOM     22  C   UNL     1      48.097   8.835  14.480  0.00  0.00    +0.000 C 
ATOM     23  O   UNL     1      48.898   8.847  13.549  0.00  0.00    +0.000 OA
ATOM     24  H   UNL     1      46.125   8.572  15.037  0.00  0.00    +0.000 HD
BRANCH  22  25
ATOM     25  C   UNL     1      48.545   8.899  15.878  0.00  0.00    +0.000 A 
ATOM     26  C   UNL     1      48.654  10.132  16.509  0.00  0.00    +0.000 A 
ATOM     27  S   UNL     1      49.132  10.025  18.142  0.00  0.00    +0.000 S 
ATOM     28  C   UNL     1      49.261   8.331  18.051  0.00  0.00    +0.000 A 
ATOM     29  N   UNL     1      49.660   7.601  19.128  0.00  0.00    +0.000 NA
ATOM     30  C   UNL     1      49.741   6.331  18.911  0.00  0.00    +0.000 A 
ATOM     31  N   UNL     1      49.456   5.724  17.716  0.00  0.00    +0.000 N 
ATOM     32  C   UNL     1      49.026   6.417  16.610  0.00  0.00    +0.000 A 
ATOM     33  O   UNL     1      48.744   5.840  15.564  0.00  0.00    +0.000 OA
ATOM     34  C   UNL     1      48.926   7.852  16.797  0.00  0.00    +0.000 A 
ATOM     35  H   UNL     1      49.532   4.722  17.614  0.00  0.00    +0.000 HD
ENDBRANCH  22  25
ENDBRANCH  20  21
ENDBRANCH   4  20
TORSDOF 7
ENDMDL
MODEL 5
REMARK VINA RESULT:    -6.967      3.307      9.575
REMARK INTER + INTRA:         -10.993
REMARK INTER:                 -10.001
REMARK INTRA:                  -0.992
REMARK UNBOUND:                -1.175
REMARK  Name = 
REMARK  8 active torsions:
REMARK  status: ('A' for Active; 'I' for Inactive)
REMARK    1  A    between atoms: C_1  and  O_2
REMARK    2  A    between atoms: O_2  and  C_3
REMARK    3  A    between atoms: C_8  and  C_9
REMARK    4  A    between atoms: N_11  and  C_12
REMARK    5  A    between atoms: C_12  and  C_13
REMARK    6  A    between atoms: C_16  and  C_17
REMARK    7  A    between atoms: C_17  and  N_18
REMARK    8  A    between atoms: C_19  and  C_21
REMARK                            x       y       z     vdW  Elec       q    Type
REMARK                         _______ _______ _______ _____ _____    ______ ____
ROOT
ATOM      1  C   UNL     1      47.331   5.849  14.431  0.00  0.00    +0.000 A 
ATOM      2  C   UNL     1      48.283   6.490  15.221  0.00  0.00    +0.000 A 
ATOM      3  C   UNL     1      48.798   5.828  16.334  0.00  0.00    +0.000 A 
ATOM      4  C   UNL     1      48.341   4.550  16.653  0.00  0.00    +0.000 A 
ATOM      5  C   UNL     1      47.387   3.988  15.811  0.00  0.00    +0.000 A 
ATOM      6  N   UNL     1      46.867   4.607  14.724  0.00  0.00    +0.000 NA
ENDROOT
BRANCH   1   7
ATOM      7  C   UNL     1      46.760   6.550  13.218  0.00  0.00    +0.000 C 
BRANCH   7  10
ATOM      8  C   UNL     1      45.409   5.892  11.258  0.00  0.00    +0.000 C 
ATOM      9  O   UNL     1      44.702   6.893  11.349  0.00  0.00    +0.000 OA
ATOM     10  N   UNL     1      46.391   5.615  12.177  0.00  0.00    +0.000 N 
ATOM     11  H   UNL     1      47.027   4.844  11.990  0.00  0.00    +0.000 HD
BRANCH   8  17
ATOM     12  C   UNL     1      44.295   3.880  10.077  0.00  0.00    +0.000 A 
ATOM     13  C   UNL     1      44.272   3.026   8.961  0.00  0.00    +0.000 A 
ATOM     14  C   UNL     1      45.130   3.234   7.878  0.00  0.00    +0.000 A 
ATOM     15  C   UNL     1      46.022   4.298   7.891  0.00  0.00    +0.000 A 
ATOM     16  C   UNL     1      46.071   5.141   9.001  0.00  0.00    +0.000 A 
ATOM     17  C   UNL     1      45.224   4.940  10.110  0.00  0.00    +0.000 A 
BRANCH  12  19
ATOM     18  C   UNL     1      43.867   2.857  12.200  0.00  0.00    +0.000 C 
ATOM     19  O   UNL     1      43.454   3.727  11.152  0.00  0.00    +0.000 OA
ENDBRANCH  12  19
ENDBRANCH   8  17
ENDBRANCH   7  10
ENDBRANCH   1   7
BRANCH   4  20
ATOM     20  C   UNL     1      48.886   3.793  17.826  0.00  0.00    +0.000 C 
BRANCH  20  21
ATOM     21  N   UNL     1      50.261   3.417  17.620  0.00  0.00    +0.000 N 
ATOM     22  C   UNL     1      51.269   3.952  18.382  0.00  0.00    +0.000 C 
ATOM     23  O   UNL     1      51.041   4.729  19.306  0.00  0.00    +0.000 OA
ATOM     24  H   UNL     1      50.493   2.976  16.735  0.00  0.00    +0.000 HD
BRANCH  22  25
ATOM     25  C   UNL     1      52.636   3.506  18.075  0.00  0.00    +0.000 A 
ATOM     26  C   UNL     1      53.677   4.425  18.089  0.00  0.00    +0.000 A 
ATOM     27  S   UNL     1      55.203   3.735  17.767  0.00  0.00    +0.000 S 
ATOM     28  C   UNL     1      54.520   2.192  17.547  0.00  0.00    +0.000 A 
ATOM     29  N   UNL     1      55.296   1.124  17.219  0.00  0.00    +0.000 NA
ATOM     30  C   UNL     1      54.644   0.021  17.055  0.00  0.00    +0.000 A 
ATOM     31  N   UNL     1      53.287  -0.111  17.192  0.00  0.00    +0.000 N 
ATOM     32  C   UNL     1      52.467   0.933  17.546  0.00  0.00    +0.000 A 
ATOM     33  O   UNL     1      51.260   0.774  17.697  0.00  0.00    +0.000 OA
ATOM     34  C   UNL     1      53.149   2.200  17.734  0.00  0.00    +0.000 A 
ATOM     35  H   UNL     1      52.840  -1.006  17.058  0.00  0.00    +0.000 HD
ENDBRANCH  22  25
ENDBRANCH  20  21
ENDBRANCH   4  20
TORSDOF 7
ENDMDL
MODEL 6
REMARK VINA RESULT:    -6.849      3.020      8.647
REMARK INTER + INTRA:         -10.826
REMARK INTER:                 -10.662
REMARK INTRA:                  -0.165
REMARK UNBOUND:                -1.175
REMARK  Name = 
REMARK  8 active torsions:
REMARK  status: ('A' for Active; 'I' for Inactive)
REMARK    1  A    between atoms: C_1  and  O_2
REMARK    2  A    between atoms: O_2  and  C_3
REMARK    3  A    between atoms: C_8  and  C_9
REMARK    4  A    between atoms: N_11  and  C_12
REMARK    5  A    between atoms: C_12  and  C_13
REMARK    6  A    between atoms: C_16  and  C_17
REMARK    7  A    between atoms: C_17  and  N_18
REMARK    8  A    between atoms: C_19  and  C_21
REMARK                            x       y       z     vdW  Elec       q    Type
REMARK                         _______ _______ _______ _____ _____    ______ ____
ROOT
ATOM      1  C   UNL     1      44.680   5.793  11.284  0.00  0.00    +0.000 A 
ATOM      2  C   UNL     1      44.519   7.167  11.442  0.00  0.00    +0.000 A 
ATOM      3  C   UNL     1      45.458   7.880  12.186  0.00  0.00    +0.000 A 
ATOM      4  C   UNL     1      46.528   7.208  12.777  0.00  0.00    +0.000 A 
ATOM      5  C   UNL     1      46.609   5.835  12.569  0.00  0.00    +0.000 A 
ATOM      6  N   UNL     1      45.711   5.116  11.853  0.00  0.00    +0.000 NA
ENDROOT
BRANCH   1   7
ATOM      7  C   UNL     1      43.672   5.002  10.479  0.00  0.00    +0.000 C 
BRANCH   7  10
ATOM      8  C   UNL     1      45.347   4.420   8.760  0.00  0.00    +0.000 C 
ATOM      9  O   UNL     1      45.696   5.591   8.634  0.00  0.00    +0.000 OA
ATOM     10  N   UNL     1      44.313   4.058   9.590  0.00  0.00    +0.000 N 
ATOM     11  H   UNL     1      44.146   3.069   9.752  0.00  0.00    +0.000 HD
BRANCH   8  17
ATOM     12  C   UNL     1      46.045   1.964   8.348  0.00  0.00    +0.000 A 
ATOM     13  C   UNL     1      46.816   1.063   7.593  0.00  0.00    +0.000 A 
ATOM     14  C   UNL     1      47.569   1.499   6.501  0.00  0.00    +0.000 A 
ATOM     15  C   UNL     1      47.564   2.841   6.143  0.00  0.00    +0.000 A 
ATOM     16  C   UNL     1      46.821   3.751   6.895  0.00  0.00    +0.000 A 
ATOM     17  C   UNL     1      46.066   3.333   8.010  0.00  0.00    +0.000 A 
BRANCH  12  19
ATOM     18  C   UNL     1      43.986   1.030   9.139  0.00  0.00    +0.000 C 
ATOM     19  O   UNL     1      45.271   1.576   9.414  0.00  0.00    +0.000 OA
ENDBRANCH  12  19
ENDBRANCH   8  17
ENDBRANCH   7  10
ENDBRANCH   1   7
BRANCH   4  20
ATOM     20  C   UNL     1      47.574   7.939  13.563  0.00  0.00    +0.000 C 
BRANCH  20  21
ATOM     21  N   UNL     1      47.816   7.309  14.835  0.00  0.00    +0.000 N 
ATOM     22  C   UNL     1      49.070   6.885  15.195  0.00  0.00    +0.000 C 
ATOM     23  O   UNL     1      50.049   7.073  14.476  0.00  0.00    +0.000 OA
ATOM     24  H   UNL     1      47.010   6.938  15.328  0.00  0.00    +0.000 HD
BRANCH  22  25
ATOM     25  C   UNL     1      49.198   6.245  16.512  0.00  0.00    +0.000 A 
ATOM     26  C   UNL     1      49.991   6.834  17.488  0.00  0.00    +0.000 A 
ATOM     27  S   UNL     1      49.986   5.995  18.972  0.00  0.00    +0.000 S 
ATOM     28  C   UNL     1      48.966   4.785  18.348  0.00  0.00    +0.000 A 
ATOM     29  N   UNL     1      48.584   3.728  19.115  0.00  0.00    +0.000 NA
ATOM     30  C   UNL     1      47.833   2.871  18.506  0.00  0.00    +0.000 A 
ATOM     31  N   UNL     1      47.427   2.977  17.202  0.00  0.00    +0.000 N 
ATOM     32  C   UNL     1      47.767   4.039  16.398  0.00  0.00    +0.000 A 
ATOM     33  O   UNL     1      47.357   4.123  15.244  0.00  0.00    +0.000 OA
ATOM     34  C   UNL     1      48.619   5.028  17.030  0.00  0.00    +0.000 A 
ATOM     35  H   UNL     1      46.831   2.275  16.788  0.00  0.00    +0.000 HD
ENDBRANCH  22  25
ENDBRANCH  20  21
ENDBRANCH   4  20
TORSDOF 7
ENDMDL
MODEL 7
REMARK VINA RESULT:    -6.512      3.209      8.595
REMARK INTER + INTRA:         -10.353
REMARK INTER:                  -9.710
REMARK INTRA:                  -0.643
REMARK UNBOUND:                -1.175
REMARK  Name = 
REMARK  8 active torsions:
REMARK  status: ('A' for Active; 'I' for Inactive)
REMARK    1  A    between atoms: C_1  and  O_2
REMARK    2  A    between atoms: O_2  and  C_3
REMARK    3  A    between atoms: C_8  and  C_9
REMARK    4  A    between atoms: N_11  and  C_12
REMARK    5  A    between atoms: C_12  and  C_13
REMARK    6  A    between atoms: C_16  and  C_17
REMARK    7  A    between atoms: C_17  and  N_18
REMARK    8  A    between atoms: C_19  and  C_21
REMARK                            x       y       z     vdW  Elec       q    Type
REMARK                         _______ _______ _______ _____ _____    ______ ____
ROOT
ATOM      1  C   UNL     1      45.954   8.119  12.210  0.00  0.00    +0.000 A 
ATOM      2  C   UNL     1      46.311   9.464  12.140  0.00  0.00    +0.000 A 
ATOM      3  C   UNL     1      47.354   9.932  12.938  0.00  0.00    +0.000 A 
ATOM      4  C   UNL     1      48.007   9.058  13.807  0.00  0.00    +0.000 A 
ATOM      5  C   UNL     1      47.582   7.733  13.814  0.00  0.00    +0.000 A 
ATOM      6  N   UNL     1      46.572   7.250  13.051  0.00  0.00    +0.000 NA
ENDROOT
BRANCH   1   7
ATOM      7  C   UNL     1      44.826   7.592  11.351  0.00  0.00    +0.000 C 
BRANCH   7  10
ATOM      8  C   UNL     1      44.166   5.409  10.402  0.00  0.00    +0.000 C 
ATOM      9  O   UNL     1      42.979   5.606  10.650  0.00  0.00    +0.000 OA
ATOM     10  N   UNL     1      45.142   6.300  10.779  0.00  0.00    +0.000 N 
ATOM     11  H   UNL     1      46.089   6.152  10.443  0.00  0.00    +0.000 HD
BRANCH   8  17
ATOM     12  C   UNL     1      44.163   2.863   9.948  0.00  0.00    +0.000 A 
ATOM     13  C   UNL     1      44.685   1.793   9.202  0.00  0.00    +0.000 A 
ATOM     14  C   UNL     1      45.585   2.015   8.158  0.00  0.00    +0.000 A 
ATOM     15  C   UNL     1      45.977   3.309   7.840  0.00  0.00    +0.000 A 
ATOM     16  C   UNL     1      45.484   4.380   8.585  0.00  0.00    +0.000 A 
ATOM     17  C   UNL     1      44.586   4.176   9.653  0.00  0.00    +0.000 A 
BRANCH  12  19
ATOM     18  C   UNL     1      43.763   2.592  12.294  0.00  0.00    +0.000 C 
ATOM     19  O   UNL     1      43.258   2.693  10.967  0.00  0.00    +0.000 OA
ENDBRANCH  12  19
ENDBRANCH   8  17
ENDBRANCH   7  10
ENDBRANCH   1   7
BRANCH   4  20
ATOM     20  C   UNL     1      49.149   9.513  14.665  0.00  0.00    +0.000 C 
BRANCH  20  21
ATOM     21  N   UNL     1      49.217   8.767  15.895  0.00  0.00    +0.000 N 
ATOM     22  C   UNL     1      50.109   7.737  16.056  0.00  0.00    +0.000 C 
ATOM     23  O   UNL     1      50.923   7.442  15.184  0.00  0.00    +0.000 OA
ATOM     24  H   UNL     1      48.420   8.831  16.520  0.00  0.00    +0.000 HD
BRANCH  22  25
ATOM     25  C   UNL     1      50.082   7.037  17.348  0.00  0.00    +0.000 A 
ATOM     26  C   UNL     1      50.766   7.573  18.433  0.00  0.00    +0.000 A 
ATOM     27  S   UNL     1      50.587   6.669  19.868  0.00  0.00    +0.000 S 
ATOM     28  C   UNL     1      49.634   5.501  19.079  0.00  0.00    +0.000 A 
ATOM     29  N   UNL     1      49.159   4.417  19.750  0.00  0.00    +0.000 NA
ATOM     30  C   UNL     1      48.474   3.598  19.023  0.00  0.00    +0.000 A 
ATOM     31  N   UNL     1      48.218   3.767  17.688  0.00  0.00    +0.000 N 
ATOM     32  C   UNL     1      48.655   4.858  16.976  0.00  0.00    +0.000 A 
ATOM     33  O   UNL     1      48.378   4.998  15.788  0.00  0.00    +0.000 OA
ATOM     34  C   UNL     1      49.439   5.807  17.743  0.00  0.00    +0.000 A 
ATOM     35  H   UNL     1      47.667   3.092  17.178  0.00  0.00    +0.000 HD
ENDBRANCH  22  25
ENDBRANCH  20  21
ENDBRANCH   4  20
TORSDOF 7
ENDMDL
MODEL 8
REMARK VINA RESULT:    -6.319      2.183      3.163
REMARK INTER + INTRA:         -10.080
REMARK INTER:                  -8.738
REMARK INTRA:                  -1.343
REMARK UNBOUND:                -1.175
REMARK  Name = 
REMARK  8 active torsions:
REMARK  status: ('A' for Active; 'I' for Inactive)
REMARK    1  A    between atoms: C_1  and  O_2
REMARK    2  A    between atoms: O_2  and  C_3
REMARK    3  A    between atoms: C_8  and  C_9
REMARK    4  A    between atoms: N_11  and  C_12
REMARK    5  A    between atoms: C_12  and  C_13
REMARK    6  A    between atoms: C_16  and  C_17
REMARK    7  A    between atoms: C_17  and  N_18
REMARK    8  A    between atoms: C_19  and  C_21
REMARK                            x       y       z     vdW  Elec       q    Type
REMARK                         _______ _______ _______ _____ _____    ______ ____
ROOT
ATOM      1  C   UNL     1      48.841   5.409  17.616  0.00  0.00    +0.000 A 
ATOM      2  C   UNL     1      49.069   6.776  17.467  0.00  0.00    +0.000 A 
ATOM      3  C   UNL     1      48.846   7.370  16.226  0.00  0.00    +0.000 A 
ATOM      4  C   UNL     1      48.422   6.590  15.151  0.00  0.00    +0.000 A 
ATOM      5  C   UNL     1      48.222   5.234  15.389  0.00  0.00    +0.000 A 
ATOM      6  N   UNL     1      48.432   4.629  16.583  0.00  0.00    +0.000 NA
ENDROOT
BRANCH   1   7
ATOM      7  C   UNL     1      49.076   4.746  18.955  0.00  0.00    +0.000 C 
BRANCH   7  10
ATOM      8  C   UNL     1      51.486   4.732  19.495  0.00  0.00    +0.000 C 
ATOM      9  O   UNL     1      51.479   5.928  19.777  0.00  0.00    +0.000 OA
ATOM     10  N   UNL     1      50.368   4.095  19.015  0.00  0.00    +0.000 N 
ATOM     11  H   UNL     1      50.391   3.085  18.915  0.00  0.00    +0.000 HD
BRANCH   8  17
ATOM     12  C   UNL     1      53.123   2.824  18.887  0.00  0.00    +0.000 A 
ATOM     13  C   UNL     1      54.288   2.113  19.220  0.00  0.00    +0.000 A 
ATOM     14  C   UNL     1      55.079   2.495  20.306  0.00  0.00    +0.000 A 
ATOM     15  C   UNL     1      54.721   3.594  21.075  0.00  0.00    +0.000 A 
ATOM     16  C   UNL     1      53.555   4.297  20.771  0.00  0.00    +0.000 A 
ATOM     17  C   UNL     1      52.735   3.919  19.688  0.00  0.00    +0.000 A 
BRANCH  12  19
ATOM     18  C   UNL     1      52.268   1.132  17.423  0.00  0.00    +0.000 C 
ATOM     19  O   UNL     1      52.329   2.499  17.815  0.00  0.00    +0.000 OA
ENDBRANCH  12  19
ENDBRANCH   8  17
ENDBRANCH   7  10
ENDBRANCH   1   7
BRANCH   4  20
ATOM     20  C   UNL     1      48.146   7.193  13.806  0.00  0.00    +0.000 C 
BRANCH  20  21
ATOM     21  N   UNL     1      47.411   6.287  12.961  0.00  0.00    +0.000 N 
ATOM     22  C   UNL     1      46.528   6.748  12.018  0.00  0.00    +0.000 C 
ATOM     23  O   UNL     1      46.366   7.949  11.815  0.00  0.00    +0.000 OA
ATOM     24  H   UNL     1      47.349   5.319  13.264  0.00  0.00    +0.000 HD
BRANCH  22  25
ATOM     25  C   UNL     1      45.824   5.733  11.221  0.00  0.00    +0.000 A 
ATOM     26  C   UNL     1      45.922   5.760   9.836  0.00  0.00    +0.000 A 
ATOM     27  S   UNL     1      45.093   4.483   9.066  0.00  0.00    +0.000 S 
ATOM     28  C   UNL     1      44.531   3.879  10.554  0.00  0.00    +0.000 A 
ATOM     29  N   UNL     1      43.727   2.783  10.605  0.00  0.00    +0.000 NA
ATOM     30  C   UNL     1      43.351   2.451  11.795  0.00  0.00    +0.000 A 
ATOM     31  N   UNL     1      43.710   3.113  12.939  0.00  0.00    +0.000 N 
ATOM     32  C   UNL     1      44.540   4.209  12.939  0.00  0.00    +0.000 A 
ATOM     33  O   UNL     1      44.872   4.758  13.985  0.00  0.00    +0.000 OA
ATOM     34  C   UNL     1      44.984   4.631  11.624  0.00  0.00    +0.000 A 
ATOM     35  H   UNL     1      43.388   2.796  13.842  0.00  0.00    +0.000 HD
ENDBRANCH  22  25
ENDBRANCH  20  21
ENDBRANCH   4  20
TORSDOF 7
ENDMDL
MODEL 9
REMARK VINA RESULT:    -6.132      5.391      8.518
REMARK INTER + INTRA:          -9.816
REMARK INTER:                  -8.766
REMARK INTRA:                  -1.050
REMARK UNBOUND:                -1.175
REMARK  Name = 
REMARK  8 active torsions:
REMARK  status: ('A' for Active; 'I' for Inactive)
REMARK    1  A    between atoms: C_1  and  O_2
REMARK    2  A    between atoms: O_2  and  C_3
REMARK    3  A    between atoms: C_8  and  C_9
REMARK    4  A    between atoms: N_11  and  C_12
REMARK    5  A    between atoms: C_12  and  C_13
REMARK    6  A    between atoms: C_16  and  C_17
REMARK    7  A    between atoms: C_17  and  N_18
REMARK    8  A    between atoms: C_19  and  C_21
REMARK                            x       y       z     vdW  Elec       q    Type
REMARK                         _______ _______ _______ _____ _____    ______ ____
ROOT
ATOM      1  C   UNL     1      48.020   7.679  12.814  0.00  0.00    +0.000 A 
ATOM      2  C   UNL     1      48.466   8.823  13.472  0.00  0.00    +0.000 A 
ATOM      3  C   UNL     1      49.639   9.441  13.041  0.00  0.00    +0.000 A 
ATOM      4  C   UNL     1      50.357   8.897  11.976  0.00  0.00    +0.000 A 
ATOM      5  C   UNL     1      49.840   7.751  11.380  0.00  0.00    +0.000 A 
ATOM      6  N   UNL     1      48.704   7.128  11.779  0.00  0.00    +0.000 NA
ENDROOT
BRANCH   1   7
ATOM      7  C   UNL     1      46.749   6.995  13.267  0.00  0.00    +0.000 C 
BRANCH   7  10
ATOM      8  C   UNL     1      45.489   6.191  11.301  0.00  0.00    +0.000 C 
ATOM      9  O   UNL     1      44.924   7.273  11.161  0.00  0.00    +0.000 OA
ATOM     10  N   UNL     1      46.342   5.951  12.350  0.00  0.00    +0.000 N 
ATOM     11  H   UNL     1      46.877   5.087  12.352  0.00  0.00    +0.000 HD
BRANCH   8  17
ATOM     12  C   UNL     1      44.480   3.942  10.517  0.00  0.00    +0.000 A 
ATOM     13  C   UNL     1      44.414   2.960   9.514  0.00  0.00    +0.000 A 
ATOM     14  C   UNL     1      45.088   3.123   8.302  0.00  0.00    +0.000 A 
ATOM     15  C   UNL     1      45.837   4.269   8.070  0.00  0.00    +0.000 A 
ATOM     16  C   UNL     1      45.931   5.242   9.064  0.00  0.00    +0.000 A 
ATOM     17  C   UNL     1      45.270   5.091  10.300  0.00  0.00    +0.000 A 
BRANCH  12  19
ATOM     18  C   UNL     1      43.400   2.539  12.130  0.00  0.00    +0.000 C 
ATOM     19  O   UNL     1      43.816   3.835  11.714  0.00  0.00    +0.000 OA
ENDBRANCH  12  19
ENDBRANCH   8  17
ENDBRANCH   7  10
ENDBRANCH   1   7
BRANCH   4  20
ATOM     20  C   UNL     1      51.609   9.543  11.464  0.00  0.00    +0.000 C 
BRANCH  20  21
ATOM     21  N   UNL     1      51.938   9.083  10.140  0.00  0.00    +0.000 N 
ATOM     22  C   UNL     1      53.184   8.587   9.846  0.00  0.00    +0.000 C 
ATOM     23  O   UNL     1      54.051   8.462  10.706  0.00  0.00    +0.000 OA
ATOM     24  H   UNL     1      51.337   9.389   9.381  0.00  0.00    +0.000 HD
BRANCH  22  25
ATOM     25  C   UNL     1      53.412   8.158   8.459  0.00  0.00    +0.000 A 
ATOM     26  C   UNL     1      53.433   9.104   7.442  0.00  0.00    +0.000 A 
ATOM     27  S   UNL     1      53.764   8.447   5.903  0.00  0.00    +0.000 S 
ATOM     28  C   UNL     1      53.840   6.868   6.533  0.00  0.00    +0.000 A 
ATOM     29  N   UNL     1      54.074   5.802   5.720  0.00  0.00    +0.000 NA
ATOM     30  C   UNL     1      54.077   4.661   6.325  0.00  0.00    +0.000 A 
ATOM     31  N   UNL     1      53.871   4.489   7.669  0.00  0.00    +0.000 N 
ATOM     32  C   UNL     1      53.656   5.538   8.531  0.00  0.00    +0.000 A 
ATOM     33  O   UNL     1      53.511   5.355   9.736  0.00  0.00    +0.000 OA
ATOM     34  C   UNL     1      53.633   6.845   7.901  0.00  0.00    +0.000 A 
ATOM     35  H   UNL     1      53.895   3.569   8.082  0.00  0.00    +0.000 HD
ENDBRANCH  22  25
ENDBRANCH  20  21
ENDBRANCH   4  20
TORSDOF 7
ENDMDL
