MODEL 1
REMARK VINA RESULT:    -8.380      0.000      0.000
REMARK INTER + INTRA:         -12.148
REMARK INTER:                 -11.319
REMARK INTRA:                  -0.828
REMARK UNBOUND:                -0.828
REMARK  Name = 
REMARK  6 active torsions:
REMARK  status: ('A' for Active; 'I' for Inactive)
REMARK    1  A    between atoms: C_2  and  C_3
REMARK    2  A    between atoms: C_6  and  C_7
REMARK    3  A    between atoms: C_7  and  C_8
REMARK    4  A    between atoms: C_11  and  C_12
REMARK    5  A    between atoms: C_12  and  N_13
REMARK    6  A    between atoms: C_14  and  C_16
REMARK                            x       y       z     vdW  Elec       q    Type
REMARK                         _______ _______ _______ _____ _____    ______ ____
ROOT
ATOM      1  C   UNL     1      47.191   8.299  13.641  0.00  0.00    +0.000 C 
ENDROOT
BRANCH   1   5
ATOM      2  C   UNL     1      44.821   5.560  11.263  0.00  0.00    +0.000 A 
ATOM      3  C   UNL     1      44.449   6.905  11.382  0.00  0.00    +0.000 A 
ATOM      4  C   UNL     1      45.199   7.785  12.168  0.00  0.00    +0.000 A 
ATOM      5  C   UNL     1      46.345   7.342  12.840  0.00  0.00    +0.000 A 
ATOM      6  C   UNL     1      46.678   5.983  12.773  0.00  0.00    +0.000 A 
ATOM      7  C   UNL     1      45.931   5.102  11.985  0.00  0.00    +0.000 A 
BRANCH   2   8
ATOM      8  C   UNL     1      44.056   4.628  10.351  0.00  0.00    +0.000 C 
BRANCH   8  12
ATOM      9  C   UNL     1      46.568   2.626   7.548  0.00  0.00    +0.000 A 
ATOM     10  C   UNL     1      45.857   1.850   8.456  0.00  0.00    +0.000 A 
ATOM     11  C   UNL     1      45.021   2.493   9.371  0.00  0.00    +0.000 A 
ATOM     12  C   UNL     1      44.921   3.887   9.362  0.00  0.00    +0.000 A 
ATOM     13  C   UNL     1      45.657   4.571   8.397  0.00  0.00    +0.000 A 
ATOM     14  N   UNL     1      46.478   3.978   7.499  0.00  0.00    +0.000 NA
BRANCH   9  16
ATOM     15  N   UNL     1      48.218   1.553   5.844  0.00  0.00    +0.000 NA
ATOM     16  C   UNL     1      47.465   2.013   6.602  0.00  0.00    +0.000 C 
ENDBRANCH   9  16
ENDBRANCH   8  12
ENDBRANCH   2   8
ENDBRANCH   1   5
BRANCH   1  17
ATOM     17  N   UNL     1      47.690   7.674  14.835  0.00  0.00    +0.000 N 
ATOM     18  C   UNL     1      48.971   7.188  14.915  0.00  0.00    +0.000 C 
ATOM     19  O   UNL     1      49.780   7.319  14.003  0.00  0.00    +0.000 OA
ATOM     20  H   UNL     1      46.992   7.333  15.488  0.00  0.00    +0.000 HD
BRANCH  18  21
ATOM     21  C   UNL     1      49.338   6.563  16.190  0.00  0.00    +0.000 A 
ATOM     22  C   UNL     1      50.265   7.173  17.025  0.00  0.00    +0.000 A 
ATOM     23  S   UNL     1      50.492   6.356  18.505  0.00  0.00    +0.000 S 
ATOM     24  C   UNL     1      49.404   5.126  18.058  0.00  0.00    +0.000 A 
ATOM     25  N   UNL     1      49.135   4.087  18.892  0.00  0.00    +0.000 NA
ATOM     26  C   UNL     1      48.311   3.216  18.412  0.00  0.00    +0.000 A 
ATOM     27  N   UNL     1      47.734   3.287  17.170  0.00  0.00    +0.000 N 
ATOM     28  C   UNL     1      47.965   4.324  16.301  0.00  0.00    +0.000 A 
ATOM     29  O   UNL     1      47.417   4.368  15.204  0.00  0.00    +0.000 OA
ATOM     30  C   UNL     1      48.875   5.337  16.798  0.00  0.00    +0.000 A 
ATOM     31  H   UNL     1      47.098   2.570  16.853  0.00  0.00    +0.000 HD
ENDBRANCH  18  21
ENDBRANCH   1  17
TORSDOF 6
ENDMDL
MODEL 2
REMARK VINA RESULT:    -7.521      2.395      4.086
REMARK INTER + INTRA:         -10.987
REMARK INTER:                  -9.817
REMARK INTRA:                  -1.170
REMARK UNBOUND:                -0.828
REMARK  Name = 
REMARK  6 active torsions:
REMARK  status: ('A' for Active; 'I' for Inactive)
REMARK    1  A    between atoms: C_2  and  C_3
REMARK    2  A    between atoms: C_6  and  C_7
REMARK    3  A    between atoms: C_7  and  C_8
REMARK    4  A    between atoms: C_11  and  C_12
REMARK    5  A    between atoms: C_12  and  N_13
REMARK    6  A    between atoms: C_14  and  C_16
REMARK                            x       y       z     vdW  Elec       q    Type
REMARK                         _______ _______ _______ _____ _____    ______ ____
ROOT
ATOM      1  C   UNL     1      47.460   5.539  15.015  0.00  0.00    +0.000 C 
ENDROOT
BRANCH   1   5
ATOM      2  C   UNL     1      44.999   4.445  11.620  0.00  0.00    +0.000 A 
ATOM      3  C   UNL     1      45.234   5.792  11.926  0.00  0.00    +0.000 A 
ATOM      4  C   UNL     1      46.009   6.148  13.034  0.00  0.00    +0.000 A 
ATOM      5  C   UNL     1      46.575   5.163  13.853  0.00  0.00    +0.000 A 
ATOM      6  C   UNL     1      46.285   3.819  13.586  0.00  0.00    +0.000 A 
ATOM      7  C   UNL     1      45.514   3.462  12.476  0.00  0.00    +0.000 A 
BRANCH   2   8
ATOM      8  C   UNL     1      44.228   4.060  10.378  0.00  0.00    +0.000 C 
BRANCH   8  12
ATOM      9  C   UNL     1      46.714   2.591   7.242  0.00  0.00    +0.000 A 
ATOM     10  C   UNL     1      46.121   1.664   8.091  0.00  0.00    +0.000 A 
ATOM     11  C   UNL     1      45.295   2.132   9.115  0.00  0.00    +0.000 A 
ATOM     12  C   UNL     1      45.087   3.506   9.269  0.00  0.00    +0.000 A 
ATOM     13  C   UNL     1      45.708   4.349   8.351  0.00  0.00    +0.000 A 
ATOM     14  N   UNL     1      46.518   3.928   7.351  0.00  0.00    +0.000 NA
BRANCH   9  16
ATOM     15  N   UNL     1      48.345   1.817   5.366  0.00  0.00    +0.000 NA
ATOM     16  C   UNL     1      47.597   2.161   6.187  0.00  0.00    +0.000 C 
ENDBRANCH   9  16
ENDBRANCH   8  12
ENDBRANCH   2   8
ENDBRANCH   1   5
BRANCH   1  17
ATOM     17  N   UNL     1      48.143   6.779  14.765  0.00  0.00    +0.000 N 
ATOM     18  C   UNL     1      49.394   7.029  15.271  0.00  0.00    +0.000 C 
ATOM     19  O   UNL     1      50.025   6.190  15.904  0.00  0.00    +0.000 OA
ATOM     20  H   UNL     1      47.564   7.560  14.475  0.00  0.00    +0.000 HD
BRANCH  18  21
ATOM     21  C   UNL     1      49.963   8.342  14.948  0.00  0.00    +0.000 A 
ATOM     22  C   UNL     1      50.356   9.201  15.965  0.00  0.00    +0.000 A 
ATOM     23  S   UNL     1      51.086  10.637  15.401  0.00  0.00    +0.000 S 
ATOM     24  C   UNL     1      50.849  10.186  13.777  0.00  0.00    +0.000 A 
ATOM     25  N   UNL     1      51.252  10.990  12.757  0.00  0.00    +0.000 NA
ATOM     26  C   UNL     1      50.985  10.533  11.579  0.00  0.00    +0.000 A 
ATOM     27  N   UNL     1      50.346   9.347  11.327  0.00  0.00    +0.000 N 
ATOM     28  C   UNL     1      49.934   8.497  12.323  0.00  0.00    +0.000 A 
ATOM     29  O   UNL     1      49.384   7.432  12.063  0.00  0.00    +0.000 OA
ATOM     30  C   UNL     1      50.222   8.959  13.668  0.00  0.00    +0.000 A 
ATOM     31  H   UNL     1      50.166   9.047  10.380  0.00  0.00    +0.000 HD
ENDBRANCH  18  21
ENDBRANCH   1  17
TORSDOF 6
ENDMDL
MODEL 3
REMARK VINA RESULT:    -7.451      3.819      4.781
REMARK INTER + INTRA:         -10.892
REMARK INTER:                  -9.781
REMARK INTRA:                  -1.111
REMARK UNBOUND:                -0.828
REMARK  Name = 
REMARK  6 active torsions:
REMARK  status: ('A' for Active; 'I' for Inactive)
REMARK    1  A    between atoms: C_2  and  C_3
REMARK    2  A    between atoms: C_6  and  C_7
REMARK    3  A    between atoms: C_7  and  C_8
REMARK    4  A    between atoms: C_11  and  C_12
REMARK    5  A    between atoms: C_12  and  N_13
REMARK    6  A    between atoms: C_14  and  C_16
REMARK                            x       y       z     vdW  Elec       q    Type
REMARK                         _______ _______ _______ _____ _____    ______ ____
ROOT
ATOM      1  C   UNL     1      46.460   8.617  13.243  0.00  0.00    +0.000 C 
ENDROOT
BRANCH   1   5
ATOM      2  C   UNL     1      44.493   5.347  11.190  0.00  0.00    +0.000 A 
ATOM      3  C   UNL     1      43.978   6.648  11.116  0.00  0.00    +0.000 A 
ATOM      4  C   UNL     1      44.598   7.700  11.797  0.00  0.00    +0.000 A 
ATOM      5  C   UNL     1      45.753   7.476  12.555  0.00  0.00    +0.000 A 
ATOM      6  C   UNL     1      46.229   6.165  12.682  0.00  0.00    +0.000 A 
ATOM      7  C   UNL     1      45.613   5.112  11.999  0.00  0.00    +0.000 A 
BRANCH   2   8
ATOM      8  C   UNL     1      43.869   4.226  10.391  0.00  0.00    +0.000 C 
BRANCH   8  12
ATOM      9  C   UNL     1      46.560   2.532   7.551  0.00  0.00    +0.000 A 
ATOM     10  C   UNL     1      45.943   1.675   8.455  0.00  0.00    +0.000 A 
ATOM     11  C   UNL     1      45.050   2.216   9.382  0.00  0.00    +0.000 A 
ATOM     12  C   UNL     1      44.801   3.592   9.389  0.00  0.00    +0.000 A 
ATOM     13  C   UNL     1      45.453   4.360   8.428  0.00  0.00    +0.000 A 
ATOM     14  N   UNL     1      46.327   3.868   7.519  0.00  0.00    +0.000 NA
BRANCH   9  16
ATOM     15  N   UNL     1      48.267   1.655   5.792  0.00  0.00    +0.000 NA
ATOM     16  C   UNL     1      47.511   2.028   6.593  0.00  0.00    +0.000 C 
ENDBRANCH   9  16
ENDBRANCH   8  12
ENDBRANCH   2   8
ENDBRANCH   1   5
BRANCH   1  17
ATOM     17  N   UNL     1      47.675   8.962  12.557  0.00  0.00    +0.000 N 
ATOM     18  C   UNL     1      48.622   9.774  13.129  0.00  0.00    +0.000 C 
ATOM     19  O   UNL     1      48.520  10.194  14.276  0.00  0.00    +0.000 OA
ATOM     20  H   UNL     1      47.670   8.846  11.549  0.00  0.00    +0.000 HD
BRANCH  18  21
ATOM     21  C   UNL     1      49.805  10.053  12.307  0.00  0.00    +0.000 A 
ATOM     22  C   UNL     1      50.242  11.359  12.136  0.00  0.00    +0.000 A 
ATOM     23  S   UNL     1      51.686  11.483  11.234  0.00  0.00    +0.000 S 
ATOM     24  C   UNL     1      51.744   9.799  10.992  0.00  0.00    +0.000 A 
ATOM     25  N   UNL     1      52.751   9.225  10.280  0.00  0.00    +0.000 NA
ATOM     26  C   UNL     1      52.653   7.943  10.155  0.00  0.00    +0.000 A 
ATOM     27  N   UNL     1      51.637   7.182  10.673  0.00  0.00    +0.000 N 
ATOM     28  C   UNL     1      50.609   7.716  11.409  0.00  0.00    +0.000 A 
ATOM     29  O   UNL     1      49.725   7.005  11.877  0.00  0.00    +0.000 OA
ATOM     30  C   UNL     1      50.678   9.154  11.590  0.00  0.00    +0.000 A 
ATOM     31  H   UNL     1      51.618   6.182  10.538  0.00  0.00    +0.000 HD
ENDBRANCH  18  21
ENDBRANCH   1  17
TORSDOF 6
ENDMDL
MODEL 4
REMARK VINA RESULT:    -7.190      2.581      3.553
REMARK INTER + INTRA:         -10.540
REMARK INTER:                  -9.481
REMARK INTRA:                  -1.059
REMARK UNBOUND:                -0.828
REMARK  Name = 
REMARK  6 active torsions:
REMARK  status: ('A' for Active; 'I' for Inactive)
REMARK    1  A    between atoms: C_2  and  C_3
REMARK    2  A    between atoms: C_6  and  C_7
REMARK    3  A    between atoms: C_7  and  C_8
REMARK    4  A    between atoms: C_11  and  C_12
REMARK    5  A    between atoms: C_12  and  N_13
REMARK    6  A    between atoms: C_14  and  C_16
REMARK                            x       y       z     vdW  Elec       q    Type
REMARK                         _______ _______ _______ _____ _____    ______ ____
ROOT
ATOM      1  C   UNL     1      47.743   4.956  15.420  0.00  0.00    +0.000 C 
ENDROOT
BRANCH   1   5
ATOM      2  C   UNL     1      45.404   4.309  11.830  0.00  0.00    +0.000 A 
ATOM      3  C   UNL     1      45.889   3.223  12.571  0.00  0.00    +0.000 A 
ATOM      4  C   UNL     1      46.663   3.429  13.717  0.00  0.00    +0.000 A 
ATOM      5  C   UNL     1      46.958   4.726  14.153  0.00  0.00    +0.000 A 
ATOM      6  C   UNL     1      46.530   5.810  13.376  0.00  0.00    +0.000 A 
ATOM      7  C   UNL     1      45.753   5.605  12.231  0.00  0.00    +0.000 A 
BRANCH   2   8
ATOM      8  C   UNL     1      44.502   4.086  10.638  0.00  0.00    +0.000 C 
BRANCH   8  12
ATOM      9  C   UNL     1      46.586   2.753   7.166  0.00  0.00    +0.000 A 
ATOM     10  C   UNL     1      46.076   1.790   8.029  0.00  0.00    +0.000 A 
ATOM     11  C   UNL     1      45.381   2.214   9.163  0.00  0.00    +0.000 A 
ATOM     12  C   UNL     1      45.218   3.580   9.410  0.00  0.00    +0.000 A 
ATOM     13  C   UNL     1      45.748   4.463   8.472  0.00  0.00    +0.000 A 
ATOM     14  N   UNL     1      46.430   4.085   7.366  0.00  0.00    +0.000 NA
BRANCH   9  16
ATOM     15  N   UNL     1      47.975   2.085   5.068  0.00  0.00    +0.000 NA
ATOM     16  C   UNL     1      47.336   2.369   5.996  0.00  0.00    +0.000 C 
ENDBRANCH   9  16
ENDBRANCH   8  12
ENDBRANCH   2   8
ENDBRANCH   1   5
BRANCH   1  17
ATOM     17  N   UNL     1      47.821   6.357  15.733  0.00  0.00    +0.000 N 
ATOM     18  C   UNL     1      49.026   7.006  15.844  0.00  0.00    +0.000 C 
ATOM     19  O   UNL     1      50.095   6.448  15.618  0.00  0.00    +0.000 OA
ATOM     20  H   UNL     1      46.999   6.768  16.162  0.00  0.00    +0.000 HD
BRANCH  18  21
ATOM     21  C   UNL     1      48.955   8.432  16.181  0.00  0.00    +0.000 A 
ATOM     22  C   UNL     1      49.527   9.376  15.340  0.00  0.00    +0.000 A 
ATOM     23  S   UNL     1      49.259  10.986  15.840  0.00  0.00    +0.000 S 
ATOM     24  C   UNL     1      48.419  10.474  17.229  0.00  0.00    +0.000 A 
ATOM     25  N   UNL     1      47.910  11.372  18.115  0.00  0.00    +0.000 NA
ATOM     26  C   UNL     1      47.321  10.841  19.134  0.00  0.00    +0.000 A 
ATOM     27  N   UNL     1      47.198   9.493  19.352  0.00  0.00    +0.000 N 
ATOM     28  C   UNL     1      47.684   8.551  18.480  0.00  0.00    +0.000 A 
ATOM     29  O   UNL     1      47.539   7.352  18.694  0.00  0.00    +0.000 OA
ATOM     30  C   UNL     1      48.345   9.096  17.309  0.00  0.00    +0.000 A 
ATOM     31  H   UNL     1      46.726   9.143  20.172  0.00  0.00    +0.000 HD
ENDBRANCH  18  21
ENDBRANCH   1  17
TORSDOF 6
ENDMDL
MODEL 5
REMARK VINA RESULT:    -7.064      3.687      8.354
REMARK INTER + INTRA:         -10.370
REMARK INTER:                  -9.328
REMARK INTRA:                  -1.042
REMARK UNBOUND:                -0.828
REMARK  Name = 
REMARK  6 active torsions:
REMARK  status: ('A' for Active; 'I' for Inactive)
REMARK    1  A    between atoms: C_2  and  C_3
REMARK    2  A    between atoms: C_6  and  C_7
REMARK    3  A    between atoms: C_7  and  C_8
REMARK    4  A    between atoms: C_11  and  C_12
REMARK    5  A    between atoms: C_12  and  N_13
REMARK    6  A    between atoms: C_14  and  C_16
REMARK                            x       y       z     vdW  Elec       q    Type
REMARK                         _______ _______ _______ _____ _____    ______ ____
ROOT
ATOM      1  C   UNL     1      48.369   7.345  13.075  0.00  0.00    +0.000 C 
ENDROOT
BRANCH   1   5
ATOM      2  C   UNL     1      49.402   5.610  16.910  0.00  0.00    +0.000 A 
ATOM      3  C   UNL     1      48.225   5.232  16.250  0.00  0.00    +0.000 A 
ATOM      4  C   UNL     1      47.878   5.808  15.024  0.00  0.00    +0.000 A 
ATOM      5  C   UNL     1      48.707   6.764  14.425  0.00  0.00    +0.000 A 
ATOM      6  C   UNL     1      49.849   7.189  15.116  0.00  0.00    +0.000 A 
ATOM      7  C   UNL     1      50.199   6.612  16.340  0.00  0.00    +0.000 A 
BRANCH   2   8
ATOM      8  C   UNL     1      49.816   4.931  18.195  0.00  0.00    +0.000 C 
BRANCH   8  12
ATOM      9  C   UNL     1      52.504   1.655  17.727  0.00  0.00    +0.000 A 
ATOM     10  C   UNL     1      51.186   1.479  17.323  0.00  0.00    +0.000 A 
ATOM     11  C   UNL     1      50.299   2.548  17.459  0.00  0.00    +0.000 A 
ATOM     12  C   UNL     1      50.745   3.758  17.999  0.00  0.00    +0.000 A 
ATOM     13  C   UNL     1      52.090   3.839  18.352  0.00  0.00    +0.000 A 
ATOM     14  N   UNL     1      52.973   2.821  18.236  0.00  0.00    +0.000 NA
BRANCH   9  16
ATOM     15  N   UNL     1      54.186  -0.326  17.577  0.00  0.00    +0.000 NA
ATOM     16  C   UNL     1      53.452   0.574  17.634  0.00  0.00    +0.000 C 
ENDBRANCH   9  16
ENDBRANCH   8  12
ENDBRANCH   2   8
ENDBRANCH   1   5
BRANCH   1  17
ATOM     17  N   UNL     1      47.612   6.412  12.286  0.00  0.00    +0.000 N 
ATOM     18  C   UNL     1      46.391   6.742  11.752  0.00  0.00    +0.000 C 
ATOM     19  O   UNL     1      45.909   7.865  11.860  0.00  0.00    +0.000 OA
ATOM     20  H   UNL     1      47.854   5.433  12.392  0.00  0.00    +0.000 HD
BRANCH  18  21
ATOM     21  C   UNL     1      45.725   5.686  10.981  0.00  0.00    +0.000 A 
ATOM     22  C   UNL     1      45.886   5.623   9.604  0.00  0.00    +0.000 A 
ATOM     23  S   UNL     1      45.122   4.275   8.889  0.00  0.00    +0.000 S 
ATOM     24  C   UNL     1      44.501   3.761  10.388  0.00  0.00    +0.000 A 
ATOM     25  N   UNL     1      43.736   2.642  10.487  0.00  0.00    +0.000 NA
ATOM     26  C   UNL     1      43.313   2.387  11.681  0.00  0.00    +0.000 A 
ATOM     27  N   UNL     1      43.582   3.153  12.785  0.00  0.00    +0.000 N 
ATOM     28  C   UNL     1      44.360   4.283  12.736  0.00  0.00    +0.000 A 
ATOM     29  O   UNL     1      44.600   4.935  13.747  0.00  0.00    +0.000 OA
ATOM     30  C   UNL     1      44.872   4.606  11.418  0.00  0.00    +0.000 A 
ATOM     31  H   UNL     1      43.218   2.899  13.692  0.00  0.00    +0.000 HD
ENDBRANCH  18  21
ENDBRANCH   1  17
TORSDOF 6
ENDMDL
MODEL 6
REMARK VINA RESULT:    -6.833      4.667      9.086
REMARK INTER + INTRA:         -10.058
REMARK INTER:                  -9.502
REMARK INTRA:                  -0.555
REMARK UNBOUND:                -0.828
REMARK  Name = 
REMARK  6 active torsions:
REMARK  status: ('A' for Active; 'I' for Inactive)
REMARK    1  A    between atoms: C_2  and  C_3
REMARK    2  A    between atoms: C_6  and  C_7
REMARK    3  A    between atoms: C_7  and  C_8
REMARK    4  A    between atoms: C_11  and  C_12
REMARK    5  A    between atoms: C_12  and  N_13
REMARK    6  A    between atoms: C_14  and  C_16
REMARK                            x       y       z     vdW  Elec       q    Type
REMARK                         _______ _______ _______ _____ _____    ______ ____
ROOT
ATOM      1  C   UNL     1      47.352   3.313  16.977  0.00  0.00    +0.000 C 
ENDROOT
BRANCH   1   5
ATOM      2  C   UNL     1      51.600   3.138  17.816  0.00  0.00    +0.000 A 
ATOM      3  C   UNL     1      50.866   4.301  18.089  0.00  0.00    +0.000 A 
ATOM      4  C   UNL     1      49.500   4.367  17.797  0.00  0.00    +0.000 A 
ATOM      5  C   UNL     1      48.836   3.268  17.239  0.00  0.00    +0.000 A 
ATOM      6  C   UNL     1      49.583   2.130  16.906  0.00  0.00    +0.000 A 
ATOM      7  C   UNL     1      50.948   2.061  17.201  0.00  0.00    +0.000 A 
BRANCH   2   8
ATOM      8  C   UNL     1      53.057   3.039  18.205  0.00  0.00    +0.000 C 
BRANCH   8  12
ATOM      9  C   UNL     1      54.837  -0.659  17.053  0.00  0.00    +0.000 A 
ATOM     10  C   UNL     1      55.249   0.494  16.396  0.00  0.00    +0.000 A 
ATOM     11  C   UNL     1      54.683   1.713  16.773  0.00  0.00    +0.000 A 
ATOM     12  C   UNL     1      53.719   1.751  17.785  0.00  0.00    +0.000 A 
ATOM     13  C   UNL     1      53.392   0.542  18.396  0.00  0.00    +0.000 A 
ATOM     14  N   UNL     1      53.919  -0.656  18.051  0.00  0.00    +0.000 NA
BRANCH   9  16
ATOM     15  N   UNL     1      55.774  -2.983  16.346  0.00  0.00    +0.000 NA
ATOM     16  C   UNL     1      55.369  -1.946  16.682  0.00  0.00    +0.000 C 
ENDBRANCH   9  16
ENDBRANCH   8  12
ENDBRANCH   2   8
ENDBRANCH   1   5
BRANCH   1  17
ATOM     17  N   UNL     1      47.027   4.328  16.013  0.00  0.00    +0.000 N 
ATOM     18  C   UNL     1      47.101   4.092  14.663  0.00  0.00    +0.000 C 
ATOM     19  O   UNL     1      47.382   2.990  14.204  0.00  0.00    +0.000 OA
ATOM     20  H   UNL     1      47.042   5.285  16.347  0.00  0.00    +0.000 HD
BRANCH  18  21
ATOM     21  C   UNL     1      46.755   5.224  13.797  0.00  0.00    +0.000 A 
ATOM     22  C   UNL     1      47.648   6.273  13.630  0.00  0.00    +0.000 A 
ATOM     23  S   UNL     1      47.119   7.448  12.512  0.00  0.00    +0.000 S 
ATOM     24  C   UNL     1      45.651   6.625  12.256  0.00  0.00    +0.000 A 
ATOM     25  N   UNL     1      44.715   7.106  11.394  0.00  0.00    +0.000 NA
ATOM     26  C   UNL     1      43.641   6.393  11.319  0.00  0.00    +0.000 A 
ATOM     27  N   UNL     1      43.416   5.243  12.031  0.00  0.00    +0.000 N 
ATOM     28  C   UNL     1      44.336   4.713  12.901  0.00  0.00    +0.000 A 
ATOM     29  O   UNL     1      44.111   3.671  13.507  0.00  0.00    +0.000 OA
ATOM     30  C   UNL     1      45.568   5.471  13.012  0.00  0.00    +0.000 A 
ATOM     31  H   UNL     1      42.552   4.732  11.928  0.00  0.00    +0.000 HD
ENDBRANCH  18  21
ENDBRANCH   1  17
TORSDOF 6
ENDMDL
MODEL 7
REMARK VINA RESULT:    -6.569      2.186      3.226
REMARK INTER + INTRA:          -9.701
REMARK INTER:                  -8.867
REMARK INTRA:                  -0.834
REMARK UNBOUND:                -0.828
REMARK  Name = 
REMARK  6 active torsions:
REMARK  status: ('A' for Active; 'I' for Inactive)
REMARK    1  A    between atoms: C_2  and  C_3
REMARK    2  A    between atoms: C_6  and  C_7
REMARK    3  A    between atoms: C_7  and  C_8
REMARK    4  A    between atoms: C_11  and  C_12
REMARK    5  A    between atoms: C_12  and  N_13
REMARK    6  A    between atoms: C_14  and  C_16
REMARK                            x       y       z     vdW  Elec       q    Type
REMARK                         _______ _______ _______ _____ _____    ______ ____
ROOT
ATOM      1  C   UNL     1      47.169   4.333  15.662  0.00  0.00    +0.000 C 
ENDROOT
BRANCH   1   5
ATOM      2  C   UNL     1      45.332   4.539  11.743  0.00  0.00    +0.000 A 
ATOM      3  C   UNL     1      45.681   3.303  12.303  0.00  0.00    +0.000 A 
ATOM      4  C   UNL     1      46.295   3.236  13.557  0.00  0.00    +0.000 A 
ATOM      5  C   UNL     1      46.561   4.402  14.284  0.00  0.00    +0.000 A 
ATOM      6  C   UNL     1      46.273   5.640  13.695  0.00  0.00    +0.000 A 
ATOM      7  C   UNL     1      45.656   5.709  12.443  0.00  0.00    +0.000 A 
BRANCH   2   8
ATOM      8  C   UNL     1      44.598   4.607  10.424  0.00  0.00    +0.000 C 
BRANCH   8  12
ATOM      9  C   UNL     1      46.745   2.861   7.181  0.00  0.00    +0.000 A 
ATOM     10  C   UNL     1      46.048   2.012   8.033  0.00  0.00    +0.000 A 
ATOM     11  C   UNL     1      45.331   2.573   9.091  0.00  0.00    +0.000 A 
ATOM     12  C   UNL     1      45.332   3.958   9.277  0.00  0.00    +0.000 A 
ATOM     13  C   UNL     1      46.043   4.722   8.354  0.00  0.00    +0.000 A 
ATOM     14  N   UNL     1      46.751   4.210   7.321  0.00  0.00    +0.000 NA
BRANCH   9  16
ATOM     15  N   UNL     1      48.119   1.915   5.182  0.00  0.00    +0.000 NA
ATOM     16  C   UNL     1      47.523   2.331   6.090  0.00  0.00    +0.000 C 
ENDBRANCH   9  16
ENDBRANCH   8  12
ENDBRANCH   2   8
ENDBRANCH   1   5
BRANCH   1  17
ATOM     17  N   UNL     1      48.069   5.431  15.886  0.00  0.00    +0.000 N 
ATOM     18  C   UNL     1      48.207   6.012  17.122  0.00  0.00    +0.000 C 
ATOM     19  O   UNL     1      47.624   5.587  18.115  0.00  0.00    +0.000 OA
ATOM     20  H   UNL     1      48.359   5.949  15.064  0.00  0.00    +0.000 HD
BRANCH  18  21
ATOM     21  C   UNL     1      49.150   7.132  17.200  0.00  0.00    +0.000 A 
ATOM     22  C   UNL     1      48.681   8.431  17.331  0.00  0.00    +0.000 A 
ATOM     23  S   UNL     1      49.920   9.591  17.507  0.00  0.00    +0.000 S 
ATOM     24  C   UNL     1      51.130   8.402  17.357  0.00  0.00    +0.000 A 
ATOM     25  N   UNL     1      52.448   8.729  17.415  0.00  0.00    +0.000 NA
ATOM     26  C   UNL     1      53.253   7.731  17.260  0.00  0.00    +0.000 A 
ATOM     27  N   UNL     1      52.859   6.435  17.046  0.00  0.00    +0.000 N 
ATOM     28  C   UNL     1      51.541   6.057  16.993  0.00  0.00    +0.000 A 
ATOM     29  O   UNL     1      51.222   4.885  16.821  0.00  0.00    +0.000 OA
ATOM     30  C   UNL     1      50.594   7.141  17.175  0.00  0.00    +0.000 A 
ATOM     31  H   UNL     1      53.541   5.700  16.930  0.00  0.00    +0.000 HD
ENDBRANCH  18  21
ENDBRANCH   1  17
TORSDOF 6
ENDMDL
MODEL 8
REMARK VINA RESULT:    -6.445      3.864      9.075
REMARK INTER + INTRA:          -9.534
REMARK INTER:                  -8.532
REMARK INTRA:                  -1.002
REMARK UNBOUND:                -0.828
REMARK  Name = 
REMARK  6 active torsions:
REMARK  status: ('A' for Active; 'I' for Inactive)
REMARK    1  A    between atoms: C_2  and  C_3
REMARK    2  A    between atoms: C_6  and  C_7
REMARK    3  A    between atoms: C_7  and  C_8
REMARK    4  A    between atoms: C_11  and  C_12
REMARK    5  A    between atoms: C_12  and  N_13
REMARK    6  A    between atoms: C_14  and  C_16
REMARK                            x       y       z     vdW  Elec       q    Type
REMARK                         _______ _______ _______ _____ _____    ______ ____
ROOT
ATOM      1  C   UNL     1      47.434   3.352  16.583  0.00  0.00    +0.000 C 
ENDROOT
BRANCH   1   5
ATOM      2  C   UNL     1      51.352   4.702  17.851  0.00  0.00    +0.000 A 
ATOM      3  C   UNL     1      50.366   5.625  17.480  0.00  0.00    +0.000 A 
ATOM      4  C   UNL     1      49.108   5.191  17.049  0.00  0.00    +0.000 A 
ATOM      5  C   UNL     1      48.807   3.825  16.991  0.00  0.00    +0.000 A 
ATOM      6  C   UNL     1      49.815   2.902  17.298  0.00  0.00    +0.000 A 
ATOM      7  C   UNL     1      51.071   3.334  17.733  0.00  0.00    +0.000 A 
BRANCH   2   8
ATOM      8  C   UNL     1      52.683   5.173  18.392  0.00  0.00    +0.000 C 
BRANCH   8  12
ATOM      9  C   UNL     1      54.569   8.265  16.144  0.00  0.00    +0.000 A 
ATOM     10  C   UNL     1      54.419   7.021  15.542  0.00  0.00    +0.000 A 
ATOM     11  C   UNL     1      53.791   6.004  16.263  0.00  0.00    +0.000 A 
ATOM     12  C   UNL     1      53.338   6.249  17.563  0.00  0.00    +0.000 A 
ATOM     13  C   UNL     1      53.516   7.536  18.065  0.00  0.00    +0.000 A 
ATOM     14  N   UNL     1      54.123   8.542  17.394  0.00  0.00    +0.000 NA
BRANCH   9  16
ATOM     15  N   UNL     1      55.758  10.190  14.855  0.00  0.00    +0.000 NA
ATOM     16  C   UNL     1      55.234   9.340  15.452  0.00  0.00    +0.000 C 
ENDBRANCH   9  16
ENDBRANCH   8  12
ENDBRANCH   2   8
ENDBRANCH   1   5
BRANCH   1  17
ATOM     17  N   UNL     1      46.799   4.300  15.709  0.00  0.00    +0.000 N 
ATOM     18  C   UNL     1      46.820   4.152  14.345  0.00  0.00    +0.000 C 
ATOM     19  O   UNL     1      47.320   3.174  13.799  0.00  0.00    +0.000 OA
ATOM     20  H   UNL     1      46.610   5.216  16.102  0.00  0.00    +0.000 HD
BRANCH  18  21
ATOM     21  C   UNL     1      46.144   5.203  13.577  0.00  0.00    +0.000 A 
ATOM     22  C   UNL     1      46.747   6.443  13.412  0.00  0.00    +0.000 A 
ATOM     23  S   UNL     1      45.862   7.503  12.410  0.00  0.00    +0.000 S 
ATOM     24  C   UNL     1      44.614   6.363  12.210  0.00  0.00    +0.000 A 
ATOM     25  N   UNL     1      43.522   6.641  11.449  0.00  0.00    +0.000 NA
ATOM     26  C   UNL     1      42.644   5.694  11.408  0.00  0.00    +0.000 A 
ATOM     27  N   UNL     1      42.758   4.495  12.062  0.00  0.00    +0.000 N 
ATOM     28  C   UNL     1      43.848   4.165  12.828  0.00  0.00    +0.000 A 
ATOM     29  O   UNL     1      43.928   3.074  13.384  0.00  0.00    +0.000 OA
ATOM     30  C   UNL     1      44.870   5.191  12.897  0.00  0.00    +0.000 A 
ATOM     31  H   UNL     1      42.033   3.795  11.989  0.00  0.00    +0.000 HD
ENDBRANCH  18  21
ENDBRANCH   1  17
TORSDOF 6
ENDMDL
MODEL 9
REMARK VINA RESULT:    -6.217      3.616      8.427
REMARK INTER + INTRA:          -9.226
REMARK INTER:                  -8.148
REMARK INTRA:                  -1.078
REMARK UNBOUND:                -0.828
REMARK  Name = 
REMARK  6 active torsions:
REMARK  status: ('A' for Active; 'I' for Inactive)
REMARK    1  A    between atoms: C_2  and  C_3
REMARK    2  A    between atoms: C_6  and  C_7
REMARK    3  A    between atoms: C_7  and  C_8
REMARK    4  A    between atoms: C_11  and  C_12
REMARK    5  A    between atoms: C_12  and  N_13
REMARK    6  A    between atoms: C_14  and  C_16
REMARK                            x       y       z     vdW  Elec       q    Type
REMARK                         _______ _______ _______ _____ _____    ______ ____
ROOT
ATOM      1  C   UNL     1      49.918   7.925  14.245  0.00  0.00    +0.000 C 
ENDROOT
BRANCH   1   5
ATOM      2  C   UNL     1      50.904   5.644  17.795  0.00  0.00    +0.000 A 
ATOM      3  C   UNL     1      49.568   5.904  17.463  0.00  0.00    +0.000 A 
ATOM      4  C   UNL     1      49.249   6.659  16.330  0.00  0.00    +0.000 A 
ATOM      5  C   UNL     1      50.258   7.160  15.500  0.00  0.00    +0.000 A 
ATOM      6  C   UNL     1      51.594   6.957  15.868  0.00  0.00    +0.000 A 
ATOM      7  C   UNL     1      51.915   6.198  16.999  0.00  0.00    +0.000 A 
BRANCH   2   8
ATOM      8  C   UNL     1      51.247   4.762  18.974  0.00  0.00    +0.000 C 
BRANCH   8  12
ATOM      9  C   UNL     1      53.232   1.114  18.011  0.00  0.00    +0.000 A 
ATOM     10  C   UNL     1      52.015   1.376  17.394  0.00  0.00    +0.000 A 
ATOM     11  C   UNL     1      51.361   2.573  17.692  0.00  0.00    +0.000 A 
ATOM     12  C   UNL     1      51.931   3.471  18.598  0.00  0.00    +0.000 A 
ATOM     13  C   UNL     1      53.165   3.126  19.144  0.00  0.00    +0.000 A 
ATOM     14  N   UNL     1      53.822   1.973  18.880  0.00  0.00    +0.000 NA
BRANCH   9  16
ATOM     15  N   UNL     1      54.531  -1.101  17.586  0.00  0.00    +0.000 NA
ATOM     16  C   UNL     1      53.934  -0.119  17.760  0.00  0.00    +0.000 C 
ENDBRANCH   9  16
ENDBRANCH   8  12
ENDBRANCH   2   8
ENDBRANCH   1   5
BRANCH   1  17
ATOM     17  N   UNL     1      48.796   7.336  13.568  0.00  0.00    +0.000 N 
ATOM     18  C   UNL     1      47.530   7.855  13.681  0.00  0.00    +0.000 C 
ATOM     19  O   UNL     1      47.297   8.883  14.307  0.00  0.00    +0.000 OA
ATOM     20  H   UNL     1      48.908   6.374  13.265  0.00  0.00    +0.000 HD
BRANCH  18  21
ATOM     21  C   UNL     1      46.480   7.142  12.946  0.00  0.00    +0.000 A 
ATOM     22  C   UNL     1      45.589   7.845  12.147  0.00  0.00    +0.000 A 
ATOM     23  S   UNL     1      44.502   6.844  11.293  0.00  0.00    +0.000 S 
ATOM     24  C   UNL     1      45.147   5.440  12.006  0.00  0.00    +0.000 A 
ATOM     25  N   UNL     1      44.657   4.208  11.705  0.00  0.00    +0.000 NA
ATOM     26  C   UNL     1      45.224   3.237  12.340  0.00  0.00    +0.000 A 
ATOM     27  N   UNL     1      46.235   3.386  13.254  0.00  0.00    +0.000 N 
ATOM     28  C   UNL     1      46.770   4.607  13.580  0.00  0.00    +0.000 A 
ATOM     29  O   UNL     1      47.689   4.703  14.387  0.00  0.00    +0.000 OA
ATOM     30  C   UNL     1      46.176   5.732  12.883  0.00  0.00    +0.000 A 
ATOM     31  H   UNL     1      46.634   2.583  13.718  0.00  0.00    +0.000 HD
ENDBRANCH  18  21
ENDBRANCH   1  17
TORSDOF 6
ENDMDL
