MODEL 1
REMARK VINA RESULT:    -8.432      0.000      0.000
REMARK INTER + INTRA:         -13.818
REMARK INTER:                 -12.375
REMARK INTRA:                  -1.443
REMARK UNBOUND:                -1.443
REMARK  Name = 
REMARK  10 active torsions:
REMARK  status: ('A' for Active; 'I' for Inactive)
REMARK    1  A    between atoms: C_1  and  O_2
REMARK    2  A    between atoms: O_2  and  C_3
REMARK    3  A    between atoms: C_10  and  C_11
REMARK    4  A    between atoms: N_13  and  C_14
REMARK    5  A    between atoms: C_14  and  C_15
REMARK    6  A    between atoms: C_18  and  C_19
REMARK    7  A    between atoms: C_19  and  N_20
REMARK    8  A    between atoms: N_20  and  C_21
REMARK    9  A    between atoms: C_21  and  C_22
REMARK   10  A    between atoms: C_21  and  C_23
REMARK                            x       y       z     vdW  Elec       q    Type
REMARK                         _______ _______ _______ _____ _____    ______ ____
ROOT
ATOM      1  C   UNL     1      46.248   7.156  12.443  0.00  0.00    +0.000 A 
ATOM      2  C   UNL     1      44.950   6.880  12.894  0.00  0.00    +0.000 A 
ATOM      3  C   UNL     1      44.071   6.122  12.113  0.00  0.00    +0.000 A 
ATOM      4  C   UNL     1      44.472   5.616  10.867  0.00  0.00    +0.000 A 
ATOM      5  C   UNL     1      45.778   5.870  10.431  0.00  0.00    +0.000 A 
ATOM      6  C   UNL     1      46.658   6.628  11.212  0.00  0.00    +0.000 A 
ENDROOT
BRANCH   1   7
ATOM      7  C   UNL     1      47.203   7.959  13.288  0.00  0.00    +0.000 C 
BRANCH   7  10
ATOM      8  C   UNL     1      48.850   6.843  14.735  0.00  0.00    +0.000 C 
ATOM      9  O   UNL     1      49.758   7.082  13.942  0.00  0.00    +0.000 OA
ATOM     10  N   UNL     1      47.566   7.237  14.481  0.00  0.00    +0.000 N 
ATOM     11  H   UNL     1      46.823   6.989  15.119  0.00  0.00    +0.000 HD
BRANCH   8  19
ATOM     12  C   UNL     1      47.275   4.219  16.316  0.00  0.00    +0.000 A 
ATOM     13  N   UNL     1      46.865   3.230  17.136  0.00  0.00    +0.000 NA
ATOM     14  C   UNL     1      47.551   3.023  18.263  0.00  0.00    +0.000 A 
ATOM     15  N   UNL     1      48.618   3.693  18.686  0.00  0.00    +0.000 NA
ATOM     16  C   UNL     1      48.996   4.664  17.841  0.00  0.00    +0.000 A 
ATOM     17  S   UNL     1      50.345   5.625  18.217  0.00  0.00    +0.000 S 
ATOM     18  C   UNL     1      50.170   6.522  16.785  0.00  0.00    +0.000 A 
ATOM     19  C   UNL     1      49.101   6.119  15.994  0.00  0.00    +0.000 A 
ATOM     20  C   UNL     1      48.400   5.003  16.629  0.00  0.00    +0.000 A 
BRANCH  12  22
ATOM     21  C   UNL     1      47.098   3.614  14.062  0.00  0.00    +0.000 C 
ATOM     22  O   UNL     1      46.594   4.406  15.134  0.00  0.00    +0.000 OA
ENDBRANCH  12  22
ENDBRANCH   8  19
ENDBRANCH   7  10
ENDBRANCH   1   7
BRANCH   4  23
ATOM     23  C   UNL     1      43.522   4.781  10.031  0.00  0.00    +0.000 C 
BRANCH  23  24
ATOM     24  N   UNL     1      44.203   4.192   8.880  0.00  0.00    +0.000 NA
ATOM     25  H   UNL     1      44.785   4.910   8.448  0.00  0.00    +0.000 HD
BRANCH  24  26
ATOM     26  C   UNL     1      45.068   3.051   9.220  0.00  0.00    +0.000 C 
ATOM     27  C   UNL     1      44.276   1.788   9.585  0.00  0.00    +0.000 C 
BRANCH  26  28
ATOM     28  C   UNL     1      45.996   2.743   8.050  0.00  0.00    +0.000 A 
ATOM     29  C   UNL     1      46.528   1.456   7.877  0.00  0.00    +0.000 A 
ATOM     30  C   UNL     1      47.356   1.169   6.788  0.00  0.00    +0.000 A 
ATOM     31  C   UNL     1      47.663   2.162   5.860  0.00  0.00    +0.000 A 
ATOM     32  C   UNL     1      47.148   3.446   6.021  0.00  0.00    +0.000 A 
ATOM     33  C   UNL     1      46.323   3.734   7.108  0.00  0.00    +0.000 A 
ENDBRANCH  26  28
ENDBRANCH  24  26
ENDBRANCH  23  24
ENDBRANCH   4  23
TORSDOF 8
ENDMDL
MODEL 2
REMARK VINA RESULT:    -7.927      2.594      3.336
REMARK INTER + INTRA:         -13.078
REMARK INTER:                 -11.709
REMARK INTRA:                  -1.369
REMARK UNBOUND:                -1.443
REMARK  Name = 
REMARK  10 active torsions:
REMARK  status: ('A' for Active; 'I' for Inactive)
REMARK    1  A    between atoms: C_1  and  O_2
REMARK    2  A    between atoms: O_2  and  C_3
REMARK    3  A    between atoms: C_10  and  C_11
REMARK    4  A    between atoms: N_13  and  C_14
REMARK    5  A    between atoms: C_14  and  C_15
REMARK    6  A    between atoms: C_18  and  C_19
REMARK    7  A    between atoms: C_19  and  N_20
REMARK    8  A    between atoms: N_20  and  C_21
REMARK    9  A    between atoms: C_21  and  C_22
REMARK   10  A    between atoms: C_21  and  C_23
REMARK                            x       y       z     vdW  Elec       q    Type
REMARK                         _______ _______ _______ _____ _____    ______ ____
ROOT
ATOM      1  C   UNL     1      47.361   5.845  13.568  0.00  0.00    +0.000 A 
ATOM      2  C   UNL     1      46.557   6.413  12.571  0.00  0.00    +0.000 A 
ATOM      3  C   UNL     1      45.583   5.648  11.921  0.00  0.00    +0.000 A 
ATOM      4  C   UNL     1      45.386   4.300  12.257  0.00  0.00    +0.000 A 
ATOM      5  C   UNL     1      46.173   3.742  13.272  0.00  0.00    +0.000 A 
ATOM      6  C   UNL     1      47.147   4.507  13.924  0.00  0.00    +0.000 A 
ENDROOT
BRANCH   1   7
ATOM      7  C   UNL     1      48.402   6.669  14.283  0.00  0.00    +0.000 C 
BRANCH   7  10
ATOM      8  C   UNL     1      49.000   6.211  16.625  0.00  0.00    +0.000 C 
ATOM      9  O   UNL     1      50.051   5.672  16.286  0.00  0.00    +0.000 OA
ATOM     10  N   UNL     1      48.134   6.720  15.698  0.00  0.00    +0.000 N 
ATOM     11  H   UNL     1      47.250   7.114  15.991  0.00  0.00    +0.000 HD
BRANCH   8  19
ATOM     12  C   UNL     1      47.743   8.786  18.536  0.00  0.00    +0.000 A 
ATOM     13  N   UNL     1      47.262   9.599  19.499  0.00  0.00    +0.000 NA
ATOM     14  C   UNL     1      47.135   9.104  20.733  0.00  0.00    +0.000 A 
ATOM     15  N   UNL     1      47.435   7.874  21.138  0.00  0.00    +0.000 NA
ATOM     16  C   UNL     1      47.905   7.097  20.150  0.00  0.00    +0.000 A 
ATOM     17  S   UNL     1      48.339   5.489  20.483  0.00  0.00    +0.000 S 
ATOM     18  C   UNL     1      48.790   5.223  18.867  0.00  0.00    +0.000 A 
ATOM     19  C   UNL     1      48.622   6.330  18.044  0.00  0.00    +0.000 A 
ATOM     20  C   UNL     1      48.089   7.452  18.817  0.00  0.00    +0.000 A 
BRANCH  12  22
ATOM     21  C   UNL     1      49.037  10.011  17.019  0.00  0.00    +0.000 C 
ATOM     22  O   UNL     1      47.835   9.282  17.255  0.00  0.00    +0.000 OA
ENDBRANCH  12  22
ENDBRANCH   8  19
ENDBRANCH   7  10
ENDBRANCH   1   7
BRANCH   4  23
ATOM     23  C   UNL     1      44.319   3.479  11.561  0.00  0.00    +0.000 C 
BRANCH  23  24
ATOM     24  N   UNL     1      44.903   2.567  10.579  0.00  0.00    +0.000 NA
ATOM     25  H   UNL     1      44.605   1.617  10.806  0.00  0.00    +0.000 HD
BRANCH  24  26
ATOM     26  C   UNL     1      44.501   2.850   9.192  0.00  0.00    +0.000 C 
ATOM     27  C   UNL     1      44.075   4.309   8.979  0.00  0.00    +0.000 C 
BRANCH  26  28
ATOM     28  C   UNL     1      45.651   2.517   8.246  0.00  0.00    +0.000 A 
ATOM     29  C   UNL     1      46.158   1.211   8.168  0.00  0.00    +0.000 A 
ATOM     30  C   UNL     1      47.192   0.901   7.280  0.00  0.00    +0.000 A 
ATOM     31  C   UNL     1      47.733   1.891   6.461  0.00  0.00    +0.000 A 
ATOM     32  C   UNL     1      47.244   3.193   6.531  0.00  0.00    +0.000 A 
ATOM     33  C   UNL     1      46.213   3.503   7.418  0.00  0.00    +0.000 A 
ENDBRANCH  26  28
ENDBRANCH  24  26
ENDBRANCH  23  24
ENDBRANCH   4  23
TORSDOF 8
ENDMDL
MODEL 3
REMARK VINA RESULT:    -7.894      1.928      2.551
REMARK INTER + INTRA:         -13.029
REMARK INTER:                 -11.958
REMARK INTRA:                  -1.070
REMARK UNBOUND:                -1.443
REMARK  Name = 
REMARK  10 active torsions:
REMARK  status: ('A' for Active; 'I' for Inactive)
REMARK    1  A    between atoms: C_1  and  O_2
REMARK    2  A    between atoms: O_2  and  C_3
REMARK    3  A    between atoms: C_10  and  C_11
REMARK    4  A    between atoms: N_13  and  C_14
REMARK    5  A    between atoms: C_14  and  C_15
REMARK    6  A    between atoms: C_18  and  C_19
REMARK    7  A    between atoms: C_19  and  N_20
REMARK    8  A    between atoms: N_20  and  C_21
REMARK    9  A    between atoms: C_21  and  C_22
REMARK   10  A    between atoms: C_21  and  C_23
REMARK                            x       y       z     vdW  Elec       q    Type
REMARK                         _______ _______ _______ _____ _____    ______ ____
ROOT
ATOM      1  C   UNL     1      47.379   6.255  13.270  0.00  0.00    +0.000 A 
ATOM      2  C   UNL     1      46.593   6.656  12.181  0.00  0.00    +0.000 A 
ATOM      3  C   UNL     1      45.629   5.796  11.645  0.00  0.00    +0.000 A 
ATOM      4  C   UNL     1      45.424   4.519  12.189  0.00  0.00    +0.000 A 
ATOM      5  C   UNL     1      46.191   4.131  13.294  0.00  0.00    +0.000 A 
ATOM      6  C   UNL     1      47.155   4.991  13.832  0.00  0.00    +0.000 A 
ENDROOT
BRANCH   1   7
ATOM      7  C   UNL     1      48.408   7.185  13.862  0.00  0.00    +0.000 C 
BRANCH   7  10
ATOM      8  C   UNL     1      49.134   6.856  16.190  0.00  0.00    +0.000 C 
ATOM      9  O   UNL     1      50.161   6.289  15.824  0.00  0.00    +0.000 OA
ATOM     10  N   UNL     1      48.220   7.320  15.285  0.00  0.00    +0.000 N 
ATOM     11  H   UNL     1      47.357   7.739  15.603  0.00  0.00    +0.000 HD
BRANCH   8  19
ATOM     12  C   UNL     1      48.911   4.733  18.892  0.00  0.00    +0.000 A 
ATOM     13  N   UNL     1      48.762   4.144  20.097  0.00  0.00    +0.000 NA
ATOM     14  C   UNL     1      48.446   4.917  21.139  0.00  0.00    +0.000 A 
ATOM     15  N   UNL     1      48.256   6.233  21.132  0.00  0.00    +0.000 NA
ATOM     16  C   UNL     1      48.418   6.780  19.917  0.00  0.00    +0.000 A 
ATOM     17  S   UNL     1      48.216   8.455  19.718  0.00  0.00    +0.000 S 
ATOM     18  C   UNL     1      48.560   8.349  18.057  0.00  0.00    +0.000 A 
ATOM     19  C   UNL     1      48.838   7.061  17.619  0.00  0.00    +0.000 A 
ATOM     20  C   UNL     1      48.753   6.121  18.737  0.00  0.00    +0.000 A 
BRANCH  12  22
ATOM     21  C   UNL     1      48.166   3.346  17.161  0.00  0.00    +0.000 C 
ATOM     22  O   UNL     1      49.277   3.943  17.826  0.00  0.00    +0.000 OA
ENDBRANCH  12  22
ENDBRANCH   8  19
ENDBRANCH   7  10
ENDBRANCH   1   7
BRANCH   4  23
ATOM     23  C   UNL     1      44.368   3.596  11.615  0.00  0.00    +0.000 C 
BRANCH  23  24
ATOM     24  N   UNL     1      44.945   2.654  10.657  0.00  0.00    +0.000 NA
ATOM     25  H   UNL     1      44.663   1.710  10.925  0.00  0.00    +0.000 HD
BRANCH  24  26
ATOM     26  C   UNL     1      44.514   2.879   9.268  0.00  0.00    +0.000 C 
ATOM     27  C   UNL     1      44.097   4.331   8.999  0.00  0.00    +0.000 C 
BRANCH  26  28
ATOM     28  C   UNL     1      45.639   2.493   8.313  0.00  0.00    +0.000 A 
ATOM     29  C   UNL     1      46.268   3.463   7.518  0.00  0.00    +0.000 A 
ATOM     30  C   UNL     1      47.317   3.112   6.664  0.00  0.00    +0.000 A 
ATOM     31  C   UNL     1      47.751   1.789   6.593  0.00  0.00    +0.000 A 
ATOM     32  C   UNL     1      47.133   0.814   7.373  0.00  0.00    +0.000 A 
ATOM     33  C   UNL     1      46.085   1.163   8.224  0.00  0.00    +0.000 A 
ENDBRANCH  26  28
ENDBRANCH  24  26
ENDBRANCH  23  24
ENDBRANCH   4  23
TORSDOF 8
ENDMDL
MODEL 4
REMARK VINA RESULT:    -7.718      1.764      2.757
REMARK INTER + INTRA:         -12.771
REMARK INTER:                 -11.579
REMARK INTRA:                  -1.192
REMARK UNBOUND:                -1.443
REMARK  Name = 
REMARK  10 active torsions:
REMARK  status: ('A' for Active; 'I' for Inactive)
REMARK    1  A    between atoms: C_1  and  O_2
REMARK    2  A    between atoms: O_2  and  C_3
REMARK    3  A    between atoms: C_10  and  C_11
REMARK    4  A    between atoms: N_13  and  C_14
REMARK    5  A    between atoms: C_14  and  C_15
REMARK    6  A    between atoms: C_18  and  C_19
REMARK    7  A    between atoms: C_19  and  N_20
REMARK    8  A    between atoms: N_20  and  C_21
REMARK    9  A    between atoms: C_21  and  C_22
REMARK   10  A    between atoms: C_21  and  C_23
REMARK                            x       y       z     vdW  Elec       q    Type
REMARK                         _______ _______ _______ _____ _____    ______ ____
ROOT
ATOM      1  C   UNL     1      46.775   6.395  12.810  0.00  0.00    +0.000 A 
ATOM      2  C   UNL     1      46.823   6.648  11.433  0.00  0.00    +0.000 A 
ATOM      3  C   UNL     1      45.821   6.167  10.585  0.00  0.00    +0.000 A 
ATOM      4  C   UNL     1      44.743   5.428  11.095  0.00  0.00    +0.000 A 
ATOM      5  C   UNL     1      44.682   5.199  12.476  0.00  0.00    +0.000 A 
ATOM      6  C   UNL     1      45.684   5.682  13.324  0.00  0.00    +0.000 A 
ENDROOT
BRANCH   1   7
ATOM      7  C   UNL     1      47.845   6.926  13.730  0.00  0.00    +0.000 C 
BRANCH   7  10
ATOM      8  C   UNL     1      48.957   6.159  15.786  0.00  0.00    +0.000 C 
ATOM      9  O   UNL     1      49.998   6.736  15.479  0.00  0.00    +0.000 OA
ATOM     10  N   UNL     1      47.857   6.201  14.976  0.00  0.00    +0.000 N 
ATOM     11  H   UNL     1      47.027   5.679  15.220  0.00  0.00    +0.000 HD
BRANCH   8  19
ATOM     12  C   UNL     1      49.288   6.994  19.112  0.00  0.00    +0.000 A 
ATOM     13  N   UNL     1      49.361   7.040  20.458  0.00  0.00    +0.000 NA
ATOM     14  C   UNL     1      49.161   5.907  21.136  0.00  0.00    +0.000 A 
ATOM     15  N   UNL     1      48.894   4.707  20.631  0.00  0.00    +0.000 NA
ATOM     16  C   UNL     1      48.826   4.705  19.291  0.00  0.00    +0.000 A 
ATOM     17  S   UNL     1      48.490   3.257  18.470  0.00  0.00    +0.000 S 
ATOM     18  C   UNL     1      48.572   4.034  16.962  0.00  0.00    +0.000 A 
ATOM     19  C   UNL     1      48.848   5.393  17.041  0.00  0.00    +0.000 A 
ATOM     20  C   UNL     1      48.998   5.793  18.440  0.00  0.00    +0.000 A 
BRANCH  12  22
ATOM     21  C   UNL     1      48.232   8.877  18.207  0.00  0.00    +0.000 C 
ATOM     22  O   UNL     1      49.452   8.169  18.413  0.00  0.00    +0.000 OA
ENDBRANCH  12  22
ENDBRANCH   8  19
ENDBRANCH   7  10
ENDBRANCH   1   7
BRANCH   4  23
ATOM     23  C   UNL     1      43.650   4.921  10.176  0.00  0.00    +0.000 C 
BRANCH  23  24
ATOM     24  N   UNL     1      44.207   4.261   8.997  0.00  0.00    +0.000 NA
ATOM     25  H   UNL     1      44.808   4.927   8.510  0.00  0.00    +0.000 HD
BRANCH  24  26
ATOM     26  C   UNL     1      45.010   3.067   9.307  0.00  0.00    +0.000 C 
ATOM     27  C   UNL     1      44.153   1.849   9.676  0.00  0.00    +0.000 C 
BRANCH  26  28
ATOM     28  C   UNL     1      45.895   2.719   8.115  0.00  0.00    +0.000 A 
ATOM     29  C   UNL     1      46.164   3.673   7.121  0.00  0.00    +0.000 A 
ATOM     30  C   UNL     1      46.998   3.361   6.043  0.00  0.00    +0.000 A 
ATOM     31  C   UNL     1      47.574   2.095   5.945  0.00  0.00    +0.000 A 
ATOM     32  C   UNL     1      47.312   1.137   6.921  0.00  0.00    +0.000 A 
ATOM     33  C   UNL     1      46.478   1.446   7.996  0.00  0.00    +0.000 A 
ENDBRANCH  26  28
ENDBRANCH  24  26
ENDBRANCH  23  24
ENDBRANCH   4  23
TORSDOF 8
ENDMDL
MODEL 5
REMARK VINA RESULT:    -7.451      2.155      2.972
REMARK INTER + INTRA:         -12.378
REMARK INTER:                 -11.114
REMARK INTRA:                  -1.265
REMARK UNBOUND:                -1.443
REMARK  Name = 
REMARK  10 active torsions:
REMARK  status: ('A' for Active; 'I' for Inactive)
REMARK    1  A    between atoms: C_1  and  O_2
REMARK    2  A    between atoms: O_2  and  C_3
REMARK    3  A    between atoms: C_10  and  C_11
REMARK    4  A    between atoms: N_13  and  C_14
REMARK    5  A    between atoms: C_14  and  C_15
REMARK    6  A    between atoms: C_18  and  C_19
REMARK    7  A    between atoms: C_19  and  N_20
REMARK    8  A    between atoms: N_20  and  C_21
REMARK    9  A    between atoms: C_21  and  C_22
REMARK   10  A    between atoms: C_21  and  C_23
REMARK                            x       y       z     vdW  Elec       q    Type
REMARK                         _______ _______ _______ _____ _____    ______ ____
ROOT
ATOM      1  C   UNL     1      47.792   6.703  13.363  0.00  0.00    +0.000 A 
ATOM      2  C   UNL     1      47.148   6.783  12.121  0.00  0.00    +0.000 A 
ATOM      3  C   UNL     1      46.197   5.826  11.749  0.00  0.00    +0.000 A 
ATOM      4  C   UNL     1      45.864   4.772  12.613  0.00  0.00    +0.000 A 
ATOM      5  C   UNL     1      46.489   4.710  13.865  0.00  0.00    +0.000 A 
ATOM      6  C   UNL     1      47.439   5.667  14.238  0.00  0.00    +0.000 A 
ENDROOT
BRANCH   1   7
ATOM      7  C   UNL     1      48.805   7.741  13.775  0.00  0.00    +0.000 C 
BRANCH   7  10
ATOM      8  C   UNL     1      50.276   7.442  15.724  0.00  0.00    +0.000 C 
ATOM      9  O   UNL     1      49.646   8.278  16.369  0.00  0.00    +0.000 OA
ATOM     10  N   UNL     1      49.927   7.128  14.441  0.00  0.00    +0.000 N 
ATOM     11  H   UNL     1      50.485   6.476  13.908  0.00  0.00    +0.000 HD
BRANCH   8  19
ATOM     12  C   UNL     1      50.666   4.415  17.321  0.00  0.00    +0.000 A 
ATOM     13  N   UNL     1      51.097   3.310  17.963  0.00  0.00    +0.000 NA
ATOM     14  C   UNL     1      52.393   3.230  18.274  0.00  0.00    +0.000 A 
ATOM     15  N   UNL     1      53.335   4.133  18.021  0.00  0.00    +0.000 NA
ATOM     16  C   UNL     1      52.866   5.214  17.379  0.00  0.00    +0.000 A 
ATOM     17  S   UNL     1      53.930   6.474  16.971  0.00  0.00    +0.000 S 
ATOM     18  C   UNL     1      52.675   7.369  16.255  0.00  0.00    +0.000 A 
ATOM     19  C   UNL     1      51.437   6.742  16.303  0.00  0.00    +0.000 A 
ATOM     20  C   UNL     1      51.554   5.449  16.976  0.00  0.00    +0.000 A 
BRANCH  12  22
ATOM     21  C   UNL     1      48.449   4.324  18.066  0.00  0.00    +0.000 C 
ATOM     22  O   UNL     1      49.338   4.480  16.963  0.00  0.00    +0.000 OA
ENDBRANCH  12  22
ENDBRANCH   8  19
ENDBRANCH   7  10
ENDBRANCH   1   7
BRANCH   4  23
ATOM     23  C   UNL     1      44.823   3.746  12.214  0.00  0.00    +0.000 C 
BRANCH  23  24
ATOM     24  N   UNL     1      45.325   2.853  11.171  0.00  0.00    +0.000 NA
ATOM     25  H   UNL     1      45.294   1.897  11.525  0.00  0.00    +0.000 HD
BRANCH  24  26
ATOM     26  C   UNL     1      44.548   2.901   9.922  0.00  0.00    +0.000 C 
ATOM     27  C   UNL     1      43.769   4.212   9.752  0.00  0.00    +0.000 C 
BRANCH  26  28
ATOM     28  C   UNL     1      45.480   2.709   8.730  0.00  0.00    +0.000 A 
ATOM     29  C   UNL     1      45.854   3.800   7.931  0.00  0.00    +0.000 A 
ATOM     30  C   UNL     1      46.730   3.626   6.856  0.00  0.00    +0.000 A 
ATOM     31  C   UNL     1      47.244   2.363   6.566  0.00  0.00    +0.000 A 
ATOM     32  C   UNL     1      46.878   1.270   7.347  0.00  0.00    +0.000 A 
ATOM     33  C   UNL     1      46.001   1.442   8.419  0.00  0.00    +0.000 A 
ENDBRANCH  26  28
ENDBRANCH  24  26
ENDBRANCH  23  24
ENDBRANCH   4  23
TORSDOF 8
ENDMDL
MODEL 6
REMARK VINA RESULT:    -6.966      3.263      7.918
REMARK INTER + INTRA:         -11.667
REMARK INTER:                  -9.772
REMARK INTRA:                  -1.895
REMARK UNBOUND:                -1.443
REMARK  Name = 
REMARK  10 active torsions:
REMARK  status: ('A' for Active; 'I' for Inactive)
REMARK    1  A    between atoms: C_1  and  O_2
REMARK    2  A    between atoms: O_2  and  C_3
REMARK    3  A    between atoms: C_10  and  C_11
REMARK    4  A    between atoms: N_13  and  C_14
REMARK    5  A    between atoms: C_14  and  C_15
REMARK    6  A    between atoms: C_18  and  C_19
REMARK    7  A    between atoms: C_19  and  N_20
REMARK    8  A    between atoms: N_20  and  C_21
REMARK    9  A    between atoms: C_21  and  C_22
REMARK   10  A    between atoms: C_21  and  C_23
REMARK                            x       y       z     vdW  Elec       q    Type
REMARK                         _______ _______ _______ _____ _____    ______ ____
ROOT
ATOM      1  C   UNL     1      48.541   7.973  13.302  0.00  0.00    +0.000 A 
ATOM      2  C   UNL     1      47.982   9.015  14.055  0.00  0.00    +0.000 A 
ATOM      3  C   UNL     1      48.051   8.998  15.452  0.00  0.00    +0.000 A 
ATOM      4  C   UNL     1      48.686   7.945  16.127  0.00  0.00    +0.000 A 
ATOM      5  C   UNL     1      49.268   6.920  15.372  0.00  0.00    +0.000 A 
ATOM      6  C   UNL     1      49.200   6.936  13.974  0.00  0.00    +0.000 A 
ENDROOT
BRANCH   1   7
ATOM      7  C   UNL     1      48.483   7.994  11.795  0.00  0.00    +0.000 C 
BRANCH   7  10
ATOM      8  C   UNL     1      46.348   6.903  11.242  0.00  0.00    +0.000 C 
ATOM      9  O   UNL     1      45.710   7.878  11.633  0.00  0.00    +0.000 OA
ATOM     10  N   UNL     1      47.714   6.882  11.295  0.00  0.00    +0.000 N 
ATOM     11  H   UNL     1      48.220   6.053  11.018  0.00  0.00    +0.000 HD
BRANCH   8  19
ATOM     12  C   UNL     1      44.540   4.348  12.680  0.00  0.00    +0.000 A 
ATOM     13  N   UNL     1      43.811   3.251  12.970  0.00  0.00    +0.000 NA
ATOM     14  C   UNL     1      43.461   2.445  11.963  0.00  0.00    +0.000 A 
ATOM     15  N   UNL     1      43.753   2.599  10.676  0.00  0.00    +0.000 NA
ATOM     16  C   UNL     1      44.474   3.703  10.429  0.00  0.00    +0.000 A 
ATOM     17  S   UNL     1      44.939   4.063   8.836  0.00  0.00    +0.000 S 
ATOM     18  C   UNL     1      45.738   5.476   9.334  0.00  0.00    +0.000 A 
ATOM     19  C   UNL     1      45.672   5.710  10.702  0.00  0.00    +0.000 A 
ATOM     20  C   UNL     1      44.911   4.645  11.356  0.00  0.00    +0.000 A 
BRANCH  12  22
ATOM     21  C   UNL     1      46.167   4.968  14.243  0.00  0.00    +0.000 C 
ATOM     22  O   UNL     1      44.866   5.201  13.711  0.00  0.00    +0.000 OA
ENDBRANCH  12  22
ENDBRANCH   8  19
ENDBRANCH   7  10
ENDBRANCH   1   7
BRANCH   4  23
ATOM     23  C   UNL     1      48.773   7.939  17.641  0.00  0.00    +0.000 C 
BRANCH  23  24
ATOM     24  N   UNL     1      47.923   6.901  18.220  0.00  0.00    +0.000 NA
ATOM     25  H   UNL     1      47.451   6.410  17.459  0.00  0.00    +0.000 HD
BRANCH  24  26
ATOM     26  C   UNL     1      48.658   5.904  19.015  0.00  0.00    +0.000 C 
ATOM     27  C   UNL     1      47.964   5.567  20.342  0.00  0.00    +0.000 C 
BRANCH  26  28
ATOM     28  C   UNL     1      48.836   4.627  18.201  0.00  0.00    +0.000 A 
ATOM     29  C   UNL     1      50.075   3.968  18.165  0.00  0.00    +0.000 A 
ATOM     30  C   UNL     1      50.229   2.783  17.441  0.00  0.00    +0.000 A 
ATOM     31  C   UNL     1      49.150   2.241  16.744  0.00  0.00    +0.000 A 
ATOM     32  C   UNL     1      47.916   2.886  16.766  0.00  0.00    +0.000 A 
ATOM     33  C   UNL     1      47.762   4.071  17.486  0.00  0.00    +0.000 A 
ENDBRANCH  26  28
ENDBRANCH  24  26
ENDBRANCH  23  24
ENDBRANCH   4  23
TORSDOF 8
ENDMDL
MODEL 7
REMARK VINA RESULT:    -6.877      4.556      9.414
REMARK INTER + INTRA:         -11.536
REMARK INTER:                 -10.393
REMARK INTRA:                  -1.143
REMARK UNBOUND:                -1.443
REMARK  Name = 
REMARK  10 active torsions:
REMARK  status: ('A' for Active; 'I' for Inactive)
REMARK    1  A    between atoms: C_1  and  O_2
REMARK    2  A    between atoms: O_2  and  C_3
REMARK    3  A    between atoms: C_10  and  C_11
REMARK    4  A    between atoms: N_13  and  C_14
REMARK    5  A    between atoms: C_14  and  C_15
REMARK    6  A    between atoms: C_18  and  C_19
REMARK    7  A    between atoms: C_19  and  N_20
REMARK    8  A    between atoms: N_20  and  C_21
REMARK    9  A    between atoms: C_21  and  C_22
REMARK   10  A    between atoms: C_21  and  C_23
REMARK                            x       y       z     vdW  Elec       q    Type
REMARK                         _______ _______ _______ _____ _____    ______ ____
ROOT
ATOM      1  C   UNL     1      48.620   3.420  17.187  0.00  0.00    +0.000 A 
ATOM      2  C   UNL     1      49.449   2.305  17.004  0.00  0.00    +0.000 A 
ATOM      3  C   UNL     1      50.802   2.360  17.352  0.00  0.00    +0.000 A 
ATOM      4  C   UNL     1      51.356   3.528  17.897  0.00  0.00    +0.000 A 
ATOM      5  C   UNL     1      50.520   4.632  18.105  0.00  0.00    +0.000 A 
ATOM      6  C   UNL     1      49.166   4.577  17.757  0.00  0.00    +0.000 A 
ENDROOT
BRANCH   1   7
ATOM      7  C   UNL     1      47.157   3.361  16.828  0.00  0.00    +0.000 C 
BRANCH   7  10
ATOM      8  C   UNL     1      46.917   4.259  14.550  0.00  0.00    +0.000 C 
ATOM      9  O   UNL     1      47.327   3.210  14.058  0.00  0.00    +0.000 OA
ATOM     10  N   UNL     1      46.811   4.412  15.904  0.00  0.00    +0.000 N 
ATOM     11  H   UNL     1      46.521   5.298  16.294  0.00  0.00    +0.000 HD
BRANCH   8  19
ATOM     12  C   UNL     1      44.119   4.968  12.671  0.00  0.00    +0.000 A 
ATOM     13  N   UNL     1      43.166   5.490  11.871  0.00  0.00    +0.000 NA
ATOM     14  C   UNL     1      43.399   6.680  11.312  0.00  0.00    +0.000 A 
ATOM     15  N   UNL     1      44.486   7.432  11.451  0.00  0.00    +0.000 NA
ATOM     16  C   UNL     1      45.407   6.880  12.256  0.00  0.00    +0.000 A 
ATOM     17  S   UNL     1      46.864   7.701  12.552  0.00  0.00    +0.000 S 
ATOM     18  C   UNL     1      47.419   6.455  13.565  0.00  0.00    +0.000 A 
ATOM     19  C   UNL     1      46.525   5.401  13.705  0.00  0.00    +0.000 A 
ATOM     20  C   UNL     1      45.318   5.659  12.920  0.00  0.00    +0.000 A 
BRANCH  12  22
ATOM     21  C   UNL     1      43.581   2.712  12.357  0.00  0.00    +0.000 C 
ATOM     22  O   UNL     1      43.863   3.761  13.281  0.00  0.00    +0.000 OA
ENDBRANCH  12  22
ENDBRANCH   8  19
ENDBRANCH   7  10
ENDBRANCH   1   7
BRANCH   4  23
ATOM     23  C   UNL     1      52.820   3.579  18.288  0.00  0.00    +0.000 C 
BRANCH  23  24
ATOM     24  N   UNL     1      53.193   2.430  19.112  0.00  0.00    +0.000 NA
ATOM     25  H   UNL     1      52.671   1.617  18.783  0.00  0.00    +0.000 HD
BRANCH  24  26
ATOM     26  C   UNL     1      54.627   2.102  19.060  0.00  0.00    +0.000 C 
ATOM     27  C   UNL     1      55.192   1.678  20.422  0.00  0.00    +0.000 C 
BRANCH  26  28
ATOM     28  C   UNL     1      54.862   0.987  18.046  0.00  0.00    +0.000 A 
ATOM     29  C   UNL     1      54.575  -0.348  18.372  0.00  0.00    +0.000 A 
ATOM     30  C   UNL     1      54.765  -1.366  17.432  0.00  0.00    +0.000 A 
ATOM     31  C   UNL     1      55.241  -1.063  16.157  0.00  0.00    +0.000 A 
ATOM     32  C   UNL     1      55.535   0.256  15.821  0.00  0.00    +0.000 A 
ATOM     33  C   UNL     1      55.348   1.272  16.759  0.00  0.00    +0.000 A 
ENDBRANCH  26  28
ENDBRANCH  24  26
ENDBRANCH  23  24
ENDBRANCH   4  23
TORSDOF 8
ENDMDL
MODEL 8
REMARK VINA RESULT:    -6.812      3.547      5.141
REMARK INTER + INTRA:         -11.440
REMARK INTER:                 -10.196
REMARK INTRA:                  -1.245
REMARK UNBOUND:                -1.443
REMARK  Name = 
REMARK  10 active torsions:
REMARK  status: ('A' for Active; 'I' for Inactive)
REMARK    1  A    between atoms: C_1  and  O_2
REMARK    2  A    between atoms: O_2  and  C_3
REMARK    3  A    between atoms: C_10  and  C_11
REMARK    4  A    between atoms: N_13  and  C_14
REMARK    5  A    between atoms: C_14  and  C_15
REMARK    6  A    between atoms: C_18  and  C_19
REMARK    7  A    between atoms: C_19  and  N_20
REMARK    8  A    between atoms: N_20  and  C_21
REMARK    9  A    between atoms: C_21  and  C_22
REMARK   10  A    between atoms: C_21  and  C_23
REMARK                            x       y       z     vdW  Elec       q    Type
REMARK                         _______ _______ _______ _____ _____    ______ ____
ROOT
ATOM      1  C   UNL     1      46.963   6.093  12.965  0.00  0.00    +0.000 A 
ATOM      2  C   UNL     1      46.832   6.607  11.667  0.00  0.00    +0.000 A 
ATOM      3  C   UNL     1      45.784   6.191  10.839  0.00  0.00    +0.000 A 
ATOM      4  C   UNL     1      44.838   5.259  11.292  0.00  0.00    +0.000 A 
ATOM      5  C   UNL     1      44.955   4.768  12.598  0.00  0.00    +0.000 A 
ATOM      6  C   UNL     1      46.003   5.184  13.427  0.00  0.00    +0.000 A 
ENDROOT
BRANCH   1   7
ATOM      7  C   UNL     1      48.082   6.550  13.866  0.00  0.00    +0.000 C 
BRANCH   7  10
ATOM      8  C   UNL     1      50.002   8.007  13.374  0.00  0.00    +0.000 C 
ATOM      9  O   UNL     1      49.704   8.766  14.293  0.00  0.00    +0.000 OA
ATOM     10  N   UNL     1      49.250   6.900  13.097  0.00  0.00    +0.000 N 
ATOM     11  H   UNL     1      49.480   6.315  12.306  0.00  0.00    +0.000 HD
BRANCH   8  19
ATOM     12  C   UNL     1      53.322   8.629  14.048  0.00  0.00    +0.000 A 
ATOM     13  N   UNL     1      54.645   8.887  14.024  0.00  0.00    +0.000 NA
ATOM     14  C   UNL     1      55.232   9.047  12.835  0.00  0.00    +0.000 A 
ATOM     15  N   UNL     1      54.652   8.983  11.641  0.00  0.00    +0.000 NA
ATOM     16  C   UNL     1      53.338   8.721  11.708  0.00  0.00    +0.000 A 
ATOM     17  S   UNL     1      52.432   8.599  10.277  0.00  0.00    +0.000 S 
ATOM     18  C   UNL     1      51.007   8.283  11.147  0.00  0.00    +0.000 A 
ATOM     19  C   UNL     1      51.180   8.258  12.525  0.00  0.00    +0.000 A 
ATOM     20  C   UNL     1      52.580   8.519  12.859  0.00  0.00    +0.000 A 
BRANCH  12  22
ATOM     21  C   UNL     1      52.857   7.084  15.744  0.00  0.00    +0.000 C 
ATOM     22  O   UNL     1      52.724   8.422  15.272  0.00  0.00    +0.000 OA
ENDBRANCH  12  22
ENDBRANCH   8  19
ENDBRANCH   7  10
ENDBRANCH   1   7
BRANCH   4  23
ATOM     23  C   UNL     1      43.695   4.823  10.398  0.00  0.00    +0.000 C 
BRANCH  23  24
ATOM     24  N   UNL     1      44.184   4.186   9.177  0.00  0.00    +0.000 NA
ATOM     25  H   UNL     1      44.783   4.851   8.686  0.00  0.00    +0.000 HD
BRANCH  24  26
ATOM     26  C   UNL     1      44.966   2.962   9.417  0.00  0.00    +0.000 C 
ATOM     27  C   UNL     1      44.090   1.753   9.770  0.00  0.00    +0.000 C 
BRANCH  26  28
ATOM     28  C   UNL     1      45.801   2.637   8.182  0.00  0.00    +0.000 A 
ATOM     29  C   UNL     1      45.987   3.592   7.172  0.00  0.00    +0.000 A 
ATOM     30  C   UNL     1      46.776   3.302   6.055  0.00  0.00    +0.000 A 
ATOM     31  C   UNL     1      47.388   2.055   5.934  0.00  0.00    +0.000 A 
ATOM     32  C   UNL     1      47.209   1.095   6.926  0.00  0.00    +0.000 A 
ATOM     33  C   UNL     1      46.420   1.383   8.040  0.00  0.00    +0.000 A 
ENDBRANCH  26  28
ENDBRANCH  24  26
ENDBRANCH  23  24
ENDBRANCH   4  23
TORSDOF 8
ENDMDL
MODEL 9
REMARK VINA RESULT:    -6.686      1.451      2.002
REMARK INTER + INTRA:         -11.256
REMARK INTER:                  -9.813
REMARK INTRA:                  -1.443
REMARK UNBOUND:                -1.443
REMARK  Name = 
REMARK  10 active torsions:
REMARK  status: ('A' for Active; 'I' for Inactive)
REMARK    1  A    between atoms: C_1  and  O_2
REMARK    2  A    between atoms: O_2  and  C_3
REMARK    3  A    between atoms: C_10  and  C_11
REMARK    4  A    between atoms: N_13  and  C_14
REMARK    5  A    between atoms: C_14  and  C_15
REMARK    6  A    between atoms: C_18  and  C_19
REMARK    7  A    between atoms: C_19  and  N_20
REMARK    8  A    between atoms: N_20  and  C_21
REMARK    9  A    between atoms: C_21  and  C_22
REMARK   10  A    between atoms: C_21  and  C_23
REMARK                            x       y       z     vdW  Elec       q    Type
REMARK                         _______ _______ _______ _____ _____    ______ ____
ROOT
ATOM      1  C   UNL     1      48.199   7.574  12.611  0.00  0.00    +0.000 A 
ATOM      2  C   UNL     1      47.122   7.771  13.486  0.00  0.00    +0.000 A 
ATOM      3  C   UNL     1      45.822   7.425  13.105  0.00  0.00    +0.000 A 
ATOM      4  C   UNL     1      45.569   6.866  11.843  0.00  0.00    +0.000 A 
ATOM      5  C   UNL     1      46.650   6.644  10.980  0.00  0.00    +0.000 A 
ATOM      6  C   UNL     1      47.951   6.990  11.362  0.00  0.00    +0.000 A 
ENDROOT
BRANCH   1   7
ATOM      7  C   UNL     1      49.604   7.931  13.023  0.00  0.00    +0.000 C 
BRANCH   7  10
ATOM      8  C   UNL     1      50.081   8.069  15.433  0.00  0.00    +0.000 C 
ATOM      9  O   UNL     1      49.943   9.290  15.424  0.00  0.00    +0.000 OA
ATOM     10  N   UNL     1      49.936   7.331  14.291  0.00  0.00    +0.000 N 
ATOM     11  H   UNL     1      50.102   6.334  14.306  0.00  0.00    +0.000 HD
BRANCH   8  19
ATOM     12  C   UNL     1      48.946   5.136  16.839  0.00  0.00    +0.000 A 
ATOM     13  N   UNL     1      48.690   4.053  17.600  0.00  0.00    +0.000 NA
ATOM     14  C   UNL     1      49.359   3.919  18.748  0.00  0.00    +0.000 A 
ATOM     15  N   UNL     1      50.272   4.748  19.244  0.00  0.00    +0.000 NA
ATOM     16  C   UNL     1      50.501   5.810  18.455  0.00  0.00    +0.000 A 
ATOM     17  S   UNL     1      51.640   6.977  18.929  0.00  0.00    +0.000 S 
ATOM     18  C   UNL     1      51.360   7.893  17.526  0.00  0.00    +0.000 A 
ATOM     19  C   UNL     1      50.411   7.343  16.673  0.00  0.00    +0.000 A 
ATOM     20  C   UNL     1      49.899   6.092  17.232  0.00  0.00    +0.000 A 
BRANCH  12  22
ATOM     21  C   UNL     1      47.186   4.356  15.507  0.00  0.00    +0.000 C 
ATOM     22  O   UNL     1      48.286   5.253  15.636  0.00  0.00    +0.000 OA
ENDBRANCH  12  22
ENDBRANCH   8  19
ENDBRANCH   7  10
ENDBRANCH   1   7
BRANCH   4  23
ATOM     23  C   UNL     1      44.161   6.477  11.439  0.00  0.00    +0.000 C 
BRANCH  23  24
ATOM     24  N   UNL     1      44.166   5.556  10.304  0.00  0.00    +0.000 NA
ATOM     25  H   UNL     1      44.808   5.919   9.598  0.00  0.00    +0.000 HD
BRANCH  24  26
ATOM     26  C   UNL     1      44.595   4.191  10.649  0.00  0.00    +0.000 C 
ATOM     27  C   UNL     1      43.436   3.299  11.112  0.00  0.00    +0.000 C 
BRANCH  26  28
ATOM     28  C   UNL     1      45.277   3.548   9.445  0.00  0.00    +0.000 A 
ATOM     29  C   UNL     1      45.408   2.153   9.357  0.00  0.00    +0.000 A 
ATOM     30  C   UNL     1      46.007   1.565   8.240  0.00  0.00    +0.000 A 
ATOM     31  C   UNL     1      46.483   2.360   7.198  0.00  0.00    +0.000 A 
ATOM     32  C   UNL     1      46.365   3.745   7.273  0.00  0.00    +0.000 A 
ATOM     33  C   UNL     1      45.769   4.334   8.389  0.00  0.00    +0.000 A 
ENDBRANCH  26  28
ENDBRANCH  24  26
ENDBRANCH  23  24
ENDBRANCH   4  23
TORSDOF 8
ENDMDL
