MODEL 1
REMARK VINA RESULT:    -8.536      0.000      0.000
REMARK INTER + INTRA:         -12.922
REMARK INTER:                 -12.029
REMARK INTRA:                  -0.893
REMARK UNBOUND:                -0.893
REMARK  Name = 
REMARK  8 active torsions:
REMARK  status: ('A' for Active; 'I' for Inactive)
REMARK    1  A    between atoms: C_1  and  C_2
REMARK    2  A    between atoms: C_2  and  N_3
REMARK    3  A    between atoms: C_2  and  C_25
REMARK    4  A    between atoms: N_3  and  C_4
REMARK    5  A    between atoms: C_4  and  C_5
REMARK    6  A    between atoms: C_8  and  C_9
REMARK    7  A    between atoms: C_9  and  N_10
REMARK    8  A    between atoms: C_11  and  C_13
REMARK                            x       y       z     vdW  Elec       q    Type
REMARK                         _______ _______ _______ _____ _____    ______ ____
ROOT
ATOM      1  C   UNL     1      45.271   4.346  12.225  0.00  0.00    +0.000 A 
ATOM      2  C   UNL     1      45.525   5.650  11.805  0.00  0.00    +0.000 A 
ATOM      3  C   UNL     1      46.514   6.392  12.454  0.00  0.00    +0.000 A 
ATOM      4  C   UNL     1      47.231   5.820  13.507  0.00  0.00    +0.000 A 
ATOM      5  C   UNL     1      46.904   4.519  13.862  0.00  0.00    +0.000 A 
ATOM      6  N   UNL     1      45.958   3.775  13.248  0.00  0.00    +0.000 NA
ENDROOT
BRANCH   1   7
ATOM      7  C   UNL     1      44.290   3.469  11.464  0.00  0.00    +0.000 C 
BRANCH   7   8
ATOM      8  N   UNL     1      44.930   2.509  10.553  0.00  0.00    +0.000 NA
ATOM      9  H   UNL     1      44.612   1.572  10.797  0.00  0.00    +0.000 HD
BRANCH   8  11
ATOM     10  C   UNL     1      44.272   4.237   8.878  0.00  0.00    +0.000 C 
ATOM     11  C   UNL     1      44.635   2.769   9.133  0.00  0.00    +0.000 C 
BRANCH  11  12
ATOM     12  C   UNL     1      45.788   2.347   8.226  0.00  0.00    +0.000 A 
ATOM     13  C   UNL     1      46.131   0.990   8.120  0.00  0.00    +0.000 A 
ATOM     14  C   UNL     1      47.226   0.625   7.345  0.00  0.00    +0.000 A 
ATOM     15  N   UNL     1      47.996   1.504   6.673  0.00  0.00    +0.000 NA
ATOM     16  C   UNL     1      47.628   2.801   6.747  0.00  0.00    +0.000 A 
ATOM     17  C   UNL     1      46.539   3.261   7.477  0.00  0.00    +0.000 A 
ENDBRANCH  11  12
ENDBRANCH   8  11
ENDBRANCH   7   8
ENDBRANCH   1   7
BRANCH   4  18
ATOM     18  C   UNL     1      48.297   6.565  14.250  0.00  0.00    +0.000 C 
BRANCH  18  19
ATOM     19  N   UNL     1      48.146   6.439  15.679  0.00  0.00    +0.000 N 
ATOM     20  C   UNL     1      48.930   7.179  16.527  0.00  0.00    +0.000 C 
ATOM     21  O   UNL     1      49.773   7.968  16.102  0.00  0.00    +0.000 OA
ATOM     22  H   UNL     1      47.631   5.640  16.042  0.00  0.00    +0.000 HD
BRANCH  20  23
ATOM     23  C   UNL     1      48.677   7.041  17.965  0.00  0.00    +0.000 A 
ATOM     24  C   UNL     1      48.520   8.179  18.744  0.00  0.00    +0.000 A 
ATOM     25  S   UNL     1      48.224   7.845  20.392  0.00  0.00    +0.000 S 
ATOM     26  C   UNL     1      48.340   6.170  20.121  0.00  0.00    +0.000 A 
ATOM     27  N   UNL     1      48.232   5.275  21.139  0.00  0.00    +0.000 NA
ATOM     28  N   UNL     1      48.359   4.051  20.891  0.00  0.00    +0.000 NA
ATOM     29  N   UNL     1      48.574   3.645  19.603  0.00  0.00    +0.000 N 
ATOM     30  C   UNL     1      48.661   4.465  18.501  0.00  0.00    +0.000 A 
ATOM     31  O   UNL     1      48.804   4.025  17.363  0.00  0.00    +0.000 OA
ATOM     32  C   UNL     1      48.559   5.871  18.799  0.00  0.00    +0.000 A 
ATOM     33  H   UNL     1      48.651   2.647  19.463  0.00  0.00    +0.000 HD
ENDBRANCH  20  23
ENDBRANCH  18  19
ENDBRANCH   4  18
TORSDOF 7
ENDMDL
MODEL 2
REMARK VINA RESULT:    -8.367      1.424      2.098
REMARK INTER + INTRA:         -12.684
REMARK INTER:                 -11.852
REMARK INTRA:                  -0.831
REMARK UNBOUND:                -0.893
REMARK  Name = 
REMARK  8 active torsions:
REMARK  status: ('A' for Active; 'I' for Inactive)
REMARK    1  A    between atoms: C_1  and  C_2
REMARK    2  A    between atoms: C_2  and  N_3
REMARK    3  A    between atoms: C_2  and  C_25
REMARK    4  A    between atoms: N_3  and  C_4
REMARK    5  A    between atoms: C_4  and  C_5
REMARK    6  A    between atoms: C_8  and  C_9
REMARK    7  A    between atoms: C_9  and  N_10
REMARK    8  A    between atoms: C_11  and  C_13
REMARK                            x       y       z     vdW  Elec       q    Type
REMARK                         _______ _______ _______ _____ _____    ______ ____
ROOT
ATOM      1  C   UNL     1      45.263   4.421  12.116  0.00  0.00    +0.000 A 
ATOM      2  C   UNL     1      45.730   5.616  11.573  0.00  0.00    +0.000 A 
ATOM      3  C   UNL     1      46.713   6.334  12.256  0.00  0.00    +0.000 A 
ATOM      4  C   UNL     1      47.213   5.846  13.466  0.00  0.00    +0.000 A 
ATOM      5  C   UNL     1      46.682   4.653  13.935  0.00  0.00    +0.000 A 
ATOM      6  N   UNL     1      45.737   3.934  13.292  0.00  0.00    +0.000 NA
ENDROOT
BRANCH   1   7
ATOM      7  C   UNL     1      44.284   3.553  11.341  0.00  0.00    +0.000 C 
BRANCH   7   8
ATOM      8  N   UNL     1      44.928   2.585  10.441  0.00  0.00    +0.000 NA
ATOM      9  H   UNL     1      44.586   1.653  10.673  0.00  0.00    +0.000 HD
BRANCH   8  11
ATOM     10  C   UNL     1      44.395   4.342   8.753  0.00  0.00    +0.000 C 
ATOM     11  C   UNL     1      44.673   2.858   9.016  0.00  0.00    +0.000 C 
BRANCH  11  12
ATOM     12  C   UNL     1      45.818   2.371   8.130  0.00  0.00    +0.000 A 
ATOM     13  C   UNL     1      46.155   1.009   8.111  0.00  0.00    +0.000 A 
ATOM     14  C   UNL     1      47.243   0.589   7.354  0.00  0.00    +0.000 A 
ATOM     15  N   UNL     1      48.011   1.419   6.621  0.00  0.00    +0.000 NA
ATOM     16  C   UNL     1      47.649   2.720   6.612  0.00  0.00    +0.000 A 
ATOM     17  C   UNL     1      46.567   3.231   7.318  0.00  0.00    +0.000 A 
ENDBRANCH  11  12
ENDBRANCH   8  11
ENDBRANCH   7   8
ENDBRANCH   1   7
BRANCH   4  18
ATOM     18  C   UNL     1      48.260   6.573  14.252  0.00  0.00    +0.000 C 
BRANCH  18  19
ATOM     19  N   UNL     1      48.023   6.489  15.672  0.00  0.00    +0.000 N 
ATOM     20  C   UNL     1      49.062   6.249  16.535  0.00  0.00    +0.000 C 
ATOM     21  O   UNL     1      50.215   6.104  16.132  0.00  0.00    +0.000 OA
ATOM     22  H   UNL     1      47.065   6.374  15.996  0.00  0.00    +0.000 HD
BRANCH  20  23
ATOM     23  C   UNL     1      48.753   6.236  17.969  0.00  0.00    +0.000 A 
ATOM     24  C   UNL     1      49.008   5.092  18.713  0.00  0.00    +0.000 A 
ATOM     25  S   UNL     1      48.600   5.244  20.364  0.00  0.00    +0.000 S 
ATOM     26  C   UNL     1      48.030   6.828  20.125  0.00  0.00    +0.000 A 
ATOM     27  N   UNL     1      47.482   7.549  21.139  0.00  0.00    +0.000 NA
ATOM     28  N   UNL     1      47.045   8.702  20.902  0.00  0.00    +0.000 NA
ATOM     29  N   UNL     1      47.156   9.216  19.640  0.00  0.00    +0.000 N 
ATOM     30  C   UNL     1      47.725   8.585  18.558  0.00  0.00    +0.000 A 
ATOM     31  O   UNL     1      47.838   9.131  17.462  0.00  0.00    +0.000 OA
ATOM     32  C   UNL     1      48.184   7.246  18.826  0.00  0.00    +0.000 A 
ATOM     33  H   UNL     1      46.802  10.155  19.515  0.00  0.00    +0.000 HD
ENDBRANCH  20  23
ENDBRANCH  18  19
ENDBRANCH   4  18
TORSDOF 7
ENDMDL
MODEL 3
REMARK VINA RESULT:    -8.111      2.249      2.464
REMARK INTER + INTRA:         -12.322
REMARK INTER:                 -11.483
REMARK INTRA:                  -0.840
REMARK UNBOUND:                -0.893
REMARK  Name = 
REMARK  8 active torsions:
REMARK  status: ('A' for Active; 'I' for Inactive)
REMARK    1  A    between atoms: C_1  and  C_2
REMARK    2  A    between atoms: C_2  and  N_3
REMARK    3  A    between atoms: C_2  and  C_25
REMARK    4  A    between atoms: N_3  and  C_4
REMARK    5  A    between atoms: C_4  and  C_5
REMARK    6  A    between atoms: C_8  and  C_9
REMARK    7  A    between atoms: C_9  and  N_10
REMARK    8  A    between atoms: C_11  and  C_13
REMARK                            x       y       z     vdW  Elec       q    Type
REMARK                         _______ _______ _______ _____ _____    ______ ____
ROOT
ATOM      1  C   UNL     1      45.185   4.409  12.438  0.00  0.00    +0.000 A 
ATOM      2  C   UNL     1      45.361   5.740  12.066  0.00  0.00    +0.000 A 
ATOM      3  C   UNL     1      46.232   6.543  12.805  0.00  0.00    +0.000 A 
ATOM      4  C   UNL     1      46.911   6.002  13.900  0.00  0.00    +0.000 A 
ATOM      5  C   UNL     1      46.667   4.671  14.202  0.00  0.00    +0.000 A 
ATOM      6  N   UNL     1      45.837   3.869  13.500  0.00  0.00    +0.000 NA
ENDROOT
BRANCH   1   7
ATOM      7  C   UNL     1      44.342   3.476  11.584  0.00  0.00    +0.000 C 
BRANCH   7   8
ATOM      8  N   UNL     1      45.121   2.665  10.637  0.00  0.00    +0.000 NA
ATOM      9  H   UNL     1      45.003   1.683  10.880  0.00  0.00    +0.000 HD
BRANCH   8  11
ATOM     10  C   UNL     1      44.367   4.333   8.943  0.00  0.00    +0.000 C 
ATOM     11  C   UNL     1      44.726   2.871   9.233  0.00  0.00    +0.000 C 
BRANCH  11  12
ATOM     12  C   UNL     1      45.803   2.392   8.262  0.00  0.00    +0.000 A 
ATOM     13  C   UNL     1      46.121   1.027   8.192  0.00  0.00    +0.000 A 
ATOM     14  C   UNL     1      47.150   0.610   7.355  0.00  0.00    +0.000 A 
ATOM     15  N   UNL     1      47.877   1.447   6.588  0.00  0.00    +0.000 NA
ATOM     16  C   UNL     1      47.531   2.752   6.631  0.00  0.00    +0.000 A 
ATOM     17  C   UNL     1      46.506   3.260   7.419  0.00  0.00    +0.000 A 
ENDBRANCH  11  12
ENDBRANCH   8  11
ENDBRANCH   7   8
ENDBRANCH   1   7
BRANCH   4  18
ATOM     18  C   UNL     1      47.851   6.813  14.740  0.00  0.00    +0.000 C 
BRANCH  18  19
ATOM     19  N   UNL     1      48.888   5.999  15.324  0.00  0.00    +0.000 N 
ATOM     20  C   UNL     1      49.185   6.109  16.659  0.00  0.00    +0.000 C 
ATOM     21  O   UNL     1      48.582   6.891  17.392  0.00  0.00    +0.000 OA
ATOM     22  H   UNL     1      49.541   5.528  14.702  0.00  0.00    +0.000 HD
BRANCH  20  23
ATOM     23  C   UNL     1      50.211   5.207  17.193  0.00  0.00    +0.000 A 
ATOM     24  C   UNL     1      51.327   5.738  17.825  0.00  0.00    +0.000 A 
ATOM     25  S   UNL     1      52.419   4.556  18.395  0.00  0.00    +0.000 S 
ATOM     26  C   UNL     1      51.453   3.299  17.777  0.00  0.00    +0.000 A 
ATOM     27  N   UNL     1      51.830   1.997  17.876  0.00  0.00    +0.000 NA
ATOM     28  N   UNL     1      51.098   1.110  17.372  0.00  0.00    +0.000 NA
ATOM     29  N   UNL     1      49.927   1.471  16.765  0.00  0.00    +0.000 N 
ATOM     30  C   UNL     1      49.440   2.752  16.645  0.00  0.00    +0.000 A 
ATOM     31  O   UNL     1      48.351   2.996  16.130  0.00  0.00    +0.000 OA
ATOM     32  C   UNL     1      50.306   3.769  17.186  0.00  0.00    +0.000 A 
ATOM     33  H   UNL     1      49.372   0.711  16.393  0.00  0.00    +0.000 HD
ENDBRANCH  20  23
ENDBRANCH  18  19
ENDBRANCH   4  18
TORSDOF 7
ENDMDL
MODEL 4
REMARK VINA RESULT:    -7.914      3.172      4.015
REMARK INTER + INTRA:         -12.045
REMARK INTER:                 -10.979
REMARK INTRA:                  -1.066
REMARK UNBOUND:                -0.893
REMARK  Name = 
REMARK  8 active torsions:
REMARK  status: ('A' for Active; 'I' for Inactive)
REMARK    1  A    between atoms: C_1  and  C_2
REMARK    2  A    between atoms: C_2  and  N_3
REMARK    3  A    between atoms: C_2  and  C_25
REMARK    4  A    between atoms: N_3  and  C_4
REMARK    5  A    between atoms: C_4  and  C_5
REMARK    6  A    between atoms: C_8  and  C_9
REMARK    7  A    between atoms: C_9  and  N_10
REMARK    8  A    between atoms: C_11  and  C_13
REMARK                            x       y       z     vdW  Elec       q    Type
REMARK                         _______ _______ _______ _____ _____    ______ ____
ROOT
ATOM      1  C   UNL     1      46.725   4.583  14.003  0.00  0.00    +0.000 A 
ATOM      2  C   UNL     1      47.432   5.754  13.736  0.00  0.00    +0.000 A 
ATOM      3  C   UNL     1      48.228   6.310  14.740  0.00  0.00    +0.000 A 
ATOM      4  C   UNL     1      48.303   5.687  15.988  0.00  0.00    +0.000 A 
ATOM      5  C   UNL     1      47.558   4.531  16.166  0.00  0.00    +0.000 A 
ATOM      6  N   UNL     1      46.786   3.967  15.211  0.00  0.00    +0.000 NA
ENDROOT
BRANCH   1   7
ATOM      7  C   UNL     1      45.948   3.885  12.898  0.00  0.00    +0.000 C 
BRANCH   7   8
ATOM      8  N   UNL     1      44.498   4.121  12.946  0.00  0.00    +0.000 NA
ATOM      9  H   UNL     1      44.291   4.689  13.766  0.00  0.00    +0.000 HD
BRANCH   8  11
ATOM     10  C   UNL     1      44.336   6.284  11.714  0.00  0.00    +0.000 C 
ATOM     11  C   UNL     1      43.978   4.793  11.743  0.00  0.00    +0.000 C 
BRANCH  11  12
ATOM     12  C   UNL     1      44.455   4.114  10.461  0.00  0.00    +0.000 A 
ATOM     13  C   UNL     1      44.171   2.757  10.244  0.00  0.00    +0.000 A 
ATOM     14  C   UNL     1      44.669   2.131   9.107  0.00  0.00    +0.000 A 
ATOM     15  N   UNL     1      45.421   2.754   8.177  0.00  0.00    +0.000 NA
ATOM     16  C   UNL     1      45.649   4.070   8.375  0.00  0.00    +0.000 A 
ATOM     17  C   UNL     1      45.177   4.787   9.468  0.00  0.00    +0.000 A 
ENDBRANCH  11  12
ENDBRANCH   8  11
ENDBRANCH   7   8
ENDBRANCH   1   7
BRANCH   4  18
ATOM     18  C   UNL     1      49.130   6.238  17.110  0.00  0.00    +0.000 C 
BRANCH  18  19
ATOM     19  N   UNL     1      50.078   5.271  17.606  0.00  0.00    +0.000 N 
ATOM     20  C   UNL     1      51.398   5.343  17.239  0.00  0.00    +0.000 C 
ATOM     21  O   UNL     1      51.811   6.225  16.489  0.00  0.00    +0.000 OA
ATOM     22  H   UNL     1      49.721   4.417  18.028  0.00  0.00    +0.000 HD
BRANCH  20  23
ATOM     23  C   UNL     1      52.312   4.360  17.830  0.00  0.00    +0.000 A 
ATOM     24  C   UNL     1      53.493   4.793  18.417  0.00  0.00    +0.000 A 
ATOM     25  S   UNL     1      54.439   3.528  19.066  0.00  0.00    +0.000 S 
ATOM     26  C   UNL     1      53.318   2.360  18.543  0.00  0.00    +0.000 A 
ATOM     27  N   UNL     1      53.533   1.031  18.733  0.00  0.00    +0.000 NA
ATOM     28  N   UNL     1      52.690   0.208  18.298  0.00  0.00    +0.000 NA
ATOM     29  N   UNL     1      51.565   0.667  17.672  0.00  0.00    +0.000 N 
ATOM     30  C   UNL     1      51.237   1.987  17.464  0.00  0.00    +0.000 A 
ATOM     31  O   UNL     1      50.180   2.327  16.938  0.00  0.00    +0.000 OA
ATOM     32  C   UNL     1      52.229   2.925  17.926  0.00  0.00    +0.000 A 
ATOM     33  H   UNL     1      50.916  -0.042  17.359  0.00  0.00    +0.000 HD
ENDBRANCH  20  23
ENDBRANCH  18  19
ENDBRANCH   4  18
TORSDOF 7
ENDMDL
MODEL 5
REMARK VINA RESULT:    -7.798      3.755      8.460
REMARK INTER + INTRA:         -11.883
REMARK INTER:                 -10.600
REMARK INTRA:                  -1.282
REMARK UNBOUND:                -0.893
REMARK  Name = 
REMARK  8 active torsions:
REMARK  status: ('A' for Active; 'I' for Inactive)
REMARK    1  A    between atoms: C_1  and  C_2
REMARK    2  A    between atoms: C_2  and  N_3
REMARK    3  A    between atoms: C_2  and  C_25
REMARK    4  A    between atoms: N_3  and  C_4
REMARK    5  A    between atoms: C_4  and  C_5
REMARK    6  A    between atoms: C_8  and  C_9
REMARK    7  A    between atoms: C_9  and  N_10
REMARK    8  A    between atoms: C_11  and  C_13
REMARK                            x       y       z     vdW  Elec       q    Type
REMARK                         _______ _______ _______ _____ _____    ______ ____
ROOT
ATOM      1  C   UNL     1      48.871   7.755  16.145  0.00  0.00    +0.000 A 
ATOM      2  C   UNL     1      48.282   8.923  15.666  0.00  0.00    +0.000 A 
ATOM      3  C   UNL     1      48.057   9.057  14.294  0.00  0.00    +0.000 A 
ATOM      4  C   UNL     1      48.421   8.023  13.428  0.00  0.00    +0.000 A 
ATOM      5  C   UNL     1      49.009   6.901  13.993  0.00  0.00    +0.000 A 
ATOM      6  N   UNL     1      49.232   6.741  15.316  0.00  0.00    +0.000 NA
ENDROOT
BRANCH   1   7
ATOM      7  C   UNL     1      49.019   7.524  17.640  0.00  0.00    +0.000 C 
BRANCH   7   8
ATOM      8  N   UNL     1      49.881   6.384  17.987  0.00  0.00    +0.000 NA
ATOM      9  H   UNL     1      50.612   6.713  18.615  0.00  0.00    +0.000 HD
BRANCH   8  11
ATOM     10  C   UNL     1      47.681   5.627  18.887  0.00  0.00    +0.000 C 
ATOM     11  C   UNL     1      49.150   5.276  18.625  0.00  0.00    +0.000 C 
BRANCH  11  12
ATOM     12  C   UNL     1      49.245   3.988  17.809  0.00  0.00    +0.000 A 
ATOM     13  C   UNL     1      50.429   3.235  17.831  0.00  0.00    +0.000 A 
ATOM     14  C   UNL     1      50.529   2.101  17.032  0.00  0.00    +0.000 A 
ATOM     15  N   UNL     1      49.543   1.667  16.221  0.00  0.00    +0.000 NA
ATOM     16  C   UNL     1      48.393   2.375  16.244  0.00  0.00    +0.000 A 
ATOM     17  C   UNL     1      48.191   3.508  17.024  0.00  0.00    +0.000 A 
ENDBRANCH  11  12
ENDBRANCH   8  11
ENDBRANCH   7   8
ENDBRANCH   1   7
BRANCH   4  18
ATOM     18  C   UNL     1      48.215   8.109  11.946  0.00  0.00    +0.000 C 
BRANCH  18  19
ATOM     19  N   UNL     1      47.555   6.937  11.426  0.00  0.00    +0.000 N 
ATOM     20  C   UNL     1      46.185   6.869  11.397  0.00  0.00    +0.000 C 
ATOM     21  O   UNL     1      45.485   7.794  11.803  0.00  0.00    +0.000 OA
ATOM     22  H   UNL     1      48.102   6.087  11.305  0.00  0.00    +0.000 HD
BRANCH  20  23
ATOM     23  C   UNL     1      45.587   5.671  10.798  0.00  0.00    +0.000 A 
ATOM     24  C   UNL     1      45.754   5.429   9.441  0.00  0.00    +0.000 A 
ATOM     25  S   UNL     1      45.004   3.991   8.905  0.00  0.00    +0.000 S 
ATOM     26  C   UNL     1      44.398   3.672  10.462  0.00  0.00    +0.000 A 
ATOM     27  N   UNL     1      43.609   2.593  10.711  0.00  0.00    +0.000 NA
ATOM     28  N   UNL     1      43.160   2.421  11.871  0.00  0.00    +0.000 NA
ATOM     29  N   UNL     1      43.497   3.303  12.860  0.00  0.00    +0.000 N 
ATOM     30  C   UNL     1      44.316   4.400  12.719  0.00  0.00    +0.000 A 
ATOM     31  O   UNL     1      44.618   5.121  13.668  0.00  0.00    +0.000 OA
ATOM     32  C   UNL     1      44.792   4.617  11.377  0.00  0.00    +0.000 A 
ATOM     33  H   UNL     1      43.119   3.103  13.776  0.00  0.00    +0.000 HD
ENDBRANCH  20  23
ENDBRANCH  18  19
ENDBRANCH   4  18
TORSDOF 7
ENDMDL
MODEL 6
REMARK VINA RESULT:    -7.675      3.587      8.884
REMARK INTER + INTRA:         -11.709
REMARK INTER:                 -10.409
REMARK INTRA:                  -1.301
REMARK UNBOUND:                -0.893
REMARK  Name = 
REMARK  8 active torsions:
REMARK  status: ('A' for Active; 'I' for Inactive)
REMARK    1  A    between atoms: C_1  and  C_2
REMARK    2  A    between atoms: C_2  and  N_3
REMARK    3  A    between atoms: C_2  and  C_25
REMARK    4  A    between atoms: N_3  and  C_4
REMARK    5  A    between atoms: C_4  and  C_5
REMARK    6  A    between atoms: C_8  and  C_9
REMARK    7  A    between atoms: C_9  and  N_10
REMARK    8  A    between atoms: C_11  and  C_13
REMARK                            x       y       z     vdW  Elec       q    Type
REMARK                         _______ _______ _______ _____ _____    ______ ____
ROOT
ATOM      1  C   UNL     1      49.186   7.887  15.859  0.00  0.00    +0.000 A 
ATOM      2  C   UNL     1      48.224   8.831  15.506  0.00  0.00    +0.000 A 
ATOM      3  C   UNL     1      47.672   8.791  14.224  0.00  0.00    +0.000 A 
ATOM      4  C   UNL     1      48.088   7.811  13.321  0.00  0.00    +0.000 A 
ATOM      5  C   UNL     1      49.057   6.919  13.757  0.00  0.00    +0.000 A 
ATOM      6  N   UNL     1      49.603   6.929  14.993  0.00  0.00    +0.000 NA
ENDROOT
BRANCH   1   7
ATOM      7  C   UNL     1      49.717   7.825  17.282  0.00  0.00    +0.000 C 
BRANCH   7   8
ATOM      8  N   UNL     1      50.408   6.568  17.608  0.00  0.00    +0.000 NA
ATOM      9  H   UNL     1      51.246   6.790  18.142  0.00  0.00    +0.000 HD
BRANCH   8  11
ATOM     10  C   UNL     1      48.186   6.205  18.683  0.00  0.00    +0.000 C 
ATOM     11  C   UNL     1      49.574   5.629  18.377  0.00  0.00    +0.000 C 
BRANCH  11  12
ATOM     12  C   UNL     1      49.439   4.280  17.672  0.00  0.00    +0.000 A 
ATOM     13  C   UNL     1      50.492   3.354  17.732  0.00  0.00    +0.000 A 
ATOM     14  C   UNL     1      50.387   2.158  17.030  0.00  0.00    +0.000 A 
ATOM     15  N   UNL     1      49.317   1.821  16.282  0.00  0.00    +0.000 NA
ATOM     16  C   UNL     1      48.293   2.701  16.269  0.00  0.00    +0.000 A 
ATOM     17  C   UNL     1      48.296   3.910  16.954  0.00  0.00    +0.000 A 
ENDBRANCH  11  12
ENDBRANCH   8  11
ENDBRANCH   7   8
ENDBRANCH   1   7
BRANCH   4  18
ATOM     18  C   UNL     1      47.543   7.720  11.928  0.00  0.00    +0.000 C 
BRANCH  18  19
ATOM     19  N   UNL     1      46.875   6.464  11.692  0.00  0.00    +0.000 N 
ATOM     20  C   UNL     1      45.510   6.374  11.796  0.00  0.00    +0.000 C 
ATOM     21  O   UNL     1      44.821   7.350  12.085  0.00  0.00    +0.000 OA
ATOM     22  H   UNL     1      47.434   5.613  11.683  0.00  0.00    +0.000 HD
BRANCH  20  23
ATOM     23  C   UNL     1      44.898   5.079  11.484  0.00  0.00    +0.000 A 
ATOM     24  C   UNL     1      44.161   4.418  12.457  0.00  0.00    +0.000 A 
ATOM     25  S   UNL     1      43.511   2.930  11.931  0.00  0.00    +0.000 S 
ATOM     26  C   UNL     1      44.230   3.103  10.400  0.00  0.00    +0.000 A 
ATOM     27  N   UNL     1      44.115   2.142   9.446  0.00  0.00    +0.000 NA
ATOM     28  N   UNL     1      44.694   2.304   8.344  0.00  0.00    +0.000 NA
ATOM     29  N   UNL     1      45.400   3.453   8.118  0.00  0.00    +0.000 N 
ATOM     30  C   UNL     1      45.545   4.498   9.001  0.00  0.00    +0.000 A 
ATOM     31  O   UNL     1      46.153   5.526   8.709  0.00  0.00    +0.000 OA
ATOM     32  C   UNL     1      44.916   4.287  10.280  0.00  0.00    +0.000 A 
ATOM     33  H   UNL     1      45.830   3.533   7.206  0.00  0.00    +0.000 HD
ENDBRANCH  20  23
ENDBRANCH  18  19
ENDBRANCH   4  18
TORSDOF 7
ENDMDL
MODEL 7
REMARK VINA RESULT:    -7.116      3.847      8.609
REMARK INTER + INTRA:         -10.922
REMARK INTER:                  -9.293
REMARK INTRA:                  -1.628
REMARK UNBOUND:                -0.893
REMARK  Name = 
REMARK  8 active torsions:
REMARK  status: ('A' for Active; 'I' for Inactive)
REMARK    1  A    between atoms: C_1  and  C_2
REMARK    2  A    between atoms: C_2  and  N_3
REMARK    3  A    between atoms: C_2  and  C_25
REMARK    4  A    between atoms: N_3  and  C_4
REMARK    5  A    between atoms: C_4  and  C_5
REMARK    6  A    between atoms: C_8  and  C_9
REMARK    7  A    between atoms: C_9  and  N_10
REMARK    8  A    between atoms: C_11  and  C_13
REMARK                            x       y       z     vdW  Elec       q    Type
REMARK                         _______ _______ _______ _____ _____    ______ ____
ROOT
ATOM      1  C   UNL     1      49.984   7.130  18.323  0.00  0.00    +0.000 A 
ATOM      2  C   UNL     1      48.995   8.110  18.258  0.00  0.00    +0.000 A 
ATOM      3  C   UNL     1      48.515   8.507  17.008  0.00  0.00    +0.000 A 
ATOM      4  C   UNL     1      49.028   7.919  15.850  0.00  0.00    +0.000 A 
ATOM      5  C   UNL     1      50.017   6.959  16.011  0.00  0.00    +0.000 A 
ATOM      6  N   UNL     1      50.495   6.550  17.207  0.00  0.00    +0.000 NA
ENDROOT
BRANCH   1   7
ATOM      7  C   UNL     1      50.441   6.587  19.667  0.00  0.00    +0.000 C 
BRANCH   7   8
ATOM      8  N   UNL     1      50.545   5.121  19.716  0.00  0.00    +0.000 NA
ATOM      9  H   UNL     1      51.163   4.867  20.485  0.00  0.00    +0.000 HD
BRANCH   8  11
ATOM     10  C   UNL     1      48.233   5.340  20.626  0.00  0.00    +0.000 C 
ATOM     11  C   UNL     1      49.245   4.452  19.892  0.00  0.00    +0.000 C 
BRANCH  11  12
ATOM     12  C   UNL     1      48.663   3.980  18.561  0.00  0.00    +0.000 A 
ATOM     13  C   UNL     1      49.269   2.918  17.873  0.00  0.00    +0.000 A 
ATOM     14  C   UNL     1      48.772   2.543  16.630  0.00  0.00    +0.000 A 
ATOM     15  N   UNL     1      47.724   3.142  16.029  0.00  0.00    +0.000 NA
ATOM     16  C   UNL     1      47.122   4.133  16.723  0.00  0.00    +0.000 A 
ATOM     17  C   UNL     1      47.532   4.564  17.978  0.00  0.00    +0.000 A 
ENDBRANCH  11  12
ENDBRANCH   8  11
ENDBRANCH   7   8
ENDBRANCH   1   7
BRANCH   4  18
ATOM     18  C   UNL     1      48.563   8.307  14.479  0.00  0.00    +0.000 C 
BRANCH  18  19
ATOM     19  N   UNL     1      47.464   7.488  14.031  0.00  0.00    +0.000 N 
ATOM     20  C   UNL     1      47.689   6.428  13.189  0.00  0.00    +0.000 C 
ATOM     21  O   UNL     1      48.820   6.143  12.799  0.00  0.00    +0.000 OA
ATOM     22  H   UNL     1      46.518   7.840  14.152  0.00  0.00    +0.000 HD
BRANCH  20  23
ATOM     23  C   UNL     1      46.531   5.605  12.825  0.00  0.00    +0.000 A 
ATOM     24  C   UNL     1      46.575   4.233  13.033  0.00  0.00    +0.000 A 
ATOM     25  S   UNL     1      45.146   3.424  12.565  0.00  0.00    +0.000 S 
ATOM     26  C   UNL     1      44.442   4.877  12.031  0.00  0.00    +0.000 A 
ATOM     27  N   UNL     1      43.210   4.903  11.457  0.00  0.00    +0.000 NA
ATOM     28  N   UNL     1      42.750   5.998  11.049  0.00  0.00    +0.000 NA
ATOM     29  N   UNL     1      43.484   7.139  11.217  0.00  0.00    +0.000 N 
ATOM     30  C   UNL     1      44.720   7.225  11.816  0.00  0.00    +0.000 A 
ATOM     31  O   UNL     1      45.299   8.296  11.979  0.00  0.00    +0.000 OA
ATOM     32  C   UNL     1      45.261   5.959  12.242  0.00  0.00    +0.000 A 
ATOM     33  H   UNL     1      43.054   7.992  10.884  0.00  0.00    +0.000 HD
ENDBRANCH  20  23
ENDBRANCH  18  19
ENDBRANCH   4  18
TORSDOF 7
ENDMDL
MODEL 8
REMARK VINA RESULT:    -7.024      3.691      5.647
REMARK INTER + INTRA:         -10.791
REMARK INTER:                  -9.622
REMARK INTRA:                  -1.168
REMARK UNBOUND:                -0.893
REMARK  Name = 
REMARK  8 active torsions:
REMARK  status: ('A' for Active; 'I' for Inactive)
REMARK    1  A    between atoms: C_1  and  C_2
REMARK    2  A    between atoms: C_2  and  N_3
REMARK    3  A    between atoms: C_2  and  C_25
REMARK    4  A    between atoms: N_3  and  C_4
REMARK    5  A    between atoms: C_4  and  C_5
REMARK    6  A    between atoms: C_8  and  C_9
REMARK    7  A    between atoms: C_9  and  N_10
REMARK    8  A    between atoms: C_11  and  C_13
REMARK                            x       y       z     vdW  Elec       q    Type
REMARK                         _______ _______ _______ _____ _____    ______ ____
ROOT
ATOM      1  C   UNL     1      47.676   5.719  14.574  0.00  0.00    +0.000 A 
ATOM      2  C   UNL     1      47.059   4.471  14.522  0.00  0.00    +0.000 A 
ATOM      3  C   UNL     1      47.231   3.584  15.586  0.00  0.00    +0.000 A 
ATOM      4  C   UNL     1      48.012   3.959  16.681  0.00  0.00    +0.000 A 
ATOM      5  C   UNL     1      48.594   5.217  16.643  0.00  0.00    +0.000 A 
ATOM      6  N   UNL     1      48.439   6.099  15.631  0.00  0.00    +0.000 NA
ENDROOT
BRANCH   1   7
ATOM      7  C   UNL     1      47.411   6.754  13.493  0.00  0.00    +0.000 C 
BRANCH   7   8
ATOM      8  N   UNL     1      45.984   6.999  13.236  0.00  0.00    +0.000 NA
ATOM      9  H   UNL     1      45.769   7.959  13.501  0.00  0.00    +0.000 HD
BRANCH   8  11
ATOM     10  C   UNL     1      46.820   6.700  10.905  0.00  0.00    +0.000 C 
ATOM     11  C   UNL     1      45.600   6.783  11.831  0.00  0.00    +0.000 C 
BRANCH  11  12
ATOM     12  C   UNL     1      44.728   5.541  11.663  0.00  0.00    +0.000 A 
ATOM     13  C   UNL     1      43.938   5.095  12.734  0.00  0.00    +0.000 A 
ATOM     14  C   UNL     1      43.201   3.924  12.593  0.00  0.00    +0.000 A 
ATOM     15  N   UNL     1      43.193   3.174  11.473  0.00  0.00    +0.000 NA
ATOM     16  C   UNL     1      43.922   3.638  10.435  0.00  0.00    +0.000 A 
ATOM     17  C   UNL     1      44.673   4.807  10.473  0.00  0.00    +0.000 A 
ENDBRANCH  11  12
ENDBRANCH   8  11
ENDBRANCH   7   8
ENDBRANCH   1   7
BRANCH   4  18
ATOM     18  C   UNL     1      48.244   3.050  17.850  0.00  0.00    +0.000 C 
BRANCH  18  19
ATOM     19  N   UNL     1      49.649   2.854  18.110  0.00  0.00    +0.000 N 
ATOM     20  C   UNL     1      50.406   2.076  17.270  0.00  0.00    +0.000 C 
ATOM     21  O   UNL     1      49.919   1.533  16.281  0.00  0.00    +0.000 OA
ATOM     22  H   UNL     1      50.009   3.098  19.030  0.00  0.00    +0.000 HD
BRANCH  20  23
ATOM     23  C   UNL     1      51.839   1.973  17.566  0.00  0.00    +0.000 A 
ATOM     24  C   UNL     1      52.426   0.719  17.670  0.00  0.00    +0.000 A 
ATOM     25  S   UNL     1      54.099   0.773  18.008  0.00  0.00    +0.000 S 
ATOM     26  C   UNL     1      54.080   2.472  18.068  0.00  0.00    +0.000 A 
ATOM     27  N   UNL     1      55.196   3.187  18.367  0.00  0.00    +0.000 NA
ATOM     28  N   UNL     1      55.121   4.439  18.431  0.00  0.00    +0.000 NA
ATOM     29  N   UNL     1      53.928   5.054  18.172  0.00  0.00    +0.000 N 
ATOM     30  C   UNL     1      52.753   4.426  17.825  0.00  0.00    +0.000 A 
ATOM     31  O   UNL     1      51.729   5.049  17.554  0.00  0.00    +0.000 OA
ATOM     32  C   UNL     1      52.836   2.988  17.796  0.00  0.00    +0.000 A 
ATOM     33  H   UNL     1      53.933   6.064  18.223  0.00  0.00    +0.000 HD
ENDBRANCH  20  23
ENDBRANCH  18  19
ENDBRANCH   4  18
TORSDOF 7
ENDMDL
MODEL 9
REMARK VINA RESULT:    -6.864      1.992      2.186
REMARK INTER + INTRA:         -10.566
REMARK INTER:                  -9.471
REMARK INTRA:                  -1.095
REMARK UNBOUND:                -0.893
REMARK  Name = 
REMARK  8 active torsions:
REMARK  status: ('A' for Active; 'I' for Inactive)
REMARK    1  A    between atoms: C_1  and  C_2
REMARK    2  A    between atoms: C_2  and  N_3
REMARK    3  A    between atoms: C_2  and  C_25
REMARK    4  A    between atoms: N_3  and  C_4
REMARK    5  A    between atoms: C_4  and  C_5
REMARK    6  A    between atoms: C_8  and  C_9
REMARK    7  A    between atoms: C_9  and  N_10
REMARK    8  A    between atoms: C_11  and  C_13
REMARK                            x       y       z     vdW  Elec       q    Type
REMARK                         _______ _______ _______ _____ _____    ______ ____
ROOT
ATOM      1  C   UNL     1      45.493   4.841  13.410  0.00  0.00    +0.000 A 
ATOM      2  C   UNL     1      45.679   5.994  12.648  0.00  0.00    +0.000 A 
ATOM      3  C   UNL     1      46.847   6.739  12.818  0.00  0.00    +0.000 A 
ATOM      4  C   UNL     1      47.808   6.320  13.742  0.00  0.00    +0.000 A 
ATOM      5  C   UNL     1      47.534   5.166  14.462  0.00  0.00    +0.000 A 
ATOM      6  N   UNL     1      46.416   4.422  14.313  0.00  0.00    +0.000 NA
ENDROOT
BRANCH   1   7
ATOM      7  C   UNL     1      44.294   3.941  13.163  0.00  0.00    +0.000 C 
BRANCH   7   8
ATOM      8  N   UNL     1      44.518   2.915  12.134  0.00  0.00    +0.000 NA
ATOM      9  H   UNL     1      44.226   2.013  12.510  0.00  0.00    +0.000 HD
BRANCH   8  11
ATOM     10  C   UNL     1      43.016   4.502  10.930  0.00  0.00    +0.000 C 
ATOM     11  C   UNL     1      43.791   3.179  10.881  0.00  0.00    +0.000 C 
BRANCH  11  12
ATOM     12  C   UNL     1      44.721   3.160   9.669  0.00  0.00    +0.000 A 
ATOM     13  C   UNL     1      45.161   1.933   9.149  0.00  0.00    +0.000 A 
ATOM     14  C   UNL     1      46.062   1.929   8.089  0.00  0.00    +0.000 A 
ATOM     15  N   UNL     1      46.549   3.047   7.515  0.00  0.00    +0.000 NA
ATOM     16  C   UNL     1      46.082   4.220   7.996  0.00  0.00    +0.000 A 
ATOM     17  C   UNL     1      45.167   4.326   9.037  0.00  0.00    +0.000 A 
ENDBRANCH  11  12
ENDBRANCH   8  11
ENDBRANCH   7   8
ENDBRANCH   1   7
BRANCH   4  18
ATOM     18  C   UNL     1      49.078   7.080  13.979  0.00  0.00    +0.000 C 
BRANCH  18  19
ATOM     19  N   UNL     1      49.472   7.050  15.366  0.00  0.00    +0.000 N 
ATOM     20  C   UNL     1      50.738   7.429  15.734  0.00  0.00    +0.000 C 
ATOM     21  O   UNL     1      51.565   7.805  14.906  0.00  0.00    +0.000 OA
ATOM     22  H   UNL     1      48.892   6.532  16.022  0.00  0.00    +0.000 HD
BRANCH  20  23
ATOM     23  C   UNL     1      51.046   7.429  17.168  0.00  0.00    +0.000 A 
ATOM     24  C   UNL     1      51.417   8.615  17.787  0.00  0.00    +0.000 A 
ATOM     25  S   UNL     1      51.732   8.447  19.457  0.00  0.00    +0.000 S 
ATOM     26  C   UNL     1      51.423   6.775  19.394  0.00  0.00    +0.000 A 
ATOM     27  N   UNL     1      51.558   5.984  20.491  0.00  0.00    +0.000 NA
ATOM     28  N   UNL     1      51.351   4.750  20.383  0.00  0.00    +0.000 NA
ATOM     29  N   UNL     1      50.968   4.237  19.175  0.00  0.00    +0.000 N 
ATOM     30  C   UNL     1      50.767   4.955  18.019  0.00  0.00    +0.000 A 
ATOM     31  O   UNL     1      50.371   4.432  16.980  0.00  0.00    +0.000 OA
ATOM     32  C   UNL     1      51.049   6.363  18.138  0.00  0.00    +0.000 A 
ATOM     33  H   UNL     1      50.799   3.240  19.155  0.00  0.00    +0.000 HD
ENDBRANCH  20  23
ENDBRANCH  18  19
ENDBRANCH   4  18
TORSDOF 7
ENDMDL
