MODEL 1
REMARK VINA RESULT:    -7.042      0.000      0.000
REMARK INTER + INTRA:          -9.194
REMARK INTER:                  -8.894
REMARK INTRA:                  -0.300
REMARK UNBOUND:                -0.300
REMARK  Name = 
REMARK  5 active torsions:
REMARK  status: ('A' for Active; 'I' for Inactive)
REMARK    1  A    between atoms: N_1  and  C_2
REMARK    2  A    between atoms: C_2  and  C_3
REMARK    3  A    between atoms: C_6  and  O_7
REMARK    4  A    between atoms: O_7  and  C_8
REMARK    5  A    between atoms: C_8  and  C_9
REMARK                            x       y       z     vdW  Elec       q    Type
REMARK                         _______ _______ _______ _____ _____    ______ ____
ROOT
ATOM      1  C   UNL     1      46.594   2.848   6.986  0.00  0.00    +0.000 A 
ATOM      2  C   UNL     1      46.400   1.698   7.751  0.00  0.00    +0.000 A 
ATOM      3  C   UNL     1      45.476   1.726   8.794  0.00  0.00    +0.000 A 
ATOM      4  C   UNL     1      44.780   2.899   9.061  0.00  0.00    +0.000 A 
ATOM      5  C   UNL     1      45.008   3.985   8.225  0.00  0.00    +0.000 A 
ATOM      6  N   UNL     1      45.896   3.989   7.204  0.00  0.00    +0.000 NA
ENDROOT
BRANCH   1   7
ATOM      7  C   UNL     1      47.583   2.854   5.843  0.00  0.00    +0.000 C 
BRANCH   7   8
ATOM      8  N   UNL     1      48.480   1.695   5.877  0.00  0.00    +0.000 NA
ATOM      9  H   UNL     1      49.364   1.981   6.294  0.00  0.00    +0.000 HD
ATOM     10  H   UNL     1      48.694   1.444   4.911  0.00  0.00    +0.000 HD
ENDBRANCH   7   8
ENDBRANCH   1   7
BRANCH   4  11
ATOM     11  O   UNL     1      43.929   2.869  10.130  0.00  0.00    +0.000 OA
BRANCH  11  12
ATOM     12  C   UNL     1      43.719   4.133  10.764  0.00  0.00    +0.000 C 
BRANCH  12  13
ATOM     13  C   UNL     1      44.768   4.401  11.795  0.00  0.00    +0.000 A 
ATOM     14  C   UNL     1      45.136   5.666  12.208  0.00  0.00    +0.000 A 
ATOM     15  N   UNL     1      46.022   5.904  13.194  0.00  0.00    +0.000 NA
ATOM     16  C   UNL     1      46.543   4.819  13.784  0.00  0.00    +0.000 A 
ATOM     17  N   UNL     1      46.261   3.544  13.480  0.00  0.00    +0.000 NA
ATOM     18  C   UNL     1      45.371   3.369  12.487  0.00  0.00    +0.000 A 
ENDBRANCH  12  13
ENDBRANCH  11  12
ENDBRANCH   4  11
TORSDOF 5
ENDMDL
MODEL 2
REMARK VINA RESULT:    -6.957      1.021      1.373
REMARK INTER + INTRA:          -9.088
REMARK INTER:                  -8.703
REMARK INTRA:                  -0.385
REMARK UNBOUND:                -0.300
REMARK  Name = 
REMARK  5 active torsions:
REMARK  status: ('A' for Active; 'I' for Inactive)
REMARK    1  A    between atoms: N_1  and  C_2
REMARK    2  A    between atoms: C_2  and  C_3
REMARK    3  A    between atoms: C_6  and  O_7
REMARK    4  A    between atoms: O_7  and  C_8
REMARK    5  A    between atoms: C_8  and  C_9
REMARK                            x       y       z     vdW  Elec       q    Type
REMARK                         _______ _______ _______ _____ _____    ______ ____
ROOT
ATOM      1  C   UNL     1      46.568   2.344   7.600  0.00  0.00    +0.000 A 
ATOM      2  C   UNL     1      46.373   3.724   7.562  0.00  0.00    +0.000 A 
ATOM      3  C   UNL     1      45.419   4.296   8.402  0.00  0.00    +0.000 A 
ATOM      4  C   UNL     1      44.673   3.482   9.245  0.00  0.00    +0.000 A 
ATOM      5  C   UNL     1      44.960   2.122   9.245  0.00  0.00    +0.000 A 
ATOM      6  N   UNL     1      45.880   1.537   8.444  0.00  0.00    +0.000 NA
ENDROOT
BRANCH   1   7
ATOM      7  C   UNL     1      47.597   1.687   6.707  0.00  0.00    +0.000 C 
BRANCH   7   8
ATOM      8  N   UNL     1      48.665   2.612   6.317  0.00  0.00    +0.000 NA
ATOM      9  H   UNL     1      48.499   2.913   5.359  0.00  0.00    +0.000 HD
ATOM     10  H   UNL     1      49.538   2.082   6.296  0.00  0.00    +0.000 HD
ENDBRANCH   7   8
ENDBRANCH   1   7
BRANCH   4  11
ATOM     11  O   UNL     1      43.721   4.104  10.003  0.00  0.00    +0.000 OA
BRANCH  11  12
ATOM     12  C   UNL     1      43.615   3.623  11.346  0.00  0.00    +0.000 C 
BRANCH  12  13
ATOM     13  C   UNL     1      44.745   4.119  12.189  0.00  0.00    +0.000 A 
ATOM     14  C   UNL     1      44.936   5.446  12.516  0.00  0.00    +0.000 A 
ATOM     15  N   UNL     1      45.906   5.882  13.342  0.00  0.00    +0.000 NA
ATOM     16  C   UNL     1      46.702   4.935  13.859  0.00  0.00    +0.000 A 
ATOM     17  N   UNL     1      46.612   3.617  13.626  0.00  0.00    +0.000 NA
ATOM     18  C   UNL     1      45.625   3.242  12.792  0.00  0.00    +0.000 A 
ENDBRANCH  12  13
ENDBRANCH  11  12
ENDBRANCH   4  11
TORSDOF 5
ENDMDL
MODEL 3
REMARK VINA RESULT:    -6.668      1.299      5.913
REMARK INTER + INTRA:          -8.722
REMARK INTER:                  -8.413
REMARK INTRA:                  -0.310
REMARK UNBOUND:                -0.300
REMARK  Name = 
REMARK  5 active torsions:
REMARK  status: ('A' for Active; 'I' for Inactive)
REMARK    1  A    between atoms: N_1  and  C_2
REMARK    2  A    between atoms: C_2  and  C_3
REMARK    3  A    between atoms: C_6  and  O_7
REMARK    4  A    between atoms: O_7  and  C_8
REMARK    5  A    between atoms: C_8  and  C_9
REMARK                            x       y       z     vdW  Elec       q    Type
REMARK                         _______ _______ _______ _____ _____    ______ ____
ROOT
ATOM      1  C   UNL     1      46.347   4.767  13.202  0.00  0.00    +0.000 A 
ATOM      2  C   UNL     1      46.154   5.697  12.181  0.00  0.00    +0.000 A 
ATOM      3  C   UNL     1      45.396   5.334  11.070  0.00  0.00    +0.000 A 
ATOM      4  C   UNL     1      44.862   4.053  10.993  0.00  0.00    +0.000 A 
ATOM      5  C   UNL     1      45.073   3.204  12.072  0.00  0.00    +0.000 A 
ATOM      6  N   UNL     1      45.802   3.527  13.165  0.00  0.00    +0.000 NA
ENDROOT
BRANCH   1   7
ATOM      7  C   UNL     1      47.160   5.125  14.426  0.00  0.00    +0.000 C 
BRANCH   7   8
ATOM      8  N   UNL     1      46.789   4.320  15.594  0.00  0.00    +0.000 NA
ATOM      9  H   UNL     1      47.035   3.349  15.409  0.00  0.00    +0.000 HD
ATOM     10  H   UNL     1      45.771   4.341  15.671  0.00  0.00    +0.000 HD
ENDBRANCH   7   8
ENDBRANCH   1   7
BRANCH   4  11
ATOM     11  O   UNL     1      44.173   3.751   9.852  0.00  0.00    +0.000 OA
BRANCH  11  12
ATOM     12  C   UNL     1      44.802   4.179   8.641  0.00  0.00    +0.000 C 
BRANCH  12  13
ATOM     13  C   UNL     1      45.681   3.109   8.081  0.00  0.00    +0.000 A 
ATOM     14  C   UNL     1      46.715   3.345   7.197  0.00  0.00    +0.000 A 
ATOM     15  N   UNL     1      47.558   2.392   6.756  0.00  0.00    +0.000 NA
ATOM     16  C   UNL     1      47.346   1.159   7.237  0.00  0.00    +0.000 A 
ATOM     17  N   UNL     1      46.385   0.805   8.103  0.00  0.00    +0.000 NA
ATOM     18  C   UNL     1      45.573   1.799   8.506  0.00  0.00    +0.000 A 
ENDBRANCH  12  13
ENDBRANCH  11  12
ENDBRANCH   4  11
TORSDOF 5
ENDMDL
MODEL 4
REMARK VINA RESULT:    -6.009      1.294      5.737
REMARK INTER + INTRA:          -7.890
REMARK INTER:                  -7.530
REMARK INTRA:                  -0.361
REMARK UNBOUND:                -0.300
REMARK  Name = 
REMARK  5 active torsions:
REMARK  status: ('A' for Active; 'I' for Inactive)
REMARK    1  A    between atoms: N_1  and  C_2
REMARK    2  A    between atoms: C_2  and  C_3
REMARK    3  A    between atoms: C_6  and  O_7
REMARK    4  A    between atoms: O_7  and  C_8
REMARK    5  A    between atoms: C_8  and  C_9
REMARK                            x       y       z     vdW  Elec       q    Type
REMARK                         _______ _______ _______ _____ _____    ______ ____
ROOT
ATOM      1  C   UNL     1      46.109   4.764  12.999  0.00  0.00    +0.000 A 
ATOM      2  C   UNL     1      45.605   3.488  12.748  0.00  0.00    +0.000 A 
ATOM      3  C   UNL     1      45.016   3.225  11.512  0.00  0.00    +0.000 A 
ATOM      4  C   UNL     1      44.929   4.238  10.565  0.00  0.00    +0.000 A 
ATOM      5  C   UNL     1      45.490   5.467  10.886  0.00  0.00    +0.000 A 
ATOM      6  N   UNL     1      46.070   5.754  12.075  0.00  0.00    +0.000 NA
ENDROOT
BRANCH   1   7
ATOM      7  C   UNL     1      46.759   5.087  14.326  0.00  0.00    +0.000 C 
BRANCH   7   8
ATOM      8  N   UNL     1      48.087   5.685  14.162  0.00  0.00    +0.000 NA
ATOM      9  H   UNL     1      48.183   6.002  13.200  0.00  0.00    +0.000 HD
ATOM     10  H   UNL     1      48.776   4.942  14.282  0.00  0.00    +0.000 HD
ENDBRANCH   7   8
ENDBRANCH   1   7
BRANCH   4  11
ATOM     11  O   UNL     1      44.294   3.922   9.397  0.00  0.00    +0.000 OA
BRANCH  11  12
ATOM     12  C   UNL     1      44.457   2.565   8.974  0.00  0.00    +0.000 C 
BRANCH  12  13
ATOM     13  C   UNL     1      45.608   2.428   8.031  0.00  0.00    +0.000 A 
ATOM     14  C   UNL     1      46.086   3.456   7.243  0.00  0.00    +0.000 A 
ATOM     15  N   UNL     1      47.173   3.354   6.455  0.00  0.00    +0.000 NA
ATOM     16  C   UNL     1      47.798   2.169   6.475  0.00  0.00    +0.000 A 
ATOM     17  N   UNL     1      47.439   1.100   7.201  0.00  0.00    +0.000 NA
ATOM     18  C   UNL     1      46.345   1.262   7.968  0.00  0.00    +0.000 A 
ENDBRANCH  12  13
ENDBRANCH  11  12
ENDBRANCH   4  11
TORSDOF 5
ENDMDL
MODEL 5
REMARK VINA RESULT:    -5.632      1.837      6.055
REMARK INTER + INTRA:          -7.414
REMARK INTER:                  -7.089
REMARK INTRA:                  -0.325
REMARK UNBOUND:                -0.300
REMARK  Name = 
REMARK  5 active torsions:
REMARK  status: ('A' for Active; 'I' for Inactive)
REMARK    1  A    between atoms: N_1  and  C_2
REMARK    2  A    between atoms: C_2  and  C_3
REMARK    3  A    between atoms: C_6  and  O_7
REMARK    4  A    between atoms: O_7  and  C_8
REMARK    5  A    between atoms: C_8  and  C_9
REMARK                            x       y       z     vdW  Elec       q    Type
REMARK                         _______ _______ _______ _____ _____    ______ ____
ROOT
ATOM      1  C   UNL     1      47.505   6.163  13.947  0.00  0.00    +0.000 A 
ATOM      2  C   UNL     1      46.567   6.599  13.011  0.00  0.00    +0.000 A 
ATOM      3  C   UNL     1      45.720   5.665  12.418  0.00  0.00    +0.000 A 
ATOM      4  C   UNL     1      45.836   4.322  12.756  0.00  0.00    +0.000 A 
ATOM      5  C   UNL     1      46.772   3.982  13.725  0.00  0.00    +0.000 A 
ATOM      6  N   UNL     1      47.607   4.865  14.321  0.00  0.00    +0.000 NA
ENDROOT
BRANCH   1   7
ATOM      7  C   UNL     1      48.438   7.147  14.617  0.00  0.00    +0.000 C 
BRANCH   7   8
ATOM      8  N   UNL     1      49.818   6.657  14.668  0.00  0.00    +0.000 NA
ATOM      9  H   UNL     1      49.815   5.659  14.469  0.00  0.00    +0.000 HD
ATOM     10  H   UNL     1      50.141   6.749  15.633  0.00  0.00    +0.000 HD
ENDBRANCH   7   8
ENDBRANCH   1   7
BRANCH   4  11
ATOM     11  O   UNL     1      45.008   3.457  12.097  0.00  0.00    +0.000 OA
BRANCH  11  12
ATOM     12  C   UNL     1      44.312   4.024  10.984  0.00  0.00    +0.000 C 
BRANCH  12  13
ATOM     13  C   UNL     1      44.970   3.659   9.692  0.00  0.00    +0.000 A 
ATOM     14  C   UNL     1      45.486   4.580   8.804  0.00  0.00    +0.000 A 
ATOM     15  N   UNL     1      46.151   4.248   7.680  0.00  0.00    +0.000 NA
ATOM     16  C   UNL     1      46.301   2.935   7.459  0.00  0.00    +0.000 A 
ATOM     17  N   UNL     1      45.855   1.946   8.248  0.00  0.00    +0.000 NA
ATOM     18  C   UNL     1      45.198   2.339   9.354  0.00  0.00    +0.000 A 
ENDBRANCH  12  13
ENDBRANCH  11  12
ENDBRANCH   4  11
TORSDOF 5
ENDMDL
MODEL 6
REMARK VINA RESULT:    -5.248      4.167      8.351
REMARK INTER + INTRA:          -6.929
REMARK INTER:                  -6.619
REMARK INTRA:                  -0.309
REMARK UNBOUND:                -0.300
REMARK  Name = 
REMARK  5 active torsions:
REMARK  status: ('A' for Active; 'I' for Inactive)
REMARK    1  A    between atoms: N_1  and  C_2
REMARK    2  A    between atoms: C_2  and  C_3
REMARK    3  A    between atoms: C_6  and  O_7
REMARK    4  A    between atoms: O_7  and  C_8
REMARK    5  A    between atoms: C_8  and  C_9
REMARK                            x       y       z     vdW  Elec       q    Type
REMARK                         _______ _______ _______ _____ _____    ______ ____
ROOT
ATOM      1  C   UNL     1      48.500   4.520  18.382  0.00  0.00    +0.000 A 
ATOM      2  C   UNL     1      48.441   5.515  17.406  0.00  0.00    +0.000 A 
ATOM      3  C   UNL     1      47.960   5.192  16.139  0.00  0.00    +0.000 A 
ATOM      4  C   UNL     1      47.565   3.888  15.868  0.00  0.00    +0.000 A 
ATOM      5  C   UNL     1      47.621   2.970  16.909  0.00  0.00    +0.000 A 
ATOM      6  N   UNL     1      48.081   3.252  18.150  0.00  0.00    +0.000 NA
ENDROOT
BRANCH   1   7
ATOM      7  C   UNL     1      49.010   4.832  19.770  0.00  0.00    +0.000 C 
BRANCH   7   8
ATOM      8  N   UNL     1      48.434   3.947  20.787  0.00  0.00    +0.000 NA
ATOM      9  H   UNL     1      48.448   2.993  20.431  0.00  0.00    +0.000 HD
ATOM     10  H   UNL     1      47.449   4.194  20.887  0.00  0.00    +0.000 HD
ENDBRANCH   7   8
ENDBRANCH   1   7
BRANCH   4  11
ATOM     11  O   UNL     1      47.152   3.633  14.590  0.00  0.00    +0.000 OA
BRANCH  11  12
ATOM     12  C   UNL     1      46.797   4.792  13.832  0.00  0.00    +0.000 C 
BRANCH  12  13
ATOM     13  C   UNL     1      45.539   4.567  13.057  0.00  0.00    +0.000 A 
ATOM     14  C   UNL     1      45.271   3.418  12.342  0.00  0.00    +0.000 A 
ATOM     15  N   UNL     1      44.105   3.182  11.711  0.00  0.00    +0.000 NA
ATOM     16  C   UNL     1      43.179   4.145  11.819  0.00  0.00    +0.000 A 
ATOM     17  N   UNL     1      43.315   5.298  12.490  0.00  0.00    +0.000 NA
ATOM     18  C   UNL     1      44.502   5.478  13.098  0.00  0.00    +0.000 A 
ENDBRANCH  12  13
ENDBRANCH  11  12
ENDBRANCH   4  11
TORSDOF 5
ENDMDL
MODEL 7
REMARK VINA RESULT:    -5.243      2.553      6.664
REMARK INTER + INTRA:          -6.922
REMARK INTER:                  -6.627
REMARK INTRA:                  -0.295
REMARK UNBOUND:                -0.300
REMARK  Name = 
REMARK  5 active torsions:
REMARK  status: ('A' for Active; 'I' for Inactive)
REMARK    1  A    between atoms: N_1  and  C_2
REMARK    2  A    between atoms: C_2  and  C_3
REMARK    3  A    between atoms: C_6  and  O_7
REMARK    4  A    between atoms: O_7  and  C_8
REMARK    5  A    between atoms: C_8  and  C_9
REMARK                            x       y       z     vdW  Elec       q    Type
REMARK                         _______ _______ _______ _____ _____    ______ ____
ROOT
ATOM      1  C   UNL     1      48.475   6.233  15.110  0.00  0.00    +0.000 A 
ATOM      2  C   UNL     1      47.925   6.685  13.910  0.00  0.00    +0.000 A 
ATOM      3  C   UNL     1      46.921   5.934  13.301  0.00  0.00    +0.000 A 
ATOM      4  C   UNL     1      46.500   4.748  13.889  0.00  0.00    +0.000 A 
ATOM      5  C   UNL     1      47.076   4.393  15.102  0.00  0.00    +0.000 A 
ATOM      6  N   UNL     1      48.050   5.100  15.720  0.00  0.00    +0.000 NA
ENDROOT
BRANCH   1   7
ATOM      7  C   UNL     1      49.562   7.022  15.804  0.00  0.00    +0.000 C 
BRANCH   7   8
ATOM      8  N   UNL     1      50.813   7.035  15.040  0.00  0.00    +0.000 NA
ATOM      9  H   UNL     1      50.619   6.708  14.095  0.00  0.00    +0.000 HD
ATOM     10  H   UNL     1      51.434   6.339  15.455  0.00  0.00    +0.000 HD
ENDBRANCH   7   8
ENDBRANCH   1   7
BRANCH   4  11
ATOM     11  O   UNL     1      45.549   4.039  13.210  0.00  0.00    +0.000 OA
BRANCH  11  12
ATOM     12  C   UNL     1      44.752   4.814  12.311  0.00  0.00    +0.000 C 
BRANCH  12  13
ATOM     13  C   UNL     1      44.886   4.322  10.907  0.00  0.00    +0.000 A 
ATOM     14  C   UNL     1      44.380   3.117  10.461  0.00  0.00    +0.000 A 
ATOM     15  N   UNL     1      44.430   2.711   9.178  0.00  0.00    +0.000 NA
ATOM     16  C   UNL     1      45.007   3.564   8.319  0.00  0.00    +0.000 A 
ATOM     17  N   UNL     1      45.527   4.761   8.626  0.00  0.00    +0.000 NA
ATOM     18  C   UNL     1      45.449   5.111   9.923  0.00  0.00    +0.000 A 
ENDBRANCH  12  13
ENDBRANCH  11  12
ENDBRANCH   4  11
TORSDOF 5
ENDMDL
MODEL 8
REMARK VINA RESULT:    -5.027      3.075      4.955
REMARK INTER + INTRA:          -6.649
REMARK INTER:                  -6.376
REMARK INTRA:                  -0.273
REMARK UNBOUND:                -0.300
REMARK  Name = 
REMARK  5 active torsions:
REMARK  status: ('A' for Active; 'I' for Inactive)
REMARK    1  A    between atoms: N_1  and  C_2
REMARK    2  A    between atoms: C_2  and  C_3
REMARK    3  A    between atoms: C_6  and  O_7
REMARK    4  A    between atoms: O_7  and  C_8
REMARK    5  A    between atoms: C_8  and  C_9
REMARK                            x       y       z     vdW  Elec       q    Type
REMARK                         _______ _______ _______ _____ _____    ______ ____
ROOT
ATOM      1  C   UNL     1      44.984   4.275  10.370  0.00  0.00    +0.000 A 
ATOM      2  C   UNL     1      45.653   5.379  10.898  0.00  0.00    +0.000 A 
ATOM      3  C   UNL     1      45.983   5.386  12.252  0.00  0.00    +0.000 A 
ATOM      4  C   UNL     1      45.627   4.305  13.050  0.00  0.00    +0.000 A 
ATOM      5  C   UNL     1      44.996   3.232  12.433  0.00  0.00    +0.000 A 
ATOM      6  N   UNL     1      44.664   3.193  11.122  0.00  0.00    +0.000 NA
ENDROOT
BRANCH   1   7
ATOM      7  C   UNL     1      44.614   4.228   8.905  0.00  0.00    +0.000 C 
BRANCH   7   8
ATOM      8  N   UNL     1      45.703   4.696   8.042  0.00  0.00    +0.000 NA
ATOM      9  H   UNL     1      46.511   4.093   8.184  0.00  0.00    +0.000 HD
ATOM     10  H   UNL     1      45.982   5.620   8.373  0.00  0.00    +0.000 HD
ENDBRANCH   7   8
ENDBRANCH   1   7
BRANCH   4  11
ATOM     11  O   UNL     1      45.936   4.403  14.377  0.00  0.00    +0.000 OA
BRANCH  11  12
ATOM     12  C   UNL     1      47.216   4.979  14.653  0.00  0.00    +0.000 C 
BRANCH  12  13
ATOM     13  C   UNL     1      47.689   4.615  16.024  0.00  0.00    +0.000 A 
ATOM     14  C   UNL     1      47.343   3.447  16.672  0.00  0.00    +0.000 A 
ATOM     15  N   UNL     1      47.833   3.082  17.873  0.00  0.00    +0.000 NA
ATOM     16  C   UNL     1      48.711   3.931  18.426  0.00  0.00    +0.000 A 
ATOM     17  N   UNL     1      49.132   5.088  17.894  0.00  0.00    +0.000 NA
ATOM     18  C   UNL     1      48.606   5.399  16.695  0.00  0.00    +0.000 A 
ENDBRANCH  12  13
ENDBRANCH  11  12
ENDBRANCH   4  11
TORSDOF 5
ENDMDL
MODEL 9
REMARK VINA RESULT:    -4.850      3.838      5.587
REMARK INTER + INTRA:          -6.426
REMARK INTER:                  -6.133
REMARK INTRA:                  -0.293
REMARK UNBOUND:                -0.300
REMARK  Name = 
REMARK  5 active torsions:
REMARK  status: ('A' for Active; 'I' for Inactive)
REMARK    1  A    between atoms: N_1  and  C_2
REMARK    2  A    between atoms: C_2  and  C_3
REMARK    3  A    between atoms: C_6  and  O_7
REMARK    4  A    between atoms: O_7  and  C_8
REMARK    5  A    between atoms: C_8  and  C_9
REMARK                            x       y       z     vdW  Elec       q    Type
REMARK                         _______ _______ _______ _____ _____    ______ ____
ROOT
ATOM      1  C   UNL     1      44.688   4.011  11.442  0.00  0.00    +0.000 A 
ATOM      2  C   UNL     1      45.040   5.164  10.741  0.00  0.00    +0.000 A 
ATOM      3  C   UNL     1      45.716   6.183  11.411  0.00  0.00    +0.000 A 
ATOM      4  C   UNL     1      46.009   6.037  12.761  0.00  0.00    +0.000 A 
ATOM      5  C   UNL     1      45.655   4.840  13.371  0.00  0.00    +0.000 A 
ATOM      6  N   UNL     1      45.001   3.832  12.748  0.00  0.00    +0.000 NA
ENDROOT
BRANCH   1   7
ATOM      7  C   UNL     1      43.960   2.882  10.749  0.00  0.00    +0.000 C 
BRANCH   7   8
ATOM      8  N   UNL     1      43.013   2.202  11.638  0.00  0.00    +0.000 NA
ATOM      9  H   UNL     1      42.823   2.809  12.434  0.00  0.00    +0.000 HD
ATOM     10  H   UNL     1      43.485   1.381  12.020  0.00  0.00    +0.000 HD
ENDBRANCH   7   8
ENDBRANCH   1   7
BRANCH   4  11
ATOM     11  O   UNL     1      46.627   7.097  13.365  0.00  0.00    +0.000 OA
BRANCH  11  12
ATOM     12  C   UNL     1      47.961   7.348  12.915  0.00  0.00    +0.000 C 
BRANCH  12  13
ATOM     13  C   UNL     1      48.952   7.130  14.012  0.00  0.00    +0.000 A 
ATOM     14  C   UNL     1      50.173   7.770  14.086  0.00  0.00    +0.000 A 
ATOM     15  N   UNL     1      51.030   7.635  15.116  0.00  0.00    +0.000 NA
ATOM     16  C   UNL     1      50.626   6.829  16.108  0.00  0.00    +0.000 A 
ATOM     17  N   UNL     1      49.465   6.161  16.157  0.00  0.00    +0.000 NA
ATOM     18  C   UNL     1      48.651   6.334  15.100  0.00  0.00    +0.000 A 
ENDBRANCH  12  13
ENDBRANCH  11  12
ENDBRANCH   4  11
TORSDOF 5
ENDMDL
