MODEL 1
REMARK VINA RESULT:    -8.997      0.000      0.000
REMARK INTER + INTRA:         -12.949
REMARK INTER:                 -12.152
REMARK INTRA:                  -0.797
REMARK UNBOUND:                -0.797
REMARK  Name = 
REMARK  6 active torsions:
REMARK  status: ('A' for Active; 'I' for Inactive)
REMARK    1  A    between atoms: C_2  and  C_4
REMARK    2  A    between atoms: N_8  and  C_9
REMARK    3  A    between atoms: C_9  and  C_10
REMARK    4  A    between atoms: C_10  and  C_13
REMARK    5  A    between atoms: C_16  and  O_17
REMARK    6  A    between atoms: O_17  and  C_18
REMARK                            x       y       z     vdW  Elec       q    Type
REMARK                         _______ _______ _______ _____ _____    ______ ____
ROOT
ATOM      1  C   UNL     1      43.417   5.634  12.139  0.00  0.00    +0.000 C 
ATOM      2  F   UNL     1      43.020   6.759  11.466  0.00  0.00    +0.000 F 
ATOM      3  F   UNL     1      42.528   5.504  13.169  0.00  0.00    +0.000 F 
ENDROOT
BRANCH   1   4
ATOM      4  C   UNL     1      44.842   5.759  12.651  0.00  0.00    +0.000 A 
ATOM      5  C   UNL     1      45.512   4.651  13.192  0.00  0.00    +0.000 A 
ATOM      6  C   UNL     1      46.832   4.761  13.647  0.00  0.00    +0.000 A 
ATOM      7  C   UNL     1      47.497   5.982  13.570  0.00  0.00    +0.000 A 
ATOM      8  C   UNL     1      46.835   7.094  13.048  0.00  0.00    +0.000 A 
ATOM      9  C   UNL     1      45.520   6.986  12.586  0.00  0.00    +0.000 A 
BRANCH   7  10
ATOM     10  O   UNL     1      48.770   6.211  14.029  0.00  0.00    +0.000 OA
BRANCH  10  11
ATOM     11  C   UNL     1      48.952   6.804  15.337  0.00  0.00    +0.000 C 
ATOM     12  C   UNL     1      50.420   6.970  15.780  0.00  0.00    +0.000 C 
ATOM     13  N   UNL     1      50.117   6.342  17.075  0.00  0.00    +0.000 NA
ATOM     14  C   UNL     1      48.815   5.881  16.565  0.00  0.00    +0.000 C 
ATOM     15  H   UNL     1      50.053   7.000  17.851  0.00  0.00    +0.000 HD
ENDBRANCH  10  11
ENDBRANCH   7  10
ENDBRANCH   1   4
BRANCH   1  16
ATOM     16  C   UNL     1      43.254   4.423  11.180  0.00  0.00    +0.000 C 
BRANCH  16  21
ATOM     17  C   UNL     1      46.480   2.498   7.693  0.00  0.00    +0.000 A 
ATOM     18  C   UNL     1      45.652   1.831   8.588  0.00  0.00    +0.000 A 
ATOM     19  C   UNL     1      44.729   2.562   9.339  0.00  0.00    +0.000 A 
ATOM     20  C   UNL     1      44.658   3.943   9.192  0.00  0.00    +0.000 A 
ATOM     21  N   UNL     1      43.708   4.724   9.815  0.00  0.00    +0.000 N 
ATOM     22  N   UNL     1      45.479   4.603   8.353  0.00  0.00    +0.000 NA
ATOM     23  C   UNL     1      46.374   3.879   7.627  0.00  0.00    +0.000 A 
ATOM     24  H   UNL     1      43.931   5.704   9.636  0.00  0.00    +0.000 HD
BRANCH  17  26
ATOM     25  N   UNL     1      48.535   2.524   6.398  0.00  0.00    +0.000 N 
ATOM     26  C   UNL     1      47.451   1.806   6.823  0.00  0.00    +0.000 C 
ATOM     27  O   UNL     1      47.317   0.625   6.523  0.00  0.00    +0.000 OA
ATOM     28  H   UNL     1      49.249   2.005   5.903  0.00  0.00    +0.000 HD
ATOM     29  H   UNL     1      48.814   3.391   6.836  0.00  0.00    +0.000 HD
ENDBRANCH  17  26
ENDBRANCH  16  21
ENDBRANCH   1  16
TORSDOF 6
ENDMDL
MODEL 2
REMARK VINA RESULT:    -8.735      1.390      1.835
REMARK INTER + INTRA:         -12.595
REMARK INTER:                 -11.819
REMARK INTRA:                  -0.776
REMARK UNBOUND:                -0.797
REMARK  Name = 
REMARK  6 active torsions:
REMARK  status: ('A' for Active; 'I' for Inactive)
REMARK    1  A    between atoms: C_2  and  C_4
REMARK    2  A    between atoms: N_8  and  C_9
REMARK    3  A    between atoms: C_9  and  C_10
REMARK    4  A    between atoms: C_10  and  C_13
REMARK    5  A    between atoms: C_16  and  O_17
REMARK    6  A    between atoms: O_17  and  C_18
REMARK                            x       y       z     vdW  Elec       q    Type
REMARK                         _______ _______ _______ _____ _____    ______ ____
ROOT
ATOM      1  C   UNL     1      43.355   5.384  12.201  0.00  0.00    +0.000 C 
ATOM      2  F   UNL     1      42.735   6.472  11.647  0.00  0.00    +0.000 F 
ATOM      3  F   UNL     1      42.566   5.026  13.259  0.00  0.00    +0.000 F 
ENDROOT
BRANCH   1   4
ATOM      4  C   UNL     1      44.768   5.711  12.651  0.00  0.00    +0.000 A 
ATOM      5  C   UNL     1      45.284   7.009  12.519  0.00  0.00    +0.000 A 
ATOM      6  C   UNL     1      46.581   7.315  12.951  0.00  0.00    +0.000 A 
ATOM      7  C   UNL     1      47.379   6.325  13.518  0.00  0.00    +0.000 A 
ATOM      8  C   UNL     1      46.883   5.027  13.640  0.00  0.00    +0.000 A 
ATOM      9  C   UNL     1      45.585   4.719  13.216  0.00  0.00    +0.000 A 
BRANCH   7  10
ATOM     10  O   UNL     1      48.677   6.505  13.929  0.00  0.00    +0.000 OA
BRANCH  10  11
ATOM     11  C   UNL     1      49.392   7.691  13.507  0.00  0.00    +0.000 C 
ATOM     12  C   UNL     1      50.053   7.593  12.117  0.00  0.00    +0.000 C 
ATOM     13  N   UNL     1      51.322   8.092  12.669  0.00  0.00    +0.000 NA
ATOM     14  C   UNL     1      50.826   7.887  14.039  0.00  0.00    +0.000 C 
ATOM     15  H   UNL     1      51.522   9.065  12.437  0.00  0.00    +0.000 HD
ENDBRANCH  10  11
ENDBRANCH   7  10
ENDBRANCH   1   4
BRANCH   1  16
ATOM     16  C   UNL     1      43.335   4.238  11.152  0.00  0.00    +0.000 C 
BRANCH  16  21
ATOM     17  C   UNL     1      46.611   2.764   7.496  0.00  0.00    +0.000 A 
ATOM     18  C   UNL     1      45.803   1.987   8.318  0.00  0.00    +0.000 A 
ATOM     19  C   UNL     1      44.860   2.613   9.137  0.00  0.00    +0.000 A 
ATOM     20  C   UNL     1      44.751   3.999   9.129  0.00  0.00    +0.000 A 
ATOM     21  N   UNL     1      43.779   4.687   9.825  0.00  0.00    +0.000 N 
ATOM     22  N   UNL     1      45.552   4.763   8.361  0.00  0.00    +0.000 NA
ATOM     23  C   UNL     1      46.466   4.140   7.568  0.00  0.00    +0.000 A 
ATOM     24  H   UNL     1      43.975   5.686   9.746  0.00  0.00    +0.000 HD
BRANCH  17  26
ATOM     25  N   UNL     1      47.848   2.880   5.408  0.00  0.00    +0.000 N 
ATOM     26  C   UNL     1      47.601   2.189   6.562  0.00  0.00    +0.000 C 
ATOM     27  O   UNL     1      48.207   1.157   6.825  0.00  0.00    +0.000 OA
ATOM     28  H   UNL     1      48.610   2.538   4.837  0.00  0.00    +0.000 HD
ATOM     29  H   UNL     1      47.579   3.847   5.289  0.00  0.00    +0.000 HD
ENDBRANCH  17  26
ENDBRANCH  16  21
ENDBRANCH   1  16
TORSDOF 6
ENDMDL
MODEL 3
REMARK VINA RESULT:    -8.084      2.546      7.027
REMARK INTER + INTRA:         -11.716
REMARK INTER:                 -10.809
REMARK INTRA:                  -0.906
REMARK UNBOUND:                -0.797
REMARK  Name = 
REMARK  6 active torsions:
REMARK  status: ('A' for Active; 'I' for Inactive)
REMARK    1  A    between atoms: C_2  and  C_4
REMARK    2  A    between atoms: N_8  and  C_9
REMARK    3  A    between atoms: C_9  and  C_10
REMARK    4  A    between atoms: C_10  and  C_13
REMARK    5  A    between atoms: C_16  and  O_17
REMARK    6  A    between atoms: O_17  and  C_18
REMARK                            x       y       z     vdW  Elec       q    Type
REMARK                         _______ _______ _______ _____ _____    ______ ____
ROOT
ATOM      1  C   UNL     1      44.062   4.388  12.333  0.00  0.00    +0.000 C 
ATOM      2  F   UNL     1      44.643   3.552  13.249  0.00  0.00    +0.000 F 
ATOM      3  F   UNL     1      42.716   4.215  12.498  0.00  0.00    +0.000 F 
ENDROOT
BRANCH   1   4
ATOM      4  C   UNL     1      44.493   4.054  10.915  0.00  0.00    +0.000 A 
ATOM      5  C   UNL     1      44.219   2.797  10.356  0.00  0.00    +0.000 A 
ATOM      6  C   UNL     1      44.600   2.495   9.043  0.00  0.00    +0.000 A 
ATOM      7  C   UNL     1      45.263   3.447   8.272  0.00  0.00    +0.000 A 
ATOM      8  C   UNL     1      45.555   4.695   8.823  0.00  0.00    +0.000 A 
ATOM      9  C   UNL     1      45.170   5.002  10.132  0.00  0.00    +0.000 A 
BRANCH   7  10
ATOM     10  O   UNL     1      45.721   3.239   6.995  0.00  0.00    +0.000 OA
BRANCH  10  11
ATOM     11  C   UNL     1      47.142   3.065   6.776  0.00  0.00    +0.000 C 
ATOM     12  C   UNL     1      47.544   2.765   5.317  0.00  0.00    +0.000 C 
ATOM     13  N   UNL     1      48.365   1.629   5.762  0.00  0.00    +0.000 NA
ATOM     14  C   UNL     1      47.751   1.686   7.098  0.00  0.00    +0.000 C 
ATOM     15  H   UNL     1      49.368   1.813   5.754  0.00  0.00    +0.000 HD
ENDBRANCH  10  11
ENDBRANCH   7  10
ENDBRANCH   1   4
BRANCH   1  16
ATOM     16  C   UNL     1      44.430   5.847  12.718  0.00  0.00    +0.000 C 
BRANCH  16  21
ATOM     17  C   UNL     1      49.113   7.843  12.117  0.00  0.00    +0.000 A 
ATOM     18  C   UNL     1      47.880   8.363  11.740  0.00  0.00    +0.000 A 
ATOM     19  C   UNL     1      46.712   7.719  12.154  0.00  0.00    +0.000 A 
ATOM     20  C   UNL     1      46.797   6.563  12.923  0.00  0.00    +0.000 A 
ATOM     21  N   UNL     1      45.697   5.928  13.460  0.00  0.00    +0.000 N 
ATOM     22  N   UNL     1      47.987   6.032  13.265  0.00  0.00    +0.000 NA
ATOM     23  C   UNL     1      49.117   6.670  12.855  0.00  0.00    +0.000 A 
ATOM     24  H   UNL     1      46.008   5.054  13.887  0.00  0.00    +0.000 HD
BRANCH  17  26
ATOM     25  N   UNL     1      51.469   7.657  11.552  0.00  0.00    +0.000 N 
ATOM     26  C   UNL     1      50.398   8.481  11.768  0.00  0.00    +0.000 C 
ATOM     27  O   UNL     1      50.497   9.696  11.637  0.00  0.00    +0.000 OA
ATOM     28  H   UNL     1      52.308   8.098  11.199  0.00  0.00    +0.000 HD
ATOM     29  H   UNL     1      51.362   6.666  11.385  0.00  0.00    +0.000 HD
ENDBRANCH  17  26
ENDBRANCH  16  21
ENDBRANCH   1  16
TORSDOF 6
ENDMDL
MODEL 4
REMARK VINA RESULT:    -7.947      2.185      2.632
REMARK INTER + INTRA:         -11.531
REMARK INTER:                 -10.781
REMARK INTRA:                  -0.750
REMARK UNBOUND:                -0.797
REMARK  Name = 
REMARK  6 active torsions:
REMARK  status: ('A' for Active; 'I' for Inactive)
REMARK    1  A    between atoms: C_2  and  C_4
REMARK    2  A    between atoms: N_8  and  C_9
REMARK    3  A    between atoms: C_9  and  C_10
REMARK    4  A    between atoms: C_10  and  C_13
REMARK    5  A    between atoms: C_16  and  O_17
REMARK    6  A    between atoms: O_17  and  C_18
REMARK                            x       y       z     vdW  Elec       q    Type
REMARK                         _______ _______ _______ _____ _____    ______ ____
ROOT
ATOM      1  C   UNL     1      44.448   4.625  12.300  0.00  0.00    +0.000 C 
ATOM      2  F   UNL     1      43.823   4.472  13.509  0.00  0.00    +0.000 F 
ATOM      3  F   UNL     1      45.254   3.528  12.176  0.00  0.00    +0.000 F 
ENDROOT
BRANCH   1   4
ATOM      4  C   UNL     1      45.252   5.912  12.242  0.00  0.00    +0.000 A 
ATOM      5  C   UNL     1      44.661   7.145  12.554  0.00  0.00    +0.000 A 
ATOM      6  C   UNL     1      45.408   8.330  12.519  0.00  0.00    +0.000 A 
ATOM      7  C   UNL     1      46.755   8.296  12.167  0.00  0.00    +0.000 A 
ATOM      8  C   UNL     1      47.349   7.077  11.839  0.00  0.00    +0.000 A 
ATOM      9  C   UNL     1      46.608   5.891  11.880  0.00  0.00    +0.000 A 
BRANCH   7  10
ATOM     10  O   UNL     1      47.563   9.400  12.055  0.00  0.00    +0.000 OA
BRANCH  10  11
ATOM     11  C   UNL     1      48.826   9.423  12.761  0.00  0.00    +0.000 C 
ATOM     12  C   UNL     1      48.744   9.891  14.229  0.00  0.00    +0.000 C 
ATOM     13  N   UNL     1      49.853  10.832  14.007  0.00  0.00    +0.000 NA
ATOM     14  C   UNL     1      49.739  10.649  12.551  0.00  0.00    +0.000 C 
ATOM     15  H   UNL     1      50.742  10.525  14.400  0.00  0.00    +0.000 HD
ENDBRANCH  10  11
ENDBRANCH   7  10
ENDBRANCH   1   4
BRANCH   1  16
ATOM     16  C   UNL     1      43.361   4.575  11.192  0.00  0.00    +0.000 C 
BRANCH  16  21
ATOM     17  C   UNL     1      46.473   2.510   7.680  0.00  0.00    +0.000 A 
ATOM     18  C   UNL     1      45.539   1.889   8.503  0.00  0.00    +0.000 A 
ATOM     19  C   UNL     1      44.679   2.674   9.273  0.00  0.00    +0.000 A 
ATOM     20  C   UNL     1      44.775   4.061   9.219  0.00  0.00    +0.000 A 
ATOM     21  N   UNL     1      43.898   4.907   9.864  0.00  0.00    +0.000 N 
ATOM     22  N   UNL     1      45.699   4.672   8.452  0.00  0.00    +0.000 NA
ATOM     23  C   UNL     1      46.530   3.895   7.706  0.00  0.00    +0.000 A 
ATOM     24  H   UNL     1      44.241   5.863   9.760  0.00  0.00    +0.000 HD
BRANCH  17  26
ATOM     25  N   UNL     1      48.479   2.437   6.312  0.00  0.00    +0.000 N 
ATOM     26  C   UNL     1      47.389   1.765   6.794  0.00  0.00    +0.000 C 
ATOM     27  O   UNL     1      47.208   0.582   6.532  0.00  0.00    +0.000 OA
ATOM     28  H   UNL     1      49.157   1.884   5.806  0.00  0.00    +0.000 HD
ATOM     29  H   UNL     1      48.800   3.306   6.717  0.00  0.00    +0.000 HD
ENDBRANCH  17  26
ENDBRANCH  16  21
ENDBRANCH   1  16
TORSDOF 6
ENDMDL
MODEL 5
REMARK VINA RESULT:    -7.915      2.406      8.130
REMARK INTER + INTRA:         -11.487
REMARK INTER:                 -10.936
REMARK INTRA:                  -0.551
REMARK UNBOUND:                -0.797
REMARK  Name = 
REMARK  6 active torsions:
REMARK  status: ('A' for Active; 'I' for Inactive)
REMARK    1  A    between atoms: C_2  and  C_4
REMARK    2  A    between atoms: N_8  and  C_9
REMARK    3  A    between atoms: C_9  and  C_10
REMARK    4  A    between atoms: C_10  and  C_13
REMARK    5  A    between atoms: C_16  and  O_17
REMARK    6  A    between atoms: O_17  and  C_18
REMARK                            x       y       z     vdW  Elec       q    Type
REMARK                         _______ _______ _______ _____ _____    ______ ____
ROOT
ATOM      1  C   UNL     1      44.718   5.046  12.582  0.00  0.00    +0.000 C 
ATOM      2  F   UNL     1      43.893   4.222  13.300  0.00  0.00    +0.000 F 
ATOM      3  F   UNL     1      44.074   6.252  12.547  0.00  0.00    +0.000 F 
ENDROOT
BRANCH   1   4
ATOM      4  C   UNL     1      44.966   4.511  11.182  0.00  0.00    +0.000 A 
ATOM      5  C   UNL     1      44.697   3.172  10.865  0.00  0.00    +0.000 A 
ATOM      6  C   UNL     1      44.908   2.683   9.569  0.00  0.00    +0.000 A 
ATOM      7  C   UNL     1      45.395   3.528   8.575  0.00  0.00    +0.000 A 
ATOM      8  C   UNL     1      45.682   4.858   8.884  0.00  0.00    +0.000 A 
ATOM      9  C   UNL     1      45.465   5.351  10.175  0.00  0.00    +0.000 A 
BRANCH   7  10
ATOM     10  O   UNL     1      45.683   3.141   7.290  0.00  0.00    +0.000 OA
BRANCH  10  11
ATOM     11  C   UNL     1      47.063   3.110   6.855  0.00  0.00    +0.000 C 
ATOM     12  C   UNL     1      47.266   2.866   5.345  0.00  0.00    +0.000 C 
ATOM     13  N   UNL     1      48.251   1.812   5.633  0.00  0.00    +0.000 NA
ATOM     14  C   UNL     1      47.843   1.794   7.047  0.00  0.00    +0.000 C 
ATOM     15  H   UNL     1      49.218   2.094   5.479  0.00  0.00    +0.000 HD
ENDBRANCH  10  11
ENDBRANCH   7  10
ENDBRANCH   1   4
BRANCH   1  16
ATOM     16  C   UNL     1      46.041   5.208  13.379  0.00  0.00    +0.000 C 
BRANCH  16  21
ATOM     17  C   UNL     1      49.199   4.242  17.299  0.00  0.00    +0.000 A 
ATOM     18  C   UNL     1      48.966   5.440  16.632  0.00  0.00    +0.000 A 
ATOM     19  C   UNL     1      47.934   5.508  15.694  0.00  0.00    +0.000 A 
ATOM     20  C   UNL     1      47.164   4.380  15.431  0.00  0.00    +0.000 A 
ATOM     21  N   UNL     1      46.063   4.391  14.601  0.00  0.00    +0.000 N 
ATOM     22  N   UNL     1      47.403   3.206  16.047  0.00  0.00    +0.000 NA
ATOM     23  C   UNL     1      48.412   3.153  16.959  0.00  0.00    +0.000 A 
ATOM     24  H   UNL     1      45.738   3.430  14.487  0.00  0.00    +0.000 HD
BRANCH  17  26
ATOM     25  N   UNL     1      49.858   4.310  19.637  0.00  0.00    +0.000 N 
ATOM     26  C   UNL     1      50.235   4.088  18.341  0.00  0.00    +0.000 C 
ATOM     27  O   UNL     1      51.376   3.736  18.064  0.00  0.00    +0.000 OA
ATOM     28  H   UNL     1      50.543   4.087  20.346  0.00  0.00    +0.000 HD
ATOM     29  H   UNL     1      48.888   4.331  19.921  0.00  0.00    +0.000 HD
ENDBRANCH  17  26
ENDBRANCH  16  21
ENDBRANCH   1  16
TORSDOF 6
ENDMDL
MODEL 6
REMARK VINA RESULT:    -7.540      1.506      2.111
REMARK INTER + INTRA:         -10.981
REMARK INTER:                 -10.610
REMARK INTRA:                  -0.371
REMARK UNBOUND:                -0.797
REMARK  Name = 
REMARK  6 active torsions:
REMARK  status: ('A' for Active; 'I' for Inactive)
REMARK    1  A    between atoms: C_2  and  C_4
REMARK    2  A    between atoms: N_8  and  C_9
REMARK    3  A    between atoms: C_9  and  C_10
REMARK    4  A    between atoms: C_10  and  C_13
REMARK    5  A    between atoms: C_16  and  O_17
REMARK    6  A    between atoms: O_17  and  C_18
REMARK                            x       y       z     vdW  Elec       q    Type
REMARK                         _______ _______ _______ _____ _____    ______ ____
ROOT
ATOM      1  C   UNL     1      44.978   6.318  11.931  0.00  0.00    +0.000 C 
ATOM      2  F   UNL     1      45.586   7.043  10.942  0.00  0.00    +0.000 F 
ATOM      3  F   UNL     1      44.044   7.161  12.466  0.00  0.00    +0.000 F 
ENDROOT
BRANCH   1   4
ATOM      4  C   UNL     1      45.972   5.856  12.982  0.00  0.00    +0.000 A 
ATOM      5  C   UNL     1      46.938   6.735  13.496  0.00  0.00    +0.000 A 
ATOM      6  C   UNL     1      47.843   6.315  14.479  0.00  0.00    +0.000 A 
ATOM      7  C   UNL     1      47.796   5.008  14.958  0.00  0.00    +0.000 A 
ATOM      8  C   UNL     1      46.851   4.120  14.442  0.00  0.00    +0.000 A 
ATOM      9  C   UNL     1      45.941   4.539  13.466  0.00  0.00    +0.000 A 
BRANCH   7  10
ATOM     10  O   UNL     1      48.664   4.481  15.881  0.00  0.00    +0.000 OA
BRANCH  10  11
ATOM     11  C   UNL     1      48.236   4.353  17.258  0.00  0.00    +0.000 C 
ATOM     12  C   UNL     1      46.723   4.124  17.452  0.00  0.00    +0.000 C 
ATOM     13  N   UNL     1      46.674   5.197  18.457  0.00  0.00    +0.000 NA
ATOM     14  C   UNL     1      48.017   5.651  18.062  0.00  0.00    +0.000 C 
ATOM     15  H   UNL     1      46.610   4.864  19.418  0.00  0.00    +0.000 HD
ENDBRANCH  10  11
ENDBRANCH   7  10
ENDBRANCH   1   4
BRANCH   1  16
ATOM     16  C   UNL     1      44.247   5.120  11.265  0.00  0.00    +0.000 C 
BRANCH  16  21
ATOM     17  C   UNL     1      46.555   2.389   7.592  0.00  0.00    +0.000 A 
ATOM     18  C   UNL     1      45.949   1.951   8.765  0.00  0.00    +0.000 A 
ATOM     19  C   UNL     1      45.234   2.862   9.544  0.00  0.00    +0.000 A 
ATOM     20  C   UNL     1      45.147   4.193   9.147  0.00  0.00    +0.000 A 
ATOM     21  N   UNL     1      44.376   5.130   9.800  0.00  0.00    +0.000 N 
ATOM     22  N   UNL     1      45.759   4.634   8.031  0.00  0.00    +0.000 NA
ATOM     23  C   UNL     1      46.453   3.735   7.280  0.00  0.00    +0.000 A 
ATOM     24  H   UNL     1      44.564   6.044   9.386  0.00  0.00    +0.000 HD
BRANCH  17  26
ATOM     25  N   UNL     1      48.356   2.017   6.004  0.00  0.00    +0.000 N 
ATOM     26  C   UNL     1      47.290   1.489   6.680  0.00  0.00    +0.000 C 
ATOM     27  O   UNL     1      46.986   0.308   6.561  0.00  0.00    +0.000 OA
ATOM     28  H   UNL     1      48.919   1.363   5.477  0.00  0.00    +0.000 HD
ATOM     29  H   UNL     1      48.792   2.887   6.279  0.00  0.00    +0.000 HD
ENDBRANCH  17  26
ENDBRANCH  16  21
ENDBRANCH   1  16
TORSDOF 6
ENDMDL
MODEL 7
REMARK VINA RESULT:    -6.719      4.916      6.714
REMARK INTER + INTRA:          -9.872
REMARK INTER:                  -9.296
REMARK INTRA:                  -0.576
REMARK UNBOUND:                -0.797
REMARK  Name = 
REMARK  6 active torsions:
REMARK  status: ('A' for Active; 'I' for Inactive)
REMARK    1  A    between atoms: C_2  and  C_4
REMARK    2  A    between atoms: N_8  and  C_9
REMARK    3  A    between atoms: C_9  and  C_10
REMARK    4  A    between atoms: C_10  and  C_13
REMARK    5  A    between atoms: C_16  and  O_17
REMARK    6  A    between atoms: O_17  and  C_18
REMARK                            x       y       z     vdW  Elec       q    Type
REMARK                         _______ _______ _______ _____ _____    ______ ____
ROOT
ATOM      1  C   UNL     1      47.768   3.751  17.365  0.00  0.00    +0.000 C 
ATOM      2  F   UNL     1      47.426   4.565  18.412  0.00  0.00    +0.000 F 
ATOM      3  F   UNL     1      46.909   2.691  17.444  0.00  0.00    +0.000 F 
ENDROOT
BRANCH   1   4
ATOM      4  C   UNL     1      49.214   3.299  17.453  0.00  0.00    +0.000 A 
ATOM      5  C   UNL     1      50.210   4.162  17.936  0.00  0.00    +0.000 A 
ATOM      6  C   UNL     1      51.542   3.739  18.035  0.00  0.00    +0.000 A 
ATOM      7  C   UNL     1      51.895   2.449  17.649  0.00  0.00    +0.000 A 
ATOM      8  C   UNL     1      50.916   1.587  17.152  0.00  0.00    +0.000 A 
ATOM      9  C   UNL     1      49.584   2.004  17.058  0.00  0.00    +0.000 A 
BRANCH   7  10
ATOM     10  O   UNL     1      53.174   1.950  17.659  0.00  0.00    +0.000 OA
BRANCH  10  11
ATOM     11  C   UNL     1      53.374   0.521  17.548  0.00  0.00    +0.000 C 
ATOM     12  C   UNL     1      54.316  -0.090  18.606  0.00  0.00    +0.000 C 
ATOM     13  N   UNL     1      55.070  -0.789  17.554  0.00  0.00    +0.000 NA
ATOM     14  C   UNL     1      54.409   0.023  16.519  0.00  0.00    +0.000 C 
ATOM     15  H   UNL     1      54.872  -1.787  17.494  0.00  0.00    +0.000 HD
ENDBRANCH  10  11
ENDBRANCH   7  10
ENDBRANCH   1   4
BRANCH   1  16
ATOM     16  C   UNL     1      47.485   4.525  16.048  0.00  0.00    +0.000 C 
BRANCH  16  21
ATOM     17  C   UNL     1      45.326   4.646  11.400  0.00  0.00    +0.000 A 
ATOM     18  C   UNL     1      46.032   5.641  12.069  0.00  0.00    +0.000 A 
ATOM     19  C   UNL     1      46.677   5.331  13.267  0.00  0.00    +0.000 A 
ATOM     20  C   UNL     1      46.595   4.041  13.783  0.00  0.00    +0.000 A 
ATOM     21  N   UNL     1      47.287   3.627  14.901  0.00  0.00    +0.000 N 
ATOM     22  N   UNL     1      45.885   3.080  13.161  0.00  0.00    +0.000 NA
ATOM     23  C   UNL     1      45.262   3.395  11.993  0.00  0.00    +0.000 A 
ATOM     24  H   UNL     1      46.979   2.682  15.137  0.00  0.00    +0.000 HD
BRANCH  17  26
ATOM     25  N   UNL     1      45.450   5.115   9.020  0.00  0.00    +0.000 N 
ATOM     26  C   UNL     1      44.654   4.867  10.104  0.00  0.00    +0.000 C 
ATOM     27  O   UNL     1      43.435   4.793   9.992  0.00  0.00    +0.000 OA
ATOM     28  H   UNL     1      44.985   5.146   8.122  0.00  0.00    +0.000 HD
ATOM     29  H   UNL     1      46.441   4.915   9.021  0.00  0.00    +0.000 HD
ENDBRANCH  17  26
ENDBRANCH  16  21
ENDBRANCH   1  16
TORSDOF 6
ENDMDL
MODEL 8
REMARK VINA RESULT:    -6.584      3.927      7.596
REMARK INTER + INTRA:          -9.691
REMARK INTER:                  -8.877
REMARK INTRA:                  -0.814
REMARK UNBOUND:                -0.797
REMARK  Name = 
REMARK  6 active torsions:
REMARK  status: ('A' for Active; 'I' for Inactive)
REMARK    1  A    between atoms: C_2  and  C_4
REMARK    2  A    between atoms: N_8  and  C_9
REMARK    3  A    between atoms: C_9  and  C_10
REMARK    4  A    between atoms: C_10  and  C_13
REMARK    5  A    between atoms: C_16  and  O_17
REMARK    6  A    between atoms: O_17  and  C_18
REMARK                            x       y       z     vdW  Elec       q    Type
REMARK                         _______ _______ _______ _____ _____    ______ ____
ROOT
ATOM      1  C   UNL     1      48.506   7.876  12.305  0.00  0.00    +0.000 C 
ATOM      2  F   UNL     1      48.755   9.004  11.570  0.00  0.00    +0.000 F 
ATOM      3  F   UNL     1      49.505   7.005  11.969  0.00  0.00    +0.000 F 
ENDROOT
BRANCH   1   4
ATOM      4  C   UNL     1      47.138   7.294  11.994  0.00  0.00    +0.000 A 
ATOM      5  C   UNL     1      46.956   6.420  10.912  0.00  0.00    +0.000 A 
ATOM      6  C   UNL     1      45.698   5.868  10.637  0.00  0.00    +0.000 A 
ATOM      7  C   UNL     1      44.606   6.187  11.439  0.00  0.00    +0.000 A 
ATOM      8  C   UNL     1      44.771   7.069  12.508  0.00  0.00    +0.000 A 
ATOM      9  C   UNL     1      46.028   7.615  12.790  0.00  0.00    +0.000 A 
BRANCH   7  10
ATOM     10  O   UNL     1      43.324   5.743  11.230  0.00  0.00    +0.000 OA
BRANCH  10  11
ATOM     11  C   UNL     1      42.956   4.417  11.678  0.00  0.00    +0.000 C 
ATOM     12  C   UNL     1      43.586   3.983  13.018  0.00  0.00    +0.000 C 
ATOM     13  N   UNL     1      44.012   2.708  12.422  0.00  0.00    +0.000 NA
ATOM     14  C   UNL     1      43.719   3.220  11.074  0.00  0.00    +0.000 C 
ATOM     15  H   UNL     1      43.443   1.909  12.699  0.00  0.00    +0.000 HD
ENDBRANCH  10  11
ENDBRANCH   7  10
ENDBRANCH   1   4
BRANCH   1  16
ATOM     16  C   UNL     1      48.648   8.245  13.807  0.00  0.00    +0.000 C 
BRANCH  16  21
ATOM     17  C   UNL     1      48.054   4.276  16.997  0.00  0.00    +0.000 A 
ATOM     18  C   UNL     1      47.291   4.639  15.892  0.00  0.00    +0.000 A 
ATOM     19  C   UNL     1      47.736   5.672  15.065  0.00  0.00    +0.000 A 
ATOM     20  C   UNL     1      48.925   6.331  15.362  0.00  0.00    +0.000 A 
ATOM     21  N   UNL     1      49.486   7.287  14.542  0.00  0.00    +0.000 N 
ATOM     22  N   UNL     1      49.654   6.010  16.448  0.00  0.00    +0.000 NA
ATOM     23  C   UNL     1      49.209   5.001  17.246  0.00  0.00    +0.000 A 
ATOM     24  H   UNL     1      50.289   7.693  15.026  0.00  0.00    +0.000 HD
BRANCH  17  26
ATOM     25  N   UNL     1      48.437   3.009  19.034  0.00  0.00    +0.000 N 
ATOM     26  C   UNL     1      47.689   3.165  17.899  0.00  0.00    +0.000 C 
ATOM     27  O   UNL     1      46.732   2.436  17.665  0.00  0.00    +0.000 OA
ATOM     28  H   UNL     1      48.103   2.322  19.698  0.00  0.00    +0.000 HD
ATOM     29  H   UNL     1      49.041   3.738  19.387  0.00  0.00    +0.000 HD
ENDBRANCH  17  26
ENDBRANCH  16  21
ENDBRANCH   1  16
TORSDOF 6
ENDMDL
MODEL 9
REMARK VINA RESULT:    -6.202      3.699      8.383
REMARK INTER + INTRA:          -9.174
REMARK INTER:                  -8.422
REMARK INTRA:                  -0.753
REMARK UNBOUND:                -0.797
REMARK  Name = 
REMARK  6 active torsions:
REMARK  status: ('A' for Active; 'I' for Inactive)
REMARK    1  A    between atoms: C_2  and  C_4
REMARK    2  A    between atoms: N_8  and  C_9
REMARK    3  A    between atoms: C_9  and  C_10
REMARK    4  A    between atoms: C_10  and  C_13
REMARK    5  A    between atoms: C_16  and  O_17
REMARK    6  A    between atoms: O_17  and  C_18
REMARK                            x       y       z     vdW  Elec       q    Type
REMARK                         _______ _______ _______ _____ _____    ______ ____
ROOT
ATOM      1  C   UNL     1      48.686   7.534  12.501  0.00  0.00    +0.000 C 
ATOM      2  F   UNL     1      48.705   8.520  11.551  0.00  0.00    +0.000 F 
ATOM      3  F   UNL     1      49.631   6.632  12.095  0.00  0.00    +0.000 F 
ENDROOT
BRANCH   1   4
ATOM      4  C   UNL     1      47.317   6.887  12.613  0.00  0.00    +0.000 A 
ATOM      5  C   UNL     1      47.185   5.538  12.977  0.00  0.00    +0.000 A 
ATOM      6  C   UNL     1      45.922   4.946  13.099  0.00  0.00    +0.000 A 
ATOM      7  C   UNL     1      44.773   5.695  12.854  0.00  0.00    +0.000 A 
ATOM      8  C   UNL     1      44.893   7.033  12.475  0.00  0.00    +0.000 A 
ATOM      9  C   UNL     1      46.153   7.629  12.360  0.00  0.00    +0.000 A 
BRANCH   7  10
ATOM     10  O   UNL     1      43.493   5.203  12.897  0.00  0.00    +0.000 OA
BRANCH  10  11
ATOM     11  C   UNL     1      42.971   4.495  11.747  0.00  0.00    +0.000 C 
ATOM     12  C   UNL     1      43.335   2.997  11.683  0.00  0.00    +0.000 C 
ATOM     13  N   UNL     1      43.775   3.149  10.288  0.00  0.00    +0.000 NA
ATOM     14  C   UNL     1      43.748   4.614  10.421  0.00  0.00    +0.000 C 
ATOM     15  H   UNL     1      43.118   2.778   9.602  0.00  0.00    +0.000 HD
ENDBRANCH  10  11
ENDBRANCH   7  10
ENDBRANCH   1   4
BRANCH   1  16
ATOM     16  C   UNL     1      49.139   8.161  13.848  0.00  0.00    +0.000 C 
BRANCH  16  21
ATOM     17  C   UNL     1      49.521   5.344  18.113  0.00  0.00    +0.000 A 
ATOM     18  C   UNL     1      48.442   5.488  17.248  0.00  0.00    +0.000 A 
ATOM     19  C   UNL     1      48.617   6.183  16.050  0.00  0.00    +0.000 A 
ATOM     20  C   UNL     1      49.858   6.731  15.744  0.00  0.00    +0.000 A 
ATOM     21  N   UNL     1      50.143   7.339  14.539  0.00  0.00    +0.000 N 
ATOM     22  N   UNL     1      50.900   6.627  16.591  0.00  0.00    +0.000 NA
ATOM     23  C   UNL     1      50.716   5.946  17.755  0.00  0.00    +0.000 A 
ATOM     24  H   UNL     1      51.075   7.750  14.600  0.00  0.00    +0.000 HD
BRANCH  17  26
ATOM     25  N   UNL     1      48.533   3.566  19.443  0.00  0.00    +0.000 N 
ATOM     26  C   UNL     1      49.444   4.585  19.378  0.00  0.00    +0.000 C 
ATOM     27  O   UNL     1      50.190   4.829  20.319  0.00  0.00    +0.000 OA
ATOM     28  H   UNL     1      48.574   2.982  20.268  0.00  0.00    +0.000 HD
ATOM     29  H   UNL     1      48.107   3.170  18.617  0.00  0.00    +0.000 HD
ENDBRANCH  17  26
ENDBRANCH  16  21
ENDBRANCH   1  16
TORSDOF 6
ENDMDL
