MODEL 1
REMARK VINA RESULT:    -8.369      0.000      0.000
REMARK INTER + INTRA:         -12.079
REMARK INTER:                 -11.304
REMARK INTRA:                  -0.774
REMARK UNBOUND:                -0.774
REMARK  Name = 
REMARK  7 active torsions:
REMARK  status: ('A' for Active; 'I' for Inactive)
REMARK    1  A    between atoms: C_1  and  C_2
REMARK    2  A    between atoms: C_4  and  C_5
REMARK    3  A    between atoms: C_10  and  N_11
REMARK    4  A    between atoms: N_11  and  C_12
REMARK    5  A    between atoms: C_12  and  C_13
REMARK    6  A    between atoms: C_16  and  O_17
REMARK    7  A    between atoms: O_17  and  C_18
REMARK                            x       y       z     vdW  Elec       q    Type
REMARK                         _______ _______ _______ _____ _____    ______ ____
ROOT
ATOM      1  N   UNL     1      43.854   4.828   9.834  0.00  0.00    +0.000 N 
ATOM      2  H   UNL     1      42.936   4.816   9.411  0.00  0.00    +0.000 HD
ENDROOT
BRANCH   1   9
ATOM      3  C   UNL     1      43.953   1.931  10.077  0.00  0.00    +0.000 C 
ATOM      4  C   UNL     1      44.889   2.719   9.207  0.00  0.00    +0.000 A 
ATOM      5  C   UNL     1      45.852   2.019   8.459  0.00  0.00    +0.000 A 
ATOM      6  C   UNL     1      46.705   2.693   7.589  0.00  0.00    +0.000 A 
ATOM      7  C   UNL     1      46.537   4.062   7.498  0.00  0.00    +0.000 A 
ATOM      8  N   UNL     1      45.627   4.776   8.220  0.00  0.00    +0.000 NA
ATOM      9  C   UNL     1      44.823   4.118   9.090  0.00  0.00    +0.000 A 
BRANCH   6  10
ATOM     10  C   UNL     1      47.716   1.905   6.839  0.00  0.00    +0.000 C 
ATOM     11  N   UNL     1      48.668   2.555   6.106  0.00  0.00    +0.000 N 
ATOM     12  O   UNL     1      47.717   0.679   6.875  0.00  0.00    +0.000 OA
ATOM     13  H   UNL     1      48.773   3.552   6.013  0.00  0.00    +0.000 HD
ATOM     14  H   UNL     1      49.344   1.966   5.633  0.00  0.00    +0.000 HD
ENDBRANCH   6  10
ENDBRANCH   1   9
BRANCH   1  15
ATOM     15  C   UNL     1      43.909   4.947  11.302  0.00  0.00    +0.000 C 
ATOM     16  C   UNL     1      42.971   4.145  12.187  0.00  0.00    +0.000 C 
ATOM     17  C   UNL     1      42.746   5.611  12.041  0.00  0.00    +0.000 C 
BRANCH  15  18
ATOM     18  C   UNL     1      45.287   5.342  11.812  0.00  0.00    +0.000 A 
ATOM     19  C   UNL     1      45.951   6.484  11.317  0.00  0.00    +0.000 A 
ATOM     20  C   UNL     1      47.195   6.889  11.825  0.00  0.00    +0.000 A 
ATOM     21  C   UNL     1      47.783   6.176  12.859  0.00  0.00    +0.000 A 
ATOM     22  C   UNL     1      47.174   5.006  13.314  0.00  0.00    +0.000 A 
ATOM     23  C   UNL     1      45.944   4.593  12.794  0.00  0.00    +0.000 A 
BRANCH  21  24
ATOM     24  O   UNL     1      48.960   6.471  13.474  0.00  0.00    +0.000 OA
BRANCH  24  25
ATOM     25  C   UNL     1      48.954   7.264  14.653  0.00  0.00    +0.000 C 
ATOM     26  F   UNL     1      47.921   8.124  14.743  0.00  0.00    +0.000 F 
ATOM     27  F   UNL     1      48.895   6.435  15.722  0.00  0.00    +0.000 F 
ATOM     28  F   UNL     1      50.110   7.958  14.727  0.00  0.00    +0.000 F 
ENDBRANCH  24  25
ENDBRANCH  21  24
ENDBRANCH  15  18
ENDBRANCH   1  15
TORSDOF 6
ENDMDL
MODEL 2
REMARK VINA RESULT:    -7.698      1.841      2.510
REMARK INTER + INTRA:         -11.173
REMARK INTER:                  -9.896
REMARK INTRA:                  -1.277
REMARK UNBOUND:                -0.774
REMARK  Name = 
REMARK  7 active torsions:
REMARK  status: ('A' for Active; 'I' for Inactive)
REMARK    1  A    between atoms: C_1  and  C_2
REMARK    2  A    between atoms: C_4  and  C_5
REMARK    3  A    between atoms: C_10  and  N_11
REMARK    4  A    between atoms: N_11  and  C_12
REMARK    5  A    between atoms: C_12  and  C_13
REMARK    6  A    between atoms: C_16  and  O_17
REMARK    7  A    between atoms: O_17  and  C_18
REMARK                            x       y       z     vdW  Elec       q    Type
REMARK                         _______ _______ _______ _____ _____    ______ ____
ROOT
ATOM      1  N   UNL     1      43.773   4.711  10.172  0.00  0.00    +0.000 N 
ATOM      2  H   UNL     1      42.872   4.887   9.748  0.00  0.00    +0.000 HD
ENDROOT
BRANCH   1   9
ATOM      3  C   UNL     1      46.184   5.541   8.772  0.00  0.00    +0.000 C 
ATOM      4  C   UNL     1      45.693   4.122   8.801  0.00  0.00    +0.000 A 
ATOM      5  C   UNL     1      46.446   3.143   8.130  0.00  0.00    +0.000 A 
ATOM      6  C   UNL     1      46.072   1.802   8.176  0.00  0.00    +0.000 A 
ATOM      7  C   UNL     1      44.945   1.502   8.919  0.00  0.00    +0.000 A 
ATOM      8  N   UNL     1      44.181   2.426   9.567  0.00  0.00    +0.000 NA
ATOM      9  C   UNL     1      44.531   3.732   9.491  0.00  0.00    +0.000 A 
BRANCH   6  10
ATOM     10  C   UNL     1      46.893   0.813   7.434  0.00  0.00    +0.000 C 
ATOM     11  N   UNL     1      46.671  -0.522   7.620  0.00  0.00    +0.000 N 
ATOM     12  O   UNL     1      47.761   1.175   6.646  0.00  0.00    +0.000 OA
ATOM     13  H   UNL     1      45.982  -0.934   8.227  0.00  0.00    +0.000 HD
ATOM     14  H   UNL     1      47.248  -1.150   7.071  0.00  0.00    +0.000 HD
ENDBRANCH   6  10
ENDBRANCH   1   9
BRANCH   1  15
ATOM     15  C   UNL     1      43.879   4.929  11.626  0.00  0.00    +0.000 C 
ATOM     16  C   UNL     1      43.377   3.889  12.611  0.00  0.00    +0.000 C 
ATOM     17  C   UNL     1      42.604   5.151  12.441  0.00  0.00    +0.000 C 
BRANCH  15  18
ATOM     18  C   UNL     1      45.036   5.843  12.004  0.00  0.00    +0.000 A 
ATOM     19  C   UNL     1      46.185   5.341  12.648  0.00  0.00    +0.000 A 
ATOM     20  C   UNL     1      47.281   6.166  12.946  0.00  0.00    +0.000 A 
ATOM     21  C   UNL     1      47.258   7.503  12.577  0.00  0.00    +0.000 A 
ATOM     22  C   UNL     1      46.102   8.032  12.001  0.00  0.00    +0.000 A 
ATOM     23  C   UNL     1      45.005   7.213  11.722  0.00  0.00    +0.000 A 
BRANCH  21  24
ATOM     24  O   UNL     1      48.256   8.408  12.764  0.00  0.00    +0.000 OA
BRANCH  24  25
ATOM     25  C   UNL     1      49.415   8.351  11.944  0.00  0.00    +0.000 C 
ATOM     26  F   UNL     1      50.507   7.848  12.554  0.00  0.00    +0.000 F 
ATOM     27  F   UNL     1      49.142   7.566  10.876  0.00  0.00    +0.000 F 
ATOM     28  F   UNL     1      49.699   9.591  11.490  0.00  0.00    +0.000 F 
ENDBRANCH  24  25
ENDBRANCH  21  24
ENDBRANCH  15  18
ENDBRANCH   1  15
TORSDOF 6
ENDMDL
MODEL 3
REMARK VINA RESULT:    -7.467      4.397      7.180
REMARK INTER + INTRA:         -10.860
REMARK INTER:                 -10.115
REMARK INTRA:                  -0.745
REMARK UNBOUND:                -0.774
REMARK  Name = 
REMARK  7 active torsions:
REMARK  status: ('A' for Active; 'I' for Inactive)
REMARK    1  A    between atoms: C_1  and  C_2
REMARK    2  A    between atoms: C_4  and  C_5
REMARK    3  A    between atoms: C_10  and  N_11
REMARK    4  A    between atoms: N_11  and  C_12
REMARK    5  A    between atoms: C_12  and  C_13
REMARK    6  A    between atoms: C_16  and  O_17
REMARK    7  A    between atoms: O_17  and  C_18
REMARK                            x       y       z     vdW  Elec       q    Type
REMARK                         _______ _______ _______ _____ _____    ______ ____
ROOT
ATOM      1  N   UNL     1      45.908   4.196  13.343  0.00  0.00    +0.000 N 
ATOM      2  H   UNL     1      45.748   3.538  14.094  0.00  0.00    +0.000 HD
ENDROOT
BRANCH   1   9
ATOM      3  C   UNL     1      47.118   4.178  15.988  0.00  0.00    +0.000 C 
ATOM      4  C   UNL     1      47.491   5.161  14.915  0.00  0.00    +0.000 A 
ATOM      5  C   UNL     1      48.488   6.110  15.200  0.00  0.00    +0.000 A 
ATOM      6  C   UNL     1      48.918   7.005  14.223  0.00  0.00    +0.000 A 
ATOM      7  C   UNL     1      48.325   6.892  12.980  0.00  0.00    +0.000 A 
ATOM      8  N   UNL     1      47.344   5.997  12.673  0.00  0.00    +0.000 NA
ATOM      9  C   UNL     1      46.906   5.151  13.637  0.00  0.00    +0.000 A 
BRANCH   6  10
ATOM     10  C   UNL     1      49.960   7.999  14.584  0.00  0.00    +0.000 C 
ATOM     11  N   UNL     1      51.278   7.655  14.496  0.00  0.00    +0.000 N 
ATOM     12  O   UNL     1      49.656   9.130  14.950  0.00  0.00    +0.000 OA
ATOM     13  H   UNL     1      51.645   6.766  14.197  0.00  0.00    +0.000 HD
ATOM     14  H   UNL     1      51.945   8.381  14.734  0.00  0.00    +0.000 HD
ENDBRANCH   6  10
ENDBRANCH   1   9
BRANCH   1  15
ATOM     15  C   UNL     1      44.766   4.486  12.457  0.00  0.00    +0.000 C 
ATOM     16  C   UNL     1      43.777   5.589  12.793  0.00  0.00    +0.000 C 
ATOM     17  C   UNL     1      43.349   4.170  12.941  0.00  0.00    +0.000 C 
BRANCH  15  18
ATOM     18  C   UNL     1      45.033   4.117  11.006  0.00  0.00    +0.000 A 
ATOM     19  C   UNL     1      44.881   2.792  10.548  0.00  0.00    +0.000 A 
ATOM     20  C   UNL     1      45.067   2.454   9.198  0.00  0.00    +0.000 A 
ATOM     21  C   UNL     1      45.380   3.443   8.277  0.00  0.00    +0.000 A 
ATOM     22  C   UNL     1      45.603   4.747   8.724  0.00  0.00    +0.000 A 
ATOM     23  C   UNL     1      45.435   5.077  10.071  0.00  0.00    +0.000 A 
BRANCH  21  24
ATOM     24  O   UNL     1      45.552   3.273   6.938  0.00  0.00    +0.000 OA
BRANCH  24  25
ATOM     25  C   UNL     1      46.782   2.753   6.451  0.00  0.00    +0.000 C 
ATOM     26  F   UNL     1      47.865   3.122   7.163  0.00  0.00    +0.000 F 
ATOM     27  F   UNL     1      46.713   1.401   6.478  0.00  0.00    +0.000 F 
ATOM     28  F   UNL     1      46.949   3.138   5.168  0.00  0.00    +0.000 F 
ENDBRANCH  24  25
ENDBRANCH  21  24
ENDBRANCH  15  18
ENDBRANCH   1  15
TORSDOF 6
ENDMDL
MODEL 4
REMARK VINA RESULT:    -7.389      1.726      2.317
REMARK INTER + INTRA:         -10.755
REMARK INTER:                 -10.648
REMARK INTRA:                  -0.107
REMARK UNBOUND:                -0.774
REMARK  Name = 
REMARK  7 active torsions:
REMARK  status: ('A' for Active; 'I' for Inactive)
REMARK    1  A    between atoms: C_1  and  C_2
REMARK    2  A    between atoms: C_4  and  C_5
REMARK    3  A    between atoms: C_10  and  N_11
REMARK    4  A    between atoms: N_11  and  C_12
REMARK    5  A    between atoms: C_12  and  C_13
REMARK    6  A    between atoms: C_16  and  O_17
REMARK    7  A    between atoms: O_17  and  C_18
REMARK                            x       y       z     vdW  Elec       q    Type
REMARK                         _______ _______ _______ _____ _____    ______ ____
ROOT
ATOM      1  N   UNL     1      44.160   5.015  10.081  0.00  0.00    +0.000 N 
ATOM      2  H   UNL     1      43.267   4.566  10.229  0.00  0.00    +0.000 HD
ENDROOT
BRANCH   1   9
ATOM      3  C   UNL     1      43.998   2.111  10.136  0.00  0.00    +0.000 C 
ATOM      4  C   UNL     1      44.969   2.868   9.275  0.00  0.00    +0.000 A 
ATOM      5  C   UNL     1      45.832   2.135   8.443  0.00  0.00    +0.000 A 
ATOM      6  C   UNL     1      46.710   2.785   7.579  0.00  0.00    +0.000 A 
ATOM      7  C   UNL     1      46.667   4.167   7.582  0.00  0.00    +0.000 A 
ATOM      8  N   UNL     1      45.857   4.911   8.388  0.00  0.00    +0.000 NA
ATOM      9  C   UNL     1      45.030   4.272   9.250  0.00  0.00    +0.000 A 
BRANCH   6  10
ATOM     10  C   UNL     1      47.612   1.962   6.736  0.00  0.00    +0.000 C 
ATOM     11  N   UNL     1      48.744   2.521   6.216  0.00  0.00    +0.000 N 
ATOM     12  O   UNL     1      47.364   0.782   6.508  0.00  0.00    +0.000 OA
ATOM     13  H   UNL     1      49.056   3.469   6.345  0.00  0.00    +0.000 HD
ATOM     14  H   UNL     1      49.333   1.904   5.666  0.00  0.00    +0.000 HD
ENDBRANCH   6  10
ENDBRANCH   1   9
BRANCH   1  15
ATOM     15  C   UNL     1      44.649   5.898  11.155  0.00  0.00    +0.000 C 
ATOM     16  C   UNL     1      43.836   7.096  11.613  0.00  0.00    +0.000 C 
ATOM     17  C   UNL     1      45.069   7.328  10.811  0.00  0.00    +0.000 C 
BRANCH  15  18
ATOM     18  C   UNL     1      45.576   5.187  12.130  0.00  0.00    +0.000 A 
ATOM     19  C   UNL     1      46.719   5.826  12.652  0.00  0.00    +0.000 A 
ATOM     20  C   UNL     1      47.545   5.199  13.598  0.00  0.00    +0.000 A 
ATOM     21  C   UNL     1      47.225   3.930  14.060  0.00  0.00    +0.000 A 
ATOM     22  C   UNL     1      46.137   3.256  13.503  0.00  0.00    +0.000 A 
ATOM     23  C   UNL     1      45.326   3.875  12.548  0.00  0.00    +0.000 A 
BRANCH  21  24
ATOM     24  O   UNL     1      47.907   3.218  14.997  0.00  0.00    +0.000 OA
BRANCH  24  25
ATOM     25  C   UNL     1      47.864   3.630  16.356  0.00  0.00    +0.000 C 
ATOM     26  F   UNL     1      47.778   4.963  16.534  0.00  0.00    +0.000 F 
ATOM     27  F   UNL     1      46.779   3.066  16.938  0.00  0.00    +0.000 F 
ATOM     28  F   UNL     1      48.964   3.173  16.993  0.00  0.00    +0.000 F 
ENDBRANCH  24  25
ENDBRANCH  21  24
ENDBRANCH  15  18
ENDBRANCH   1  15
TORSDOF 6
ENDMDL
MODEL 5
REMARK VINA RESULT:    -7.215      4.538      7.222
REMARK INTER + INTRA:         -10.520
REMARK INTER:                 -10.206
REMARK INTRA:                  -0.314
REMARK UNBOUND:                -0.774
REMARK  Name = 
REMARK  7 active torsions:
REMARK  status: ('A' for Active; 'I' for Inactive)
REMARK    1  A    between atoms: C_1  and  C_2
REMARK    2  A    between atoms: C_4  and  C_5
REMARK    3  A    between atoms: C_10  and  N_11
REMARK    4  A    between atoms: N_11  and  C_12
REMARK    5  A    between atoms: C_12  and  C_13
REMARK    6  A    between atoms: C_16  and  O_17
REMARK    7  A    between atoms: O_17  and  C_18
REMARK                            x       y       z     vdW  Elec       q    Type
REMARK                         _______ _______ _______ _____ _____    ______ ____
ROOT
ATOM      1  N   UNL     1      45.369   5.350  12.637  0.00  0.00    +0.000 N 
ATOM      2  H   UNL     1      45.500   5.031  13.587  0.00  0.00    +0.000 HD
ENDROOT
BRANCH   1   9
ATOM      3  C   UNL     1      48.135   6.207  12.908  0.00  0.00    +0.000 C 
ATOM      4  C   UNL     1      47.006   7.147  12.596  0.00  0.00    +0.000 A 
ATOM      5  C   UNL     1      47.305   8.508  12.410  0.00  0.00    +0.000 A 
ATOM      6  C   UNL     1      46.307   9.414  12.059  0.00  0.00    +0.000 A 
ATOM      7  C   UNL     1      45.036   8.897  11.893  0.00  0.00    +0.000 A 
ATOM      8  N   UNL     1      44.706   7.588  12.082  0.00  0.00    +0.000 NA
ATOM      9  C   UNL     1      45.675   6.718  12.457  0.00  0.00    +0.000 A 
BRANCH   6  10
ATOM     10  C   UNL     1      46.676  10.842  11.894  0.00  0.00    +0.000 C 
ATOM     11  N   UNL     1      47.538  11.422  12.780  0.00  0.00    +0.000 N 
ATOM     12  O   UNL     1      46.227  11.508  10.967  0.00  0.00    +0.000 OA
ATOM     13  H   UNL     1      47.977  10.974  13.567  0.00  0.00    +0.000 HD
ATOM     14  H   UNL     1      47.769  12.394  12.604  0.00  0.00    +0.000 HD
ENDBRANCH   6  10
ENDBRANCH   1   9
BRANCH   1  15
ATOM     15  C   UNL     1      44.347   4.652  11.835  0.00  0.00    +0.000 C 
ATOM     16  C   UNL     1      42.868   4.920  12.049  0.00  0.00    +0.000 C 
ATOM     17  C   UNL     1      43.440   3.625  12.515  0.00  0.00    +0.000 C 
BRANCH  15  18
ATOM     18  C   UNL     1      44.856   4.232  10.464  0.00  0.00    +0.000 A 
ATOM     19  C   UNL     1      44.684   2.915   9.991  0.00  0.00    +0.000 A 
ATOM     20  C   UNL     1      45.097   2.536   8.704  0.00  0.00    +0.000 A 
ATOM     21  C   UNL     1      45.662   3.477   7.856  0.00  0.00    +0.000 A 
ATOM     22  C   UNL     1      45.903   4.767   8.332  0.00  0.00    +0.000 A 
ATOM     23  C   UNL     1      45.508   5.138   9.620  0.00  0.00    +0.000 A 
BRANCH  21  24
ATOM     24  O   UNL     1      46.073   3.266   6.577  0.00  0.00    +0.000 OA
BRANCH  24  25
ATOM     25  C   UNL     1      47.147   2.370   6.325  0.00  0.00    +0.000 C 
ATOM     26  F   UNL     1      46.820   1.066   6.419  0.00  0.00    +0.000 F 
ATOM     27  F   UNL     1      47.601   2.592   5.069  0.00  0.00    +0.000 F 
ATOM     28  F   UNL     1      48.154   2.631   7.186  0.00  0.00    +0.000 F 
ENDBRANCH  24  25
ENDBRANCH  21  24
ENDBRANCH  15  18
ENDBRANCH   1  15
TORSDOF 6
ENDMDL
MODEL 6
REMARK VINA RESULT:    -7.044      4.717      7.757
REMARK INTER + INTRA:         -10.289
REMARK INTER:                  -9.673
REMARK INTRA:                  -0.616
REMARK UNBOUND:                -0.774
REMARK  Name = 
REMARK  7 active torsions:
REMARK  status: ('A' for Active; 'I' for Inactive)
REMARK    1  A    between atoms: C_1  and  C_2
REMARK    2  A    between atoms: C_4  and  C_5
REMARK    3  A    between atoms: C_10  and  N_11
REMARK    4  A    between atoms: N_11  and  C_12
REMARK    5  A    between atoms: C_12  and  C_13
REMARK    6  A    between atoms: C_16  and  O_17
REMARK    7  A    between atoms: O_17  and  C_18
REMARK                            x       y       z     vdW  Elec       q    Type
REMARK                         _______ _______ _______ _____ _____    ______ ____
ROOT
ATOM      1  N   UNL     1      46.365   3.766  13.201  0.00  0.00    +0.000 N 
ATOM      2  H   UNL     1      46.461   2.760  13.194  0.00  0.00    +0.000 HD
ENDROOT
BRANCH   1   9
ATOM      3  C   UNL     1      47.972   6.156  12.797  0.00  0.00    +0.000 C 
ATOM      4  C   UNL     1      47.751   5.527  14.142  0.00  0.00    +0.000 A 
ATOM      5  C   UNL     1      48.339   6.135  15.266  0.00  0.00    +0.000 A 
ATOM      6  C   UNL     1      48.118   5.631  16.545  0.00  0.00    +0.000 A 
ATOM      7  C   UNL     1      47.288   4.529  16.638  0.00  0.00    +0.000 A 
ATOM      8  N   UNL     1      46.716   3.903  15.570  0.00  0.00    +0.000 NA
ATOM      9  C   UNL     1      46.963   4.378  14.326  0.00  0.00    +0.000 A 
BRANCH   6  10
ATOM     10  C   UNL     1      48.778   6.301  17.693  0.00  0.00    +0.000 C 
ATOM     11  N   UNL     1      48.084   6.489  18.854  0.00  0.00    +0.000 N 
ATOM     12  O   UNL     1      49.943   6.678  17.620  0.00  0.00    +0.000 OA
ATOM     13  H   UNL     1      47.133   6.211  19.033  0.00  0.00    +0.000 HD
ATOM     14  H   UNL     1      48.594   6.932  19.610  0.00  0.00    +0.000 HD
ENDBRANCH   6  10
ENDBRANCH   1   9
BRANCH   1  15
ATOM     15  C   UNL     1      45.180   4.327  12.527  0.00  0.00    +0.000 C 
ATOM     16  C   UNL     1      44.457   5.536  13.095  0.00  0.00    +0.000 C 
ATOM     17  C   UNL     1      43.811   4.198  13.197  0.00  0.00    +0.000 C 
BRANCH  15  18
ATOM     18  C   UNL     1      45.175   4.070  11.027  0.00  0.00    +0.000 A 
ATOM     19  C   UNL     1      45.565   5.069  10.112  0.00  0.00    +0.000 A 
ATOM     20  C   UNL     1      45.621   4.820   8.732  0.00  0.00    +0.000 A 
ATOM     21  C   UNL     1      45.315   3.557   8.246  0.00  0.00    +0.000 A 
ATOM     22  C   UNL     1      44.861   2.577   9.130  0.00  0.00    +0.000 A 
ATOM     23  C   UNL     1      44.788   2.832  10.502  0.00  0.00    +0.000 A 
BRANCH  21  24
ATOM     24  O   UNL     1      45.362   3.161   6.945  0.00  0.00    +0.000 OA
BRANCH  24  25
ATOM     25  C   UNL     1      46.610   2.810   6.365  0.00  0.00    +0.000 C 
ATOM     26  F   UNL     1      46.667   1.555   5.877  0.00  0.00    +0.000 F 
ATOM     27  F   UNL     1      46.858   3.661   5.342  0.00  0.00    +0.000 F 
ATOM     28  F   UNL     1      47.587   2.967   7.284  0.00  0.00    +0.000 F 
ENDBRANCH  24  25
ENDBRANCH  21  24
ENDBRANCH  15  18
ENDBRANCH   1  15
TORSDOF 6
ENDMDL
MODEL 7
REMARK VINA RESULT:    -6.870      4.202      6.930
REMARK INTER + INTRA:         -10.054
REMARK INTER:                 -10.506
REMARK INTRA:                   0.451
REMARK UNBOUND:                -0.774
REMARK  Name = 
REMARK  7 active torsions:
REMARK  status: ('A' for Active; 'I' for Inactive)
REMARK    1  A    between atoms: C_1  and  C_2
REMARK    2  A    between atoms: C_4  and  C_5
REMARK    3  A    between atoms: C_10  and  N_11
REMARK    4  A    between atoms: N_11  and  C_12
REMARK    5  A    between atoms: C_12  and  C_13
REMARK    6  A    between atoms: C_16  and  O_17
REMARK    7  A    between atoms: O_17  and  C_18
REMARK                            x       y       z     vdW  Elec       q    Type
REMARK                         _______ _______ _______ _____ _____    ______ ____
ROOT
ATOM      1  N   UNL     1      44.558   6.755  11.531  0.00  0.00    +0.000 N 
ATOM      2  H   UNL     1      44.534   7.386  10.742  0.00  0.00    +0.000 HD
ENDROOT
BRANCH   1   9
ATOM      3  C   UNL     1      45.343   9.324  12.648  0.00  0.00    +0.000 C 
ATOM      4  C   UNL     1      46.154   8.070  12.810  0.00  0.00    +0.000 A 
ATOM      5  C   UNL     1      47.345   8.140  13.553  0.00  0.00    +0.000 A 
ATOM      6  C   UNL     1      48.105   6.996  13.787  0.00  0.00    +0.000 A 
ATOM      7  C   UNL     1      47.614   5.813  13.267  0.00  0.00    +0.000 A 
ATOM      8  N   UNL     1      46.474   5.711  12.527  0.00  0.00    +0.000 NA
ATOM      9  C   UNL     1      45.757   6.833  12.274  0.00  0.00    +0.000 A 
BRANCH   6  10
ATOM     10  C   UNL     1      49.364   7.131  14.562  0.00  0.00    +0.000 C 
ATOM     11  N   UNL     1      50.250   8.119  14.241  0.00  0.00    +0.000 N 
ATOM     12  O   UNL     1      49.617   6.375  15.494  0.00  0.00    +0.000 OA
ATOM     13  H   UNL     1      50.144   8.802  13.509  0.00  0.00    +0.000 HD
ATOM     14  H   UNL     1      51.082   8.176  14.818  0.00  0.00    +0.000 HD
ENDBRANCH   6  10
ENDBRANCH   1   9
BRANCH   1  15
ATOM     15  C   UNL     1      43.773   5.513  11.416  0.00  0.00    +0.000 C 
ATOM     16  C   UNL     1      42.294   5.487  11.760  0.00  0.00    +0.000 C 
ATOM     17  C   UNL     1      43.260   4.834  12.687  0.00  0.00    +0.000 C 
BRANCH  15  18
ATOM     18  C   UNL     1      44.331   4.556  10.372  0.00  0.00    +0.000 A 
ATOM     19  C   UNL     1      45.088   5.026   9.279  0.00  0.00    +0.000 A 
ATOM     20  C   UNL     1      45.656   4.144   8.345  0.00  0.00    +0.000 A 
ATOM     21  C   UNL     1      45.502   2.775   8.507  0.00  0.00    +0.000 A 
ATOM     22  C   UNL     1      44.698   2.296   9.543  0.00  0.00    +0.000 A 
ATOM     23  C   UNL     1      44.118   3.176  10.461  0.00  0.00    +0.000 A 
BRANCH  21  24
ATOM     24  O   UNL     1      46.024   1.806   7.708  0.00  0.00    +0.000 OA
BRANCH  24  25
ATOM     25  C   UNL     1      47.067   2.134   6.801  0.00  0.00    +0.000 C 
ATOM     26  F   UNL     1      47.860   3.147   7.203  0.00  0.00    +0.000 F 
ATOM     27  F   UNL     1      47.849   1.040   6.639  0.00  0.00    +0.000 F 
ATOM     28  F   UNL     1      46.532   2.446   5.602  0.00  0.00    +0.000 F 
ENDBRANCH  24  25
ENDBRANCH  21  24
ENDBRANCH  15  18
ENDBRANCH   1  15
TORSDOF 6
ENDMDL
MODEL 8
REMARK VINA RESULT:    -6.739      5.383      7.897
REMARK INTER + INTRA:          -9.878
REMARK INTER:                  -9.129
REMARK INTRA:                  -0.749
REMARK UNBOUND:                -0.774
REMARK  Name = 
REMARK  7 active torsions:
REMARK  status: ('A' for Active; 'I' for Inactive)
REMARK    1  A    between atoms: C_1  and  C_2
REMARK    2  A    between atoms: C_4  and  C_5
REMARK    3  A    between atoms: C_10  and  N_11
REMARK    4  A    between atoms: N_11  and  C_12
REMARK    5  A    between atoms: C_12  and  C_13
REMARK    6  A    between atoms: C_16  and  O_17
REMARK    7  A    between atoms: O_17  and  C_18
REMARK                            x       y       z     vdW  Elec       q    Type
REMARK                         _______ _______ _______ _____ _____    ______ ____
ROOT
ATOM      1  N   UNL     1      47.002   5.062  15.301  0.00  0.00    +0.000 N 
ATOM      2  H   UNL     1      46.412   5.535  15.971  0.00  0.00    +0.000 HD
ENDROOT
BRANCH   1   9
ATOM      3  C   UNL     1      48.652   6.279  17.364  0.00  0.00    +0.000 C 
ATOM      4  C   UNL     1      48.831   4.865  16.890  0.00  0.00    +0.000 A 
ATOM      5  C   UNL     1      49.839   4.086  17.486  0.00  0.00    +0.000 A 
ATOM      6  C   UNL     1      50.010   2.751  17.129  0.00  0.00    +0.000 A 
ATOM      7  C   UNL     1      49.135   2.248  16.184  0.00  0.00    +0.000 A 
ATOM      8  N   UNL     1      48.159   2.978  15.573  0.00  0.00    +0.000 NA
ATOM      9  C   UNL     1      48.020   4.285  15.899  0.00  0.00    +0.000 A 
BRANCH   6  10
ATOM     10  C   UNL     1      51.101   1.981  17.777  0.00  0.00    +0.000 C 
ATOM     11  N   UNL     1      52.045   2.638  18.513  0.00  0.00    +0.000 N 
ATOM     12  O   UNL     1      51.163   0.760  17.671  0.00  0.00    +0.000 OA
ATOM     13  H   UNL     1      52.088   3.630  18.680  0.00  0.00    +0.000 HD
ATOM     14  H   UNL     1      52.753   2.058  18.949  0.00  0.00    +0.000 HD
ENDBRANCH   6  10
ENDBRANCH   1   9
BRANCH   1  15
ATOM     15  C   UNL     1      47.163   5.705  13.984  0.00  0.00    +0.000 C 
ATOM     16  C   UNL     1      48.468   6.380  13.598  0.00  0.00    +0.000 C 
ATOM     17  C   UNL     1      47.283   7.228  13.908  0.00  0.00    +0.000 C 
BRANCH  15  18
ATOM     18  C   UNL     1      46.277   5.088  12.912  0.00  0.00    +0.000 A 
ATOM     19  C   UNL     1      46.024   5.758  11.697  0.00  0.00    +0.000 A 
ATOM     20  C   UNL     1      45.257   5.170  10.679  0.00  0.00    +0.000 A 
ATOM     21  C   UNL     1      44.754   3.889  10.847  0.00  0.00    +0.000 A 
ATOM     22  C   UNL     1      44.935   3.239  12.069  0.00  0.00    +0.000 A 
ATOM     23  C   UNL     1      45.684   3.833  13.089  0.00  0.00    +0.000 A 
BRANCH  21  24
ATOM     24  O   UNL     1      44.030   3.182   9.939  0.00  0.00    +0.000 OA
BRANCH  24  25
ATOM     25  C   UNL     1      44.702   2.491   8.895  0.00  0.00    +0.000 C 
ATOM     26  F   UNL     1      44.547   3.037   7.672  0.00  0.00    +0.000 F 
ATOM     27  F   UNL     1      46.026   2.479   9.176  0.00  0.00    +0.000 F 
ATOM     28  F   UNL     1      44.271   1.211   8.860  0.00  0.00    +0.000 F 
ENDBRANCH  24  25
ENDBRANCH  21  24
ENDBRANCH  15  18
ENDBRANCH   1  15
TORSDOF 6
ENDMDL
MODEL 9
REMARK VINA RESULT:    -6.135      3.910      5.886
REMARK INTER + INTRA:          -9.061
REMARK INTER:                  -7.851
REMARK INTRA:                  -1.210
REMARK UNBOUND:                -0.774
REMARK  Name = 
REMARK  7 active torsions:
REMARK  status: ('A' for Active; 'I' for Inactive)
REMARK    1  A    between atoms: C_1  and  C_2
REMARK    2  A    between atoms: C_4  and  C_5
REMARK    3  A    between atoms: C_10  and  N_11
REMARK    4  A    between atoms: N_11  and  C_12
REMARK    5  A    between atoms: C_12  and  C_13
REMARK    6  A    between atoms: C_16  and  O_17
REMARK    7  A    between atoms: O_17  and  C_18
REMARK                            x       y       z     vdW  Elec       q    Type
REMARK                         _______ _______ _______ _____ _____    ______ ____
ROOT
ATOM      1  N   UNL     1      48.473   6.275  12.822  0.00  0.00    +0.000 N 
ATOM      2  H   UNL     1      49.133   5.683  12.337  0.00  0.00    +0.000 HD
ENDROOT
BRANCH   1   9
ATOM      3  C   UNL     1      46.943   4.666  14.701  0.00  0.00    +0.000 C 
ATOM      4  C   UNL     1      46.378   5.192  13.413  0.00  0.00    +0.000 A 
ATOM      5  C   UNL     1      45.036   4.904  13.108  0.00  0.00    +0.000 A 
ATOM      6  C   UNL     1      44.442   5.417  11.958  0.00  0.00    +0.000 A 
ATOM      7  C   UNL     1      45.235   6.222  11.161  0.00  0.00    +0.000 A 
ATOM      8  N   UNL     1      46.543   6.507  11.416  0.00  0.00    +0.000 NA
ATOM      9  C   UNL     1      47.125   5.978  12.518  0.00  0.00    +0.000 A 
BRANCH   6  10
ATOM     10  C   UNL     1      43.028   5.065  11.676  0.00  0.00    +0.000 C 
ATOM     11  N   UNL     1      42.063   6.028  11.770  0.00  0.00    +0.000 N 
ATOM     12  O   UNL     1      42.712   3.926  11.348  0.00  0.00    +0.000 OA
ATOM     13  H   UNL     1      42.204   6.994  12.016  0.00  0.00    +0.000 HD
ATOM     14  H   UNL     1      41.118   5.734  11.545  0.00  0.00    +0.000 HD
ENDBRANCH   6  10
ENDBRANCH   1   9
BRANCH   1  15
ATOM     15  C   UNL     1      48.928   7.633  13.171  0.00  0.00    +0.000 C 
ATOM     16  C   UNL     1      48.757   8.789  12.201  0.00  0.00    +0.000 C 
ATOM     17  C   UNL     1      50.121   8.234  12.426  0.00  0.00    +0.000 C 
BRANCH  15  18
ATOM     18  C   UNL     1      48.927   7.890  14.671  0.00  0.00    +0.000 A 
ATOM     19  C   UNL     1      48.245   8.993  15.225  0.00  0.00    +0.000 A 
ATOM     20  C   UNL     1      48.189   9.202  16.612  0.00  0.00    +0.000 A 
ATOM     21  C   UNL     1      48.791   8.295  17.471  0.00  0.00    +0.000 A 
ATOM     22  C   UNL     1      49.528   7.236  16.938  0.00  0.00    +0.000 A 
ATOM     23  C   UNL     1      49.598   7.039  15.556  0.00  0.00    +0.000 A 
BRANCH  21  24
ATOM     24  O   UNL     1      48.786   8.347  18.830  0.00  0.00    +0.000 OA
BRANCH  24  25
ATOM     25  C   UNL     1      47.579   8.097  19.536  0.00  0.00    +0.000 C 
ATOM     26  F   UNL     1      46.731   9.143  19.581  0.00  0.00    +0.000 F 
ATOM     27  F   UNL     1      46.936   7.072  18.929  0.00  0.00    +0.000 F 
ATOM     28  F   UNL     1      47.873   7.717  20.798  0.00  0.00    +0.000 F 
ENDBRANCH  24  25
ENDBRANCH  21  24
ENDBRANCH  15  18
ENDBRANCH   1  15
TORSDOF 6
ENDMDL
