MODEL 1
REMARK VINA RESULT:    -8.293      0.000      0.000
REMARK INTER + INTRA:         -13.422
REMARK INTER:                 -12.172
REMARK INTRA:                  -1.250
REMARK UNBOUND:                -1.250
REMARK  Name = 
REMARK  9 active torsions:
REMARK  status: ('A' for Active; 'I' for Inactive)
REMARK    1  A    between atoms: C_1  and  O_2
REMARK    2  A    between atoms: O_2  and  C_3
REMARK    3  A    between atoms: C_10  and  C_11
REMARK    4  A    between atoms: N_13  and  C_14
REMARK    5  A    between atoms: C_14  and  C_15
REMARK    6  A    between atoms: C_18  and  C_19
REMARK    7  A    between atoms: C_19  and  N_20
REMARK    8  A    between atoms: N_20  and  C_21
REMARK    9  A    between atoms: C_21  and  C_22
REMARK                            x       y       z     vdW  Elec       q    Type
REMARK                         _______ _______ _______ _____ _____    ______ ____
ROOT
ATOM      1  C   UNL     1      46.921   6.624  12.880  0.00  0.00    +0.000 A 
ATOM      2  C   UNL     1      46.674   5.386  13.486  0.00  0.00    +0.000 A 
ATOM      3  C   UNL     1      45.776   4.480  12.913  0.00  0.00    +0.000 A 
ATOM      4  C   UNL     1      45.107   4.789  11.721  0.00  0.00    +0.000 A 
ATOM      5  C   UNL     1      45.345   6.033  11.123  0.00  0.00    +0.000 A 
ATOM      6  C   UNL     1      46.246   6.939  11.694  0.00  0.00    +0.000 A 
ENDROOT
BRANCH   1   7
ATOM      7  C   UNL     1      47.933   7.573  13.466  0.00  0.00    +0.000 C 
BRANCH   7  10
ATOM      8  C   UNL     1      48.969   7.097  15.638  0.00  0.00    +0.000 C 
ATOM      9  O   UNL     1      49.984   6.686  15.079  0.00  0.00    +0.000 OA
ATOM     10  N   UNL     1      47.901   7.548  14.910  0.00  0.00    +0.000 N 
ATOM     11  H   UNL     1      47.059   7.863  15.374  0.00  0.00    +0.000 HD
BRANCH   8  19
ATOM     12  C   UNL     1      48.898   4.644  18.076  0.00  0.00    +0.000 A 
ATOM     13  N   UNL     1      48.809   3.921  19.211  0.00  0.00    +0.000 NA
ATOM     14  C   UNL     1      48.668   4.573  20.367  0.00  0.00    +0.000 A 
ATOM     15  N   UNL     1      48.607   5.889  20.539  0.00  0.00    +0.000 NA
ATOM     16  C   UNL     1      48.689   6.574  19.386  0.00  0.00    +0.000 A 
ATOM     17  S   UNL     1      48.629   8.269  19.424  0.00  0.00    +0.000 S 
ATOM     18  C   UNL     1      48.769   8.357  17.734  0.00  0.00    +0.000 A 
ATOM     19  C   UNL     1      48.867   7.119  17.107  0.00  0.00    +0.000 A 
ATOM     20  C   UNL     1      48.829   6.049  18.103  0.00  0.00    +0.000 A 
BRANCH  12  22
ATOM     21  C   UNL     1      47.905   3.322  16.407  0.00  0.00    +0.000 C 
ATOM     22  O   UNL     1      49.081   3.973  16.882  0.00  0.00    +0.000 OA
ENDBRANCH  12  22
ENDBRANCH   8  19
ENDBRANCH   7  10
ENDBRANCH   1   7
BRANCH   4  23
ATOM     23  C   UNL     1      44.183   3.778  11.072  0.00  0.00    +0.000 C 
BRANCH  23  24
ATOM     24  N   UNL     1      44.886   2.546  10.733  0.00  0.00    +0.000 NA
ATOM     25  H   UNL     1      44.665   1.825  11.425  0.00  0.00    +0.000 HD
BRANCH  24  26
ATOM     26  C   UNL     1      44.477   2.032   9.418  0.00  0.00    +0.000 C 
BRANCH  26  27
ATOM     27  C   UNL     1      45.602   2.147   8.412  0.00  0.00    +0.000 A 
ATOM     28  N   UNL     1      46.331   1.019   8.162  0.00  0.00    +0.000 NA
ATOM     29  C   UNL     1      47.357   1.131   7.286  0.00  0.00    +0.000 A 
ATOM     30  C   UNL     1      47.692   2.307   6.633  0.00  0.00    +0.000 A 
ATOM     31  C   UNL     1      46.927   3.442   6.885  0.00  0.00    +0.000 A 
ATOM     32  C   UNL     1      45.872   3.359   7.782  0.00  0.00    +0.000 A 
ATOM     33  F   UNL     1      45.129   4.448   8.024  0.00  0.00    +0.000 F 
ENDBRANCH  26  27
ENDBRANCH  24  26
ENDBRANCH  23  24
ENDBRANCH   4  23
TORSDOF 8
ENDMDL
MODEL 2
REMARK VINA RESULT:    -7.933      1.767      2.124
REMARK INTER + INTRA:         -12.893
REMARK INTER:                 -11.857
REMARK INTRA:                  -1.037
REMARK UNBOUND:                -1.250
REMARK  Name = 
REMARK  9 active torsions:
REMARK  status: ('A' for Active; 'I' for Inactive)
REMARK    1  A    between atoms: C_1  and  O_2
REMARK    2  A    between atoms: O_2  and  C_3
REMARK    3  A    between atoms: C_10  and  C_11
REMARK    4  A    between atoms: N_13  and  C_14
REMARK    5  A    between atoms: C_14  and  C_15
REMARK    6  A    between atoms: C_18  and  C_19
REMARK    7  A    between atoms: C_19  and  N_20
REMARK    8  A    between atoms: N_20  and  C_21
REMARK    9  A    between atoms: C_21  and  C_22
REMARK                            x       y       z     vdW  Elec       q    Type
REMARK                         _______ _______ _______ _____ _____    ______ ____
ROOT
ATOM      1  C   UNL     1      45.794   6.620  12.356  0.00  0.00    +0.000 A 
ATOM      2  C   UNL     1      45.962   6.254  11.014  0.00  0.00    +0.000 A 
ATOM      3  C   UNL     1      45.304   5.135  10.494  0.00  0.00    +0.000 A 
ATOM      4  C   UNL     1      44.462   4.358  11.301  0.00  0.00    +0.000 A 
ATOM      5  C   UNL     1      44.305   4.718  12.645  0.00  0.00    +0.000 A 
ATOM      6  C   UNL     1      44.960   5.839  13.167  0.00  0.00    +0.000 A 
ENDROOT
BRANCH   1   7
ATOM      7  C   UNL     1      46.455   7.858  12.899  0.00  0.00    +0.000 C 
BRANCH   7  10
ATOM      8  C   UNL     1      48.309   6.845  14.146  0.00  0.00    +0.000 C 
ATOM      9  O   UNL     1      48.776   6.386  13.106  0.00  0.00    +0.000 OA
ATOM     10  N   UNL     1      47.156   7.582  14.133  0.00  0.00    +0.000 N 
ATOM     11  H   UNL     1      46.763   7.938  14.994  0.00  0.00    +0.000 HD
BRANCH   8  19
ATOM     12  C   UNL     1      47.791   4.639  16.760  0.00  0.00    +0.000 A 
ATOM     13  N   UNL     1      47.801   3.948  17.918  0.00  0.00    +0.000 NA
ATOM     14  C   UNL     1      48.717   4.262  18.836  0.00  0.00    +0.000 A 
ATOM     15  N   UNL     1      49.652   5.202  18.741  0.00  0.00    +0.000 NA
ATOM     16  C   UNL     1      49.604   5.875  17.579  0.00  0.00    +0.000 A 
ATOM     17  S   UNL     1      50.730   7.111  17.291  0.00  0.00    +0.000 S 
ATOM     18  C   UNL     1      50.055   7.434  15.767  0.00  0.00    +0.000 A 
ATOM     19  C   UNL     1      48.974   6.621  15.441  0.00  0.00    +0.000 A 
ATOM     20  C   UNL     1      48.712   5.678  16.528  0.00  0.00    +0.000 A 
BRANCH  12  22
ATOM     21  C   UNL     1      47.388   3.414  14.796  0.00  0.00    +0.000 C 
ATOM     22  O   UNL     1      46.868   4.290  15.794  0.00  0.00    +0.000 OA
ENDBRANCH  12  22
ENDBRANCH   8  19
ENDBRANCH   7  10
ENDBRANCH   1   7
BRANCH   4  23
ATOM     23  C   UNL     1      43.703   3.185  10.716  0.00  0.00    +0.000 C 
BRANCH  23  24
ATOM     24  N   UNL     1      44.037   2.972   9.313  0.00  0.00    +0.000 NA
ATOM     25  H   UNL     1      44.498   3.807   8.941  0.00  0.00    +0.000 HD
BRANCH  24  26
ATOM     26  C   UNL     1      44.965   1.845   9.141  0.00  0.00    +0.000 C 
BRANCH  26  27
ATOM     27  C   UNL     1      45.932   2.101   8.005  0.00  0.00    +0.000 A 
ATOM     28  N   UNL     1      45.965   3.366   7.488  0.00  0.00    +0.000 NA
ATOM     29  C   UNL     1      46.807   3.586   6.452  0.00  0.00    +0.000 A 
ATOM     30  C   UNL     1      47.631   2.615   5.904  0.00  0.00    +0.000 A 
ATOM     31  C   UNL     1      47.599   1.337   6.455  0.00  0.00    +0.000 A 
ATOM     32  C   UNL     1      46.742   1.080   7.516  0.00  0.00    +0.000 A 
ATOM     33  F   UNL     1      46.711  -0.148   8.053  0.00  0.00    +0.000 F 
ENDBRANCH  26  27
ENDBRANCH  24  26
ENDBRANCH  23  24
ENDBRANCH   4  23
TORSDOF 8
ENDMDL
MODEL 3
REMARK VINA RESULT:    -7.841      1.750      2.154
REMARK INTER + INTRA:         -12.758
REMARK INTER:                 -11.523
REMARK INTRA:                  -1.236
REMARK UNBOUND:                -1.250
REMARK  Name = 
REMARK  9 active torsions:
REMARK  status: ('A' for Active; 'I' for Inactive)
REMARK    1  A    between atoms: C_1  and  O_2
REMARK    2  A    between atoms: O_2  and  C_3
REMARK    3  A    between atoms: C_10  and  C_11
REMARK    4  A    between atoms: N_13  and  C_14
REMARK    5  A    between atoms: C_14  and  C_15
REMARK    6  A    between atoms: C_18  and  C_19
REMARK    7  A    between atoms: C_19  and  N_20
REMARK    8  A    between atoms: N_20  and  C_21
REMARK    9  A    between atoms: C_21  and  C_22
REMARK                            x       y       z     vdW  Elec       q    Type
REMARK                         _______ _______ _______ _____ _____    ______ ____
ROOT
ATOM      1  C   UNL     1      46.860   6.659  12.823  0.00  0.00    +0.000 A 
ATOM      2  C   UNL     1      46.463   6.768  11.484  0.00  0.00    +0.000 A 
ATOM      3  C   UNL     1      45.620   5.810  10.912  0.00  0.00    +0.000 A 
ATOM      4  C   UNL     1      45.152   4.723  11.664  0.00  0.00    +0.000 A 
ATOM      5  C   UNL     1      45.560   4.609  13.000  0.00  0.00    +0.000 A 
ATOM      6  C   UNL     1      46.402   5.569  13.574  0.00  0.00    +0.000 A 
ENDROOT
BRANCH   1   7
ATOM      7  C   UNL     1      47.718   7.722  13.455  0.00  0.00    +0.000 C 
BRANCH   7  10
ATOM      8  C   UNL     1      49.282   7.538  15.336  0.00  0.00    +0.000 C 
ATOM      9  O   UNL     1      48.660   8.399  15.955  0.00  0.00    +0.000 OA
ATOM     10  N   UNL     1      48.885   7.149  14.085  0.00  0.00    +0.000 N 
ATOM     11  H   UNL     1      49.414   6.456  13.571  0.00  0.00    +0.000 HD
BRANCH   8  19
ATOM     12  C   UNL     1      49.759   4.818  17.419  0.00  0.00    +0.000 A 
ATOM     13  N   UNL     1      50.233   3.854  18.233  0.00  0.00    +0.000 NA
ATOM     14  C   UNL     1      51.551   3.788  18.438  0.00  0.00    +0.000 A 
ATOM     15  N   UNL     1      52.479   4.583  17.916  0.00  0.00    +0.000 NA
ATOM     16  C   UNL     1      51.968   5.536  17.120  0.00  0.00    +0.000 A 
ATOM     17  S   UNL     1      53.016   6.638  16.368  0.00  0.00    +0.000 S 
ATOM     18  C   UNL     1      51.717   7.437  15.624  0.00  0.00    +0.000 A 
ATOM     19  C   UNL     1      50.471   6.894  15.919  0.00  0.00    +0.000 A 
ATOM     20  C   UNL     1      50.626   5.745  16.811  0.00  0.00    +0.000 A 
BRANCH  12  22
ATOM     21  C   UNL     1      47.881   3.667  16.602  0.00  0.00    +0.000 C 
ATOM     22  O   UNL     1      48.400   4.864  17.177  0.00  0.00    +0.000 OA
ENDBRANCH  12  22
ENDBRANCH   8  19
ENDBRANCH   7  10
ENDBRANCH   1   7
BRANCH   4  23
ATOM     23  C   UNL     1      44.189   3.724  11.057  0.00  0.00    +0.000 C 
BRANCH  23  24
ATOM     24  N   UNL     1      44.863   2.486  10.682  0.00  0.00    +0.000 NA
ATOM     25  H   UNL     1      44.613   1.747  11.344  0.00  0.00    +0.000 HD
BRANCH  24  26
ATOM     26  C   UNL     1      44.460   2.033   9.344  0.00  0.00    +0.000 C 
BRANCH  26  27
ATOM     27  C   UNL     1      45.624   2.077   8.377  0.00  0.00    +0.000 A 
ATOM     28  N   UNL     1      46.304   0.911   8.168  0.00  0.00    +0.000 NA
ATOM     29  C   UNL     1      47.364   0.958   7.328  0.00  0.00    +0.000 A 
ATOM     30  C   UNL     1      47.781   2.106   6.671  0.00  0.00    +0.000 A 
ATOM     31  C   UNL     1      47.064   3.282   6.881  0.00  0.00    +0.000 A 
ATOM     32  C   UNL     1      45.975   3.264   7.742  0.00  0.00    +0.000 A 
ATOM     33  F   UNL     1      45.280   4.392   7.942  0.00  0.00    +0.000 F 
ENDBRANCH  26  27
ENDBRANCH  24  26
ENDBRANCH  23  24
ENDBRANCH   4  23
TORSDOF 8
ENDMDL
MODEL 4
REMARK VINA RESULT:    -6.939      5.329      9.680
REMARK INTER + INTRA:         -11.435
REMARK INTER:                 -10.463
REMARK INTRA:                  -0.972
REMARK UNBOUND:                -1.250
REMARK  Name = 
REMARK  9 active torsions:
REMARK  status: ('A' for Active; 'I' for Inactive)
REMARK    1  A    between atoms: C_1  and  O_2
REMARK    2  A    between atoms: O_2  and  C_3
REMARK    3  A    between atoms: C_10  and  C_11
REMARK    4  A    between atoms: N_13  and  C_14
REMARK    5  A    between atoms: C_14  and  C_15
REMARK    6  A    between atoms: C_18  and  C_19
REMARK    7  A    between atoms: C_19  and  N_20
REMARK    8  A    between atoms: N_20  and  C_21
REMARK    9  A    between atoms: C_21  and  C_22
REMARK                            x       y       z     vdW  Elec       q    Type
REMARK                         _______ _______ _______ _____ _____    ______ ____
ROOT
ATOM      1  C   UNL     1      48.685   3.331  17.006  0.00  0.00    +0.000 A 
ATOM      2  C   UNL     1      49.402   2.130  16.933  0.00  0.00    +0.000 A 
ATOM      3  C   UNL     1      50.764   2.094  17.248  0.00  0.00    +0.000 A 
ATOM      4  C   UNL     1      51.440   3.256  17.644  0.00  0.00    +0.000 A 
ATOM      5  C   UNL     1      50.725   4.459  17.703  0.00  0.00    +0.000 A 
ATOM      6  C   UNL     1      49.361   4.495  17.392  0.00  0.00    +0.000 A 
ENDROOT
BRANCH   1   7
ATOM      7  C   UNL     1      47.206   3.357  16.725  0.00  0.00    +0.000 C 
BRANCH   7  10
ATOM      8  C   UNL     1      46.881   4.289  14.479  0.00  0.00    +0.000 C 
ATOM      9  O   UNL     1      47.210   3.218  13.972  0.00  0.00    +0.000 OA
ATOM     10  N   UNL     1      46.859   4.444  15.839  0.00  0.00    +0.000 N 
ATOM     11  H   UNL     1      46.609   5.334  16.251  0.00  0.00    +0.000 HD
BRANCH   8  19
ATOM     12  C   UNL     1      44.051   5.091  12.659  0.00  0.00    +0.000 A 
ATOM     13  N   UNL     1      43.118   5.636  11.852  0.00  0.00    +0.000 NA
ATOM     14  C   UNL     1      43.388   6.808  11.273  0.00  0.00    +0.000 A 
ATOM     15  N   UNL     1      44.498   7.526  11.404  0.00  0.00    +0.000 NA
ATOM     16  C   UNL     1      45.406   6.947  12.207  0.00  0.00    +0.000 A 
ATOM     17  S   UNL     1      46.884   7.731  12.487  0.00  0.00    +0.000 S 
ATOM     18  C   UNL     1      47.416   6.471  13.493  0.00  0.00    +0.000 A 
ATOM     19  C   UNL     1      46.496   5.438  13.643  0.00  0.00    +0.000 A 
ATOM     20  C   UNL     1      45.285   5.731  12.877  0.00  0.00    +0.000 A 
BRANCH  12  22
ATOM     21  C   UNL     1      43.640   2.793  12.393  0.00  0.00    +0.000 C 
ATOM     22  O   UNL     1      43.759   3.897  13.289  0.00  0.00    +0.000 OA
ENDBRANCH  12  22
ENDBRANCH   8  19
ENDBRANCH   7  10
ENDBRANCH   1   7
BRANCH   4  23
ATOM     23  C   UNL     1      52.900   3.199  18.043  0.00  0.00    +0.000 C 
BRANCH  23  24
ATOM     24  N   UNL     1      53.178   2.058  18.908  0.00  0.00    +0.000 NA
ATOM     25  H   UNL     1      52.631   1.251  18.597  0.00  0.00    +0.000 HD
BRANCH  24  26
ATOM     26  C   UNL     1      54.595   1.672  18.859  0.00  0.00    +0.000 C 
BRANCH  26  27
ATOM     27  C   UNL     1      54.750   0.168  18.784  0.00  0.00    +0.000 A 
ATOM     28  N   UNL     1      54.948  -0.497  19.961  0.00  0.00    +0.000 NA
ATOM     29  C   UNL     1      55.117  -1.838  19.890  0.00  0.00    +0.000 A 
ATOM     30  C   UNL     1      55.089  -2.560  18.707  0.00  0.00    +0.000 A 
ATOM     31  C   UNL     1      54.866  -1.869  17.519  0.00  0.00    +0.000 A 
ATOM     32  C   UNL     1      54.694  -0.493  17.560  0.00  0.00    +0.000 A 
ATOM     33  F   UNL     1      54.474   0.176  16.419  0.00  0.00    +0.000 F 
ENDBRANCH  26  27
ENDBRANCH  24  26
ENDBRANCH  23  24
ENDBRANCH   4  23
TORSDOF 8
ENDMDL
MODEL 5
REMARK VINA RESULT:    -6.715      1.807      2.664
REMARK INTER + INTRA:         -11.105
REMARK INTER:                 -10.620
REMARK INTRA:                  -0.486
REMARK UNBOUND:                -1.250
REMARK  Name = 
REMARK  9 active torsions:
REMARK  status: ('A' for Active; 'I' for Inactive)
REMARK    1  A    between atoms: C_1  and  O_2
REMARK    2  A    between atoms: O_2  and  C_3
REMARK    3  A    between atoms: C_10  and  C_11
REMARK    4  A    between atoms: N_13  and  C_14
REMARK    5  A    between atoms: C_14  and  C_15
REMARK    6  A    between atoms: C_18  and  C_19
REMARK    7  A    between atoms: C_19  and  N_20
REMARK    8  A    between atoms: N_20  and  C_21
REMARK    9  A    between atoms: C_21  and  C_22
REMARK                            x       y       z     vdW  Elec       q    Type
REMARK                         _______ _______ _______ _____ _____    ______ ____
ROOT
ATOM      1  C   UNL     1      46.476   5.924  12.543  0.00  0.00    +0.000 A 
ATOM      2  C   UNL     1      46.413   6.380  11.220  0.00  0.00    +0.000 A 
ATOM      3  C   UNL     1      45.545   5.781  10.302  0.00  0.00    +0.000 A 
ATOM      4  C   UNL     1      44.718   4.715  10.685  0.00  0.00    +0.000 A 
ATOM      5  C   UNL     1      44.792   4.252  12.005  0.00  0.00    +0.000 A 
ATOM      6  C   UNL     1      45.659   4.852  12.925  0.00  0.00    +0.000 A 
ENDROOT
BRANCH   1   7
ATOM      7  C   UNL     1      47.367   6.608  13.546  0.00  0.00    +0.000 C 
BRANCH   7  10
ATOM      8  C   UNL     1      48.540   5.896  15.579  0.00  0.00    +0.000 C 
ATOM      9  O   UNL     1      49.533   6.540  15.248  0.00  0.00    +0.000 OA
ATOM     10  N   UNL     1      47.424   5.870  14.787  0.00  0.00    +0.000 N 
ATOM     11  H   UNL     1      46.618   5.319  15.052  0.00  0.00    +0.000 HD
BRANCH   8  19
ATOM     12  C   UNL     1      48.918   6.748  18.910  0.00  0.00    +0.000 A 
ATOM     13  N   UNL     1      49.063   6.780  20.250  0.00  0.00    +0.000 NA
ATOM     14  C   UNL     1      48.972   5.631  20.924  0.00  0.00    +0.000 A 
ATOM     15  N   UNL     1      48.747   4.424  20.417  0.00  0.00    +0.000 NA
ATOM     16  C   UNL     1      48.618   4.431  19.080  0.00  0.00    +0.000 A 
ATOM     17  S   UNL     1      48.324   2.972  18.267  0.00  0.00    +0.000 S 
ATOM     18  C   UNL     1      48.306   3.759  16.763  0.00  0.00    +0.000 A 
ATOM     19  C   UNL     1      48.516   5.132  16.838  0.00  0.00    +0.000 A 
ATOM     20  C   UNL     1      48.694   5.535  18.233  0.00  0.00    +0.000 A 
BRANCH  12  22
ATOM     21  C   UNL     1      50.282   8.507  18.156  0.00  0.00    +0.000 C 
ATOM     22  O   UNL     1      48.975   7.940  18.215  0.00  0.00    +0.000 OA
ENDBRANCH  12  22
ENDBRANCH   8  19
ENDBRANCH   7  10
ENDBRANCH   1   7
BRANCH   4  23
ATOM     23  C   UNL     1      43.735   4.112   9.703  0.00  0.00    +0.000 C 
BRANCH  23  24
ATOM     24  N   UNL     1      44.075   2.731   9.381  0.00  0.00    +0.000 NA
ATOM     25  H   UNL     1      43.772   2.518   8.427  0.00  0.00    +0.000 HD
BRANCH  24  26
ATOM     26  C   UNL     1      45.525   2.500   9.442  0.00  0.00    +0.000 C 
BRANCH  26  27
ATOM     27  C   UNL     1      46.140   2.513   8.059  0.00  0.00    +0.000 A 
ATOM     28  N   UNL     1      46.151   3.706   7.394  0.00  0.00    +0.000 NA
ATOM     29  C   UNL     1      46.672   3.709   6.144  0.00  0.00    +0.000 A 
ATOM     30  C   UNL     1      47.197   2.588   5.521  0.00  0.00    +0.000 A 
ATOM     31  C   UNL     1      47.195   1.384   6.221  0.00  0.00    +0.000 A 
ATOM     32  C   UNL     1      46.662   1.349   7.502  0.00  0.00    +0.000 A 
ATOM     33  F   UNL     1      46.664   0.193   8.182  0.00  0.00    +0.000 F 
ENDBRANCH  26  27
ENDBRANCH  24  26
ENDBRANCH  23  24
ENDBRANCH   4  23
TORSDOF 8
ENDMDL
MODEL 6
REMARK VINA RESULT:    -6.147      4.382      9.187
REMARK INTER + INTRA:         -10.273
REMARK INTER:                  -8.344
REMARK INTRA:                  -1.929
REMARK UNBOUND:                -1.250
REMARK  Name = 
REMARK  9 active torsions:
REMARK  status: ('A' for Active; 'I' for Inactive)
REMARK    1  A    between atoms: C_1  and  O_2
REMARK    2  A    between atoms: O_2  and  C_3
REMARK    3  A    between atoms: C_10  and  C_11
REMARK    4  A    between atoms: N_13  and  C_14
REMARK    5  A    between atoms: C_14  and  C_15
REMARK    6  A    between atoms: C_18  and  C_19
REMARK    7  A    between atoms: C_19  and  N_20
REMARK    8  A    between atoms: N_20  and  C_21
REMARK    9  A    between atoms: C_21  and  C_22
REMARK                            x       y       z     vdW  Elec       q    Type
REMARK                         _______ _______ _______ _____ _____    ______ ____
ROOT
ATOM      1  C   UNL     1      48.028   4.682  17.477  0.00  0.00    +0.000 A 
ATOM      2  C   UNL     1      49.381   5.027  17.578  0.00  0.00    +0.000 A 
ATOM      3  C   UNL     1      49.835   5.824  18.633  0.00  0.00    +0.000 A 
ATOM      4  C   UNL     1      48.949   6.293  19.612  0.00  0.00    +0.000 A 
ATOM      5  C   UNL     1      47.593   5.958  19.503  0.00  0.00    +0.000 A 
ATOM      6  C   UNL     1      47.138   5.157  18.449  0.00  0.00    +0.000 A 
ENDROOT
BRANCH   1   7
ATOM      7  C   UNL     1      47.551   3.774  16.375  0.00  0.00    +0.000 C 
BRANCH   7  10
ATOM      8  C   UNL     1      46.732   4.151  14.093  0.00  0.00    +0.000 C 
ATOM      9  O   UNL     1      47.432   3.231  13.675  0.00  0.00    +0.000 OA
ATOM     10  N   UNL     1      46.737   4.491  15.419  0.00  0.00    +0.000 N 
ATOM     11  H   UNL     1      46.177   5.264  15.755  0.00  0.00    +0.000 HD
BRANCH   8  19
ATOM     12  C   UNL     1      46.596   7.472  13.135  0.00  0.00    +0.000 A 
ATOM     13  N   UNL     1      46.287   8.681  12.625  0.00  0.00    +0.000 NA
ATOM     14  C   UNL     1      45.245   8.770  11.795  0.00  0.00    +0.000 A 
ATOM     15  N   UNL     1      44.456   7.778  11.396  0.00  0.00    +0.000 NA
ATOM     16  C   UNL     1      44.789   6.593  11.933  0.00  0.00    +0.000 A 
ATOM     17  S   UNL     1      43.884   5.216  11.529  0.00  0.00    +0.000 S 
ATOM     18  C   UNL     1      44.843   4.235  12.529  0.00  0.00    +0.000 A 
ATOM     19  C   UNL     1      45.863   4.917  13.184  0.00  0.00    +0.000 A 
ATOM     20  C   UNL     1      45.835   6.333  12.817  0.00  0.00    +0.000 A 
BRANCH  12  22
ATOM     21  C   UNL     1      48.910   7.087  13.274  0.00  0.00    +0.000 C 
ATOM     22  O   UNL     1      47.696   7.371  13.966  0.00  0.00    +0.000 OA
ENDBRANCH  12  22
ENDBRANCH   8  19
ENDBRANCH   7  10
ENDBRANCH   1   7
BRANCH   4  23
ATOM     23  C   UNL     1      49.457   7.105  20.787  0.00  0.00    +0.000 C 
BRANCH  23  24
ATOM     24  N   UNL     1      50.372   8.156  20.359  0.00  0.00    +0.000 NA
ATOM     25  H   UNL     1      50.851   7.865  19.503  0.00  0.00    +0.000 HD
BRANCH  24  26
ATOM     26  C   UNL     1      49.660   9.407  20.060  0.00  0.00    +0.000 C 
BRANCH  26  27
ATOM     27  C   UNL     1      49.452   9.574  18.570  0.00  0.00    +0.000 A 
ATOM     28  N   UNL     1      50.546   9.905  17.822  0.00  0.00    +0.000 NA
ATOM     29  C   UNL     1      50.352  10.086  16.495  0.00  0.00    +0.000 A 
ATOM     30  C   UNL     1      49.125   9.944  15.865  0.00  0.00    +0.000 A 
ATOM     31  C   UNL     1      48.025   9.587  16.640  0.00  0.00    +0.000 A 
ATOM     32  C   UNL     1      48.192   9.400  18.005  0.00  0.00    +0.000 A 
ATOM     33  F   UNL     1      47.136   9.051  18.753  0.00  0.00    +0.000 F 
ENDBRANCH  26  27
ENDBRANCH  24  26
ENDBRANCH  23  24
ENDBRANCH   4  23
TORSDOF 8
ENDMDL
MODEL 7
REMARK VINA RESULT:    -6.115      5.046      9.574
REMARK INTER + INTRA:         -10.226
REMARK INTER:                  -9.196
REMARK INTRA:                  -1.030
REMARK UNBOUND:                -1.250
REMARK  Name = 
REMARK  9 active torsions:
REMARK  status: ('A' for Active; 'I' for Inactive)
REMARK    1  A    between atoms: C_1  and  O_2
REMARK    2  A    between atoms: O_2  and  C_3
REMARK    3  A    between atoms: C_10  and  C_11
REMARK    4  A    between atoms: N_13  and  C_14
REMARK    5  A    between atoms: C_14  and  C_15
REMARK    6  A    between atoms: C_18  and  C_19
REMARK    7  A    between atoms: C_19  and  N_20
REMARK    8  A    between atoms: N_20  and  C_21
REMARK    9  A    between atoms: C_21  and  C_22
REMARK                            x       y       z     vdW  Elec       q    Type
REMARK                         _______ _______ _______ _____ _____    ______ ____
ROOT
ATOM      1  C   UNL     1      48.915   3.612  17.508  0.00  0.00    +0.000 A 
ATOM      2  C   UNL     1      50.113   3.029  17.076  0.00  0.00    +0.000 A 
ATOM      3  C   UNL     1      51.309   3.272  17.759  0.00  0.00    +0.000 A 
ATOM      4  C   UNL     1      51.336   4.101  18.889  0.00  0.00    +0.000 A 
ATOM      5  C   UNL     1      50.139   4.694  19.312  0.00  0.00    +0.000 A 
ATOM      6  C   UNL     1      48.941   4.449  18.631  0.00  0.00    +0.000 A 
ENDROOT
BRANCH   1   7
ATOM      7  C   UNL     1      47.618   3.301  16.810  0.00  0.00    +0.000 C 
BRANCH   7  10
ATOM      8  C   UNL     1      47.129   4.241  14.597  0.00  0.00    +0.000 C 
ATOM      9  O   UNL     1      47.419   3.172  14.064  0.00  0.00    +0.000 OA
ATOM     10  N   UNL     1      47.208   4.392  15.955  0.00  0.00    +0.000 N 
ATOM     11  H   UNL     1      46.990   5.280  16.388  0.00  0.00    +0.000 HD
BRANCH   8  19
ATOM     12  C   UNL     1      44.337   4.884  12.660  0.00  0.00    +0.000 A 
ATOM     13  N   UNL     1      43.401   5.384  11.827  0.00  0.00    +0.000 NA
ATOM     14  C   UNL     1      43.593   6.604  11.320  0.00  0.00    +0.000 A 
ATOM     15  N   UNL     1      44.624   7.410  11.548  0.00  0.00    +0.000 NA
ATOM     16  C   UNL     1      45.538   6.873  12.373  0.00  0.00    +0.000 A 
ATOM     17  S   UNL     1      46.922   7.770  12.773  0.00  0.00    +0.000 S 
ATOM     18  C   UNL     1      47.513   6.511  13.746  0.00  0.00    +0.000 A 
ATOM     19  C   UNL     1      46.685   5.394  13.795  0.00  0.00    +0.000 A 
ATOM     20  C   UNL     1      45.494   5.618  12.977  0.00  0.00    +0.000 A 
BRANCH  12  22
ATOM     21  C   UNL     1      43.542   2.700  12.309  0.00  0.00    +0.000 C 
ATOM     22  O   UNL     1      44.123   3.636  13.215  0.00  0.00    +0.000 OA
ENDBRANCH  12  22
ENDBRANCH   8  19
ENDBRANCH   7  10
ENDBRANCH   1   7
BRANCH   4  23
ATOM     23  C   UNL     1      52.623   4.311  19.660  0.00  0.00    +0.000 C 
BRANCH  23  24
ATOM     24  N   UNL     1      53.184   3.049  20.125  0.00  0.00    +0.000 NA
ATOM     25  H   UNL     1      52.783   2.277  19.585  0.00  0.00    +0.000 HD
BRANCH  24  26
ATOM     26  C   UNL     1      54.642   3.002  19.940  0.00  0.00    +0.000 C 
BRANCH  26  27
ATOM     27  C   UNL     1      55.002   2.477  18.567  0.00  0.00    +0.000 A 
ATOM     28  N   UNL     1      55.474   3.382  17.658  0.00  0.00    +0.000 NA
ATOM     29  C   UNL     1      55.766   2.917  16.421  0.00  0.00    +0.000 A 
ATOM     30  C   UNL     1      55.625   1.592  16.039  0.00  0.00    +0.000 A 
ATOM     31  C   UNL     1      55.162   0.679  16.983  0.00  0.00    +0.000 A 
ATOM     32  C   UNL     1      54.849   1.128  18.258  0.00  0.00    +0.000 A 
ATOM     33  F   UNL     1      54.408   0.252  19.172  0.00  0.00    +0.000 F 
ENDBRANCH  26  27
ENDBRANCH  24  26
ENDBRANCH  23  24
ENDBRANCH   4  23
TORSDOF 8
ENDMDL
MODEL 8
REMARK VINA RESULT:    -5.839      4.358      9.355
REMARK INTER + INTRA:          -9.820
REMARK INTER:                  -8.618
REMARK INTRA:                  -1.202
REMARK UNBOUND:                -1.250
REMARK  Name = 
REMARK  9 active torsions:
REMARK  status: ('A' for Active; 'I' for Inactive)
REMARK    1  A    between atoms: C_1  and  O_2
REMARK    2  A    between atoms: O_2  and  C_3
REMARK    3  A    between atoms: C_10  and  C_11
REMARK    4  A    between atoms: N_13  and  C_14
REMARK    5  A    between atoms: C_14  and  C_15
REMARK    6  A    between atoms: C_18  and  C_19
REMARK    7  A    between atoms: C_19  and  N_20
REMARK    8  A    between atoms: N_20  and  C_21
REMARK    9  A    between atoms: C_21  and  C_22
REMARK                            x       y       z     vdW  Elec       q    Type
REMARK                         _______ _______ _______ _____ _____    ______ ____
ROOT
ATOM      1  C   UNL     1      48.768   3.849  17.697  0.00  0.00    +0.000 A 
ATOM      2  C   UNL     1      50.025   3.330  17.362  0.00  0.00    +0.000 A 
ATOM      3  C   UNL     1      51.152   3.645  18.129  0.00  0.00    +0.000 A 
ATOM      4  C   UNL     1      51.048   4.483  19.248  0.00  0.00    +0.000 A 
ATOM      5  C   UNL     1      49.792   5.012  19.573  0.00  0.00    +0.000 A 
ATOM      6  C   UNL     1      48.664   4.695  18.808  0.00  0.00    +0.000 A 
ENDROOT
BRANCH   1   7
ATOM      7  C   UNL     1      47.547   3.462  16.907  0.00  0.00    +0.000 C 
BRANCH   7  10
ATOM      8  C   UNL     1      47.041   4.307  14.660  0.00  0.00    +0.000 C 
ATOM      9  O   UNL     1      47.300   3.209  14.173  0.00  0.00    +0.000 OA
ATOM     10  N   UNL     1      47.145   4.520  16.008  0.00  0.00    +0.000 N 
ATOM     11  H   UNL     1      46.953   5.432  16.401  0.00  0.00    +0.000 HD
BRANCH   8  19
ATOM     12  C   UNL     1      44.273   4.881  12.667  0.00  0.00    +0.000 A 
ATOM     13  N   UNL     1      43.348   5.351  11.806  0.00  0.00    +0.000 NA
ATOM     14  C   UNL     1      43.547   6.552  11.257  0.00  0.00    +0.000 A 
ATOM     15  N   UNL     1      44.577   7.365  11.467  0.00  0.00    +0.000 NA
ATOM     16  C   UNL     1      45.480   6.858  12.323  0.00  0.00    +0.000 A 
ATOM     17  S   UNL     1      46.860   7.767  12.706  0.00  0.00    +0.000 S 
ATOM     18  C   UNL     1      47.438   6.544  13.732  0.00  0.00    +0.000 A 
ATOM     19  C   UNL     1      46.609   5.431  13.811  0.00  0.00    +0.000 A 
ATOM     20  C   UNL     1      45.427   5.626  12.971  0.00  0.00    +0.000 A 
BRANCH  12  22
ATOM     21  C   UNL     1      43.521   2.674  12.375  0.00  0.00    +0.000 C 
ATOM     22  O   UNL     1      44.051   3.655  13.264  0.00  0.00    +0.000 OA
ENDBRANCH  12  22
ENDBRANCH   8  19
ENDBRANCH   7  10
ENDBRANCH   1   7
BRANCH   4  23
ATOM     23  C   UNL     1      52.260   4.770  20.110  0.00  0.00    +0.000 C 
BRANCH  23  24
ATOM     24  N   UNL     1      53.502   4.440  19.421  0.00  0.00    +0.000 NA
ATOM     25  H   UNL     1      53.289   4.073  18.490  0.00  0.00    +0.000 HD
BRANCH  24  26
ATOM     26  C   UNL     1      54.353   5.625  19.241  0.00  0.00    +0.000 C 
BRANCH  26  27
ATOM     27  C   UNL     1      53.947   6.409  18.012  0.00  0.00    +0.000 A 
ATOM     28  N   UNL     1      53.359   7.625  18.215  0.00  0.00    +0.000 NA
ATOM     29  C   UNL     1      52.968   8.311  17.115  0.00  0.00    +0.000 A 
ATOM     30  C   UNL     1      53.140   7.856  15.817  0.00  0.00    +0.000 A 
ATOM     31  C   UNL     1      53.758   6.623  15.628  0.00  0.00    +0.000 A 
ATOM     32  C   UNL     1      54.166   5.895  16.737  0.00  0.00    +0.000 A 
ATOM     33  F   UNL     1      54.767   4.710  16.558  0.00  0.00    +0.000 F 
ENDBRANCH  26  27
ENDBRANCH  24  26
ENDBRANCH  23  24
ENDBRANCH   4  23
TORSDOF 8
ENDMDL
