MODEL 1
REMARK VINA RESULT:    -8.126      0.000      0.000
REMARK INTER + INTRA:         -14.379
REMARK INTER:                 -12.639
REMARK INTRA:                  -1.740
REMARK UNBOUND:                -1.740
REMARK  Name = 
REMARK  10 active torsions:
REMARK  status: ('A' for Active; 'I' for Inactive)
REMARK    1  A    between atoms: N_1  and  C_2
REMARK    2  A    between atoms: C_2  and  C_3
REMARK    3  A    between atoms: C_3  and  N_4
REMARK    4  A    between atoms: N_4  and  C_5
REMARK    5  A    between atoms: N_4  and  C_12
REMARK    6  A    between atoms: C_5  and  C_6
REMARK    7  A    between atoms: C_12  and  C_13
REMARK    8  A    between atoms: C_16  and  C_17
REMARK    9  A    between atoms: C_17  and  N_18
REMARK   10  A    between atoms: C_19  and  C_21
REMARK                            x       y       z     vdW  Elec       q    Type
REMARK                         _______ _______ _______ _____ _____    ______ ____
ROOT
ATOM      1  C   UNL     1      44.923   5.823  10.829  0.00  0.00    +0.000 A 
ATOM      2  C   UNL     1      46.285   5.972  10.596  0.00  0.00    +0.000 A 
ATOM      3  C   UNL     1      47.027   6.774  11.453  0.00  0.00    +0.000 A 
ATOM      4  C   UNL     1      46.375   7.415  12.496  0.00  0.00    +0.000 A 
ATOM      5  N   UNL     1      45.043   7.271  12.685  0.00  0.00    +0.000 NA
ATOM      6  N   UNL     1      44.314   6.471  11.847  0.00  0.00    +0.000 NA
ENDROOT
BRANCH   1   7
ATOM      7  C   UNL     1      44.087   4.864  10.002  0.00  0.00    +0.000 C 
BRANCH   7   8
ATOM      8  N   UNL     1      44.440   3.427  10.203  0.00  0.00    +0.000 NA
BRANCH   8   9
ATOM      9  C   UNL     1      43.506   2.836  11.204  0.00  0.00    +0.000 C 
BRANCH   9  10
ATOM     10  C   UNL     1      43.981   2.908  12.673  0.00  0.00    +0.000 C 
BRANCH  10  11
ATOM     11  N   UNL     1      45.445   2.884  12.771  0.00  0.00    +0.000 NA
ATOM     12  H   UNL     1      45.729   2.084  13.333  0.00  0.00    +0.000 HD
ATOM     13  H   UNL     1      45.765   3.714  13.270  0.00  0.00    +0.000 HD
ENDBRANCH  10  11
ENDBRANCH   9  10
ENDBRANCH   8   9
BRANCH   8  14
ATOM     14  C   UNL     1      44.327   2.702   8.915  0.00  0.00    +0.000 C 
BRANCH  14  15
ATOM     15  C   UNL     1      45.588   2.602   8.072  0.00  0.00    +0.000 A 
ATOM     16  C   UNL     1      46.363   1.443   8.072  0.00  0.00    +0.000 A 
ATOM     17  C   UNL     1      47.427   1.345   7.177  0.00  0.00    +0.000 A 
ATOM     18  C   UNL     1      47.692   2.401   6.312  0.00  0.00    +0.000 A 
ATOM     19  C   UNL     1      46.891   3.525   6.394  0.00  0.00    +0.000 A 
ATOM     20  N   UNL     1      45.853   3.649   7.248  0.00  0.00    +0.000 NA
ENDBRANCH  14  15
ENDBRANCH   8  14
ENDBRANCH   7   8
ENDBRANCH   1   7
BRANCH   4  21
ATOM     21  C   UNL     1      47.130   8.259  13.485  0.00  0.00    +0.000 C 
BRANCH  21  22
ATOM     22  N   UNL     1      47.542   7.507  14.651  0.00  0.00    +0.000 N 
ATOM     23  C   UNL     1      48.765   6.898  14.748  0.00  0.00    +0.000 C 
ATOM     24  O   UNL     1      49.595   6.963  13.844  0.00  0.00    +0.000 OA
ATOM     25  H   UNL     1      46.802   7.259  15.303  0.00  0.00    +0.000 HD
BRANCH  23  26
ATOM     26  C   UNL     1      49.065   6.223  16.019  0.00  0.00    +0.000 A 
ATOM     27  C   UNL     1      50.091   6.701  16.823  0.00  0.00    +0.000 A 
ATOM     28  S   UNL     1      50.281   5.837  18.281  0.00  0.00    +0.000 S 
ATOM     29  C   UNL     1      49.031   4.760  17.868  0.00  0.00    +0.000 A 
ATOM     30  N   UNL     1      48.694   3.733  18.694  0.00  0.00    +0.000 NA
ATOM     31  C   UNL     1      47.749   2.976  18.243  0.00  0.00    +0.000 A 
ATOM     32  N   UNL     1      47.109   3.156  17.044  0.00  0.00    +0.000 N 
ATOM     33  C   UNL     1      47.374   4.214  16.208  0.00  0.00    +0.000 A 
ATOM     34  O   UNL     1      46.708   4.413  15.200  0.00  0.00    +0.000 OA
ATOM     35  C   UNL     1      48.456   5.077  16.650  0.00  0.00    +0.000 A 
ATOM     36  H   UNL     1      46.364   2.539  16.756  0.00  0.00    +0.000 HD
ENDBRANCH  23  26
ENDBRANCH  21  22
ENDBRANCH   4  21
TORSDOF 10
ENDMDL
MODEL 2
REMARK VINA RESULT:    -7.748      2.577      3.756
REMARK INTER + INTRA:         -13.792
REMARK INTER:                 -12.440
REMARK INTRA:                  -1.352
REMARK UNBOUND:                -1.740
REMARK  Name = 
REMARK  10 active torsions:
REMARK  status: ('A' for Active; 'I' for Inactive)
REMARK    1  A    between atoms: N_1  and  C_2
REMARK    2  A    between atoms: C_2  and  C_3
REMARK    3  A    between atoms: C_3  and  N_4
REMARK    4  A    between atoms: N_4  and  C_5
REMARK    5  A    between atoms: N_4  and  C_12
REMARK    6  A    between atoms: C_5  and  C_6
REMARK    7  A    between atoms: C_12  and  C_13
REMARK    8  A    between atoms: C_16  and  C_17
REMARK    9  A    between atoms: C_17  and  N_18
REMARK   10  A    between atoms: C_19  and  C_21
REMARK                            x       y       z     vdW  Elec       q    Type
REMARK                         _______ _______ _______ _____ _____    ______ ____
ROOT
ATOM      1  C   UNL     1      46.141   5.129  12.173  0.00  0.00    +0.000 A 
ATOM      2  C   UNL     1      46.892   6.097  12.828  0.00  0.00    +0.000 A 
ATOM      3  C   UNL     1      47.380   5.821  14.098  0.00  0.00    +0.000 A 
ATOM      4  C   UNL     1      47.079   4.596  14.675  0.00  0.00    +0.000 A 
ATOM      5  N   UNL     1      46.326   3.680  14.024  0.00  0.00    +0.000 NA
ATOM      6  N   UNL     1      45.855   3.948  12.766  0.00  0.00    +0.000 NA
ENDROOT
BRANCH   1   7
ATOM      7  C   UNL     1      45.688   5.326  10.739  0.00  0.00    +0.000 C 
BRANCH   7   8
ATOM      8  N   UNL     1      44.408   4.632  10.409  0.00  0.00    +0.000 NA
BRANCH   8   9
ATOM      9  C   UNL     1      43.268   5.504  10.812  0.00  0.00    +0.000 C 
BRANCH   9  10
ATOM     10  C   UNL     1      42.464   5.015  12.039  0.00  0.00    +0.000 C 
BRANCH  10  11
ATOM     11  N   UNL     1      42.929   5.648  13.278  0.00  0.00    +0.000 NA
ATOM     12  H   UNL     1      43.918   5.442  13.407  0.00  0.00    +0.000 HD
ATOM     13  H   UNL     1      42.444   5.235  14.073  0.00  0.00    +0.000 HD
ENDBRANCH  10  11
ENDBRANCH   9  10
ENDBRANCH   8   9
BRANCH   8  14
ATOM     14  C   UNL     1      44.348   4.363   8.952  0.00  0.00    +0.000 C 
BRANCH  14  15
ATOM     15  C   UNL     1      45.420   3.450   8.379  0.00  0.00    +0.000 A 
ATOM     16  C   UNL     1      45.484   2.103   8.735  0.00  0.00    +0.000 A 
ATOM     17  C   UNL     1      46.392   1.276   8.077  0.00  0.00    +0.000 A 
ATOM     18  C   UNL     1      47.212   1.810   7.090  0.00  0.00    +0.000 A 
ATOM     19  C   UNL     1      47.104   3.161   6.814  0.00  0.00    +0.000 A 
ATOM     20  N   UNL     1      46.234   3.988   7.433  0.00  0.00    +0.000 NA
ENDBRANCH  14  15
ENDBRANCH   8  14
ENDBRANCH   7   8
ENDBRANCH   1   7
BRANCH   4  21
ATOM     21  C   UNL     1      47.616   4.219  16.028  0.00  0.00    +0.000 C 
BRANCH  21  22
ATOM     22  N   UNL     1      47.454   5.277  17.001  0.00  0.00    +0.000 N 
ATOM     23  C   UNL     1      48.507   6.004  17.489  0.00  0.00    +0.000 C 
ATOM     24  O   UNL     1      49.661   5.803  17.118  0.00  0.00    +0.000 OA
ATOM     25  H   UNL     1      46.556   5.309  17.476  0.00  0.00    +0.000 HD
BRANCH  23  26
ATOM     26  C   UNL     1      48.180   7.088  18.426  0.00  0.00    +0.000 A 
ATOM     27  C   UNL     1      47.993   6.799  19.771  0.00  0.00    +0.000 A 
ATOM     28  S   UNL     1      47.668   8.171  20.730  0.00  0.00    +0.000 S 
ATOM     29  C   UNL     1      47.713   9.196  19.374  0.00  0.00    +0.000 A 
ATOM     30  N   UNL     1      47.481  10.530  19.500  0.00  0.00    +0.000 NA
ATOM     31  C   UNL     1      47.516  11.184  18.386  0.00  0.00    +0.000 A 
ATOM     32  N   UNL     1      47.769  10.626  17.161  0.00  0.00    +0.000 N 
ATOM     33  C   UNL     1      48.070   9.296  16.995  0.00  0.00    +0.000 A 
ATOM     34  O   UNL     1      48.404   8.847  15.904  0.00  0.00    +0.000 OA
ATOM     35  C   UNL     1      48.006   8.505  18.212  0.00  0.00    +0.000 A 
ATOM     36  H   UNL     1      47.802  11.195  16.328  0.00  0.00    +0.000 HD
ENDBRANCH  23  26
ENDBRANCH  21  22
ENDBRANCH   4  21
TORSDOF 10
ENDMDL
MODEL 3
REMARK VINA RESULT:    -7.119      1.636      2.100
REMARK INTER + INTRA:         -12.813
REMARK INTER:                 -12.036
REMARK INTRA:                  -0.777
REMARK UNBOUND:                -1.740
REMARK  Name = 
REMARK  10 active torsions:
REMARK  status: ('A' for Active; 'I' for Inactive)
REMARK    1  A    between atoms: N_1  and  C_2
REMARK    2  A    between atoms: C_2  and  C_3
REMARK    3  A    between atoms: C_3  and  N_4
REMARK    4  A    between atoms: N_4  and  C_5
REMARK    5  A    between atoms: N_4  and  C_12
REMARK    6  A    between atoms: C_5  and  C_6
REMARK    7  A    between atoms: C_12  and  C_13
REMARK    8  A    between atoms: C_16  and  C_17
REMARK    9  A    between atoms: C_17  and  N_18
REMARK   10  A    between atoms: C_19  and  C_21
REMARK                            x       y       z     vdW  Elec       q    Type
REMARK                         _______ _______ _______ _____ _____    ______ ____
ROOT
ATOM      1  C   UNL     1      45.608   6.570  11.751  0.00  0.00    +0.000 A 
ATOM      2  C   UNL     1      45.199   7.778  12.301  0.00  0.00    +0.000 A 
ATOM      3  C   UNL     1      46.079   8.475  13.118  0.00  0.00    +0.000 A 
ATOM      4  C   UNL     1      47.327   7.926  13.373  0.00  0.00    +0.000 A 
ATOM      5  N   UNL     1      47.691   6.735  12.843  0.00  0.00    +0.000 NA
ATOM      6  N   UNL     1      46.827   6.054  12.028  0.00  0.00    +0.000 NA
ENDROOT
BRANCH   1   7
ATOM      7  C   UNL     1      44.738   5.827  10.755  0.00  0.00    +0.000 C 
BRANCH   7   8
ATOM      8  N   UNL     1      45.220   4.449  10.440  0.00  0.00    +0.000 NA
BRANCH   8   9
ATOM      9  C   UNL     1      44.775   3.523  11.520  0.00  0.00    +0.000 C 
BRANCH   9  10
ATOM     10  C   UNL     1      43.253   3.253  11.572  0.00  0.00    +0.000 C 
BRANCH  10  11
ATOM     11  N   UNL     1      42.962   1.820  11.692  0.00  0.00    +0.000 NA
ATOM     12  H   UNL     1      42.045   1.632  11.292  0.00  0.00    +0.000 HD
ATOM     13  H   UNL     1      42.902   1.568  12.678  0.00  0.00    +0.000 HD
ENDBRANCH  10  11
ENDBRANCH   9  10
ENDBRANCH   8   9
BRANCH   8  14
ATOM     14  C   UNL     1      44.664   4.012   9.137  0.00  0.00    +0.000 C 
BRANCH  14  15
ATOM     15  C   UNL     1      45.544   3.113   8.284  0.00  0.00    +0.000 A 
ATOM     16  C   UNL     1      46.347   3.641   7.273  0.00  0.00    +0.000 A 
ATOM     17  C   UNL     1      47.241   2.799   6.615  0.00  0.00    +0.000 A 
ATOM     18  C   UNL     1      47.309   1.458   6.975  0.00  0.00    +0.000 A 
ATOM     19  C   UNL     1      46.460   1.008   7.970  0.00  0.00    +0.000 A 
ATOM     20  N   UNL     1      45.585   1.799   8.628  0.00  0.00    +0.000 NA
ENDBRANCH  14  15
ENDBRANCH   8  14
ENDBRANCH   7   8
ENDBRANCH   1   7
BRANCH   4  21
ATOM     21  C   UNL     1      48.342   8.653  14.211  0.00  0.00    +0.000 C 
BRANCH  21  22
ATOM     22  N   UNL     1      48.285   8.268  15.605  0.00  0.00    +0.000 N 
ATOM     23  C   UNL     1      49.092   7.301  16.141  0.00  0.00    +0.000 C 
ATOM     24  O   UNL     1      49.926   6.703  15.464  0.00  0.00    +0.000 OA
ATOM     25  H   UNL     1      47.468   8.586  16.119  0.00  0.00    +0.000 HD
BRANCH  23  26
ATOM     26  C   UNL     1      48.963   7.063  17.585  0.00  0.00    +0.000 A 
ATOM     27  C   UNL     1      48.905   8.143  18.456  0.00  0.00    +0.000 A 
ATOM     28  S   UNL     1      48.709   7.699  20.091  0.00  0.00    +0.000 S 
ATOM     29  C   UNL     1      48.746   6.043  19.701  0.00  0.00    +0.000 A 
ATOM     30  N   UNL     1      48.653   5.096  20.672  0.00  0.00    +0.000 NA
ATOM     31  C   UNL     1      48.725   3.881  20.239  0.00  0.00    +0.000 A 
ATOM     32  N   UNL     1      48.876   3.529  18.923  0.00  0.00    +0.000 N 
ATOM     33  C   UNL     1      48.911   4.449  17.904  0.00  0.00    +0.000 A 
ATOM     34  O   UNL     1      48.931   4.101  16.729  0.00  0.00    +0.000 OA
ATOM     35  C   UNL     1      48.872   5.835  18.339  0.00  0.00    +0.000 A 
ATOM     36  H   UNL     1      48.906   2.559  18.646  0.00  0.00    +0.000 HD
ENDBRANCH  23  26
ENDBRANCH  21  22
ENDBRANCH   4  21
TORSDOF 10
ENDMDL
MODEL 4
REMARK VINA RESULT:    -7.119      3.039      5.045
REMARK INTER + INTRA:         -12.812
REMARK INTER:                 -11.785
REMARK INTRA:                  -1.027
REMARK UNBOUND:                -1.740
REMARK  Name = 
REMARK  10 active torsions:
REMARK  status: ('A' for Active; 'I' for Inactive)
REMARK    1  A    between atoms: N_1  and  C_2
REMARK    2  A    between atoms: C_2  and  C_3
REMARK    3  A    between atoms: C_3  and  N_4
REMARK    4  A    between atoms: N_4  and  C_5
REMARK    5  A    between atoms: N_4  and  C_12
REMARK    6  A    between atoms: C_5  and  C_6
REMARK    7  A    between atoms: C_12  and  C_13
REMARK    8  A    between atoms: C_16  and  C_17
REMARK    9  A    between atoms: C_17  and  N_18
REMARK   10  A    between atoms: C_19  and  C_21
REMARK                            x       y       z     vdW  Elec       q    Type
REMARK                         _______ _______ _______ _____ _____    ______ ____
ROOT
ATOM      1  C   UNL     1      47.300   5.510  14.026  0.00  0.00    +0.000 A 
ATOM      2  C   UNL     1      48.110   6.070  15.007  0.00  0.00    +0.000 A 
ATOM      3  C   UNL     1      48.300   5.378  16.195  0.00  0.00    +0.000 A 
ATOM      4  C   UNL     1      47.656   4.162  16.367  0.00  0.00    +0.000 A 
ATOM      5  N   UNL     1      46.853   3.650  15.405  0.00  0.00    +0.000 NA
ATOM      6  N   UNL     1      46.676   4.328  14.229  0.00  0.00    +0.000 NA
ENDROOT
BRANCH   1   7
ATOM      7  C   UNL     1      47.155   6.160  12.664  0.00  0.00    +0.000 C 
BRANCH   7   8
ATOM      8  N   UNL     1      45.782   6.055  12.087  0.00  0.00    +0.000 NA
BRANCH   8   9
ATOM      9  C   UNL     1      44.983   7.236  12.523  0.00  0.00    +0.000 C 
BRANCH   9  10
ATOM     10  C   UNL     1      44.555   8.198  11.391  0.00  0.00    +0.000 C 
BRANCH  10  11
ATOM     11  N   UNL     1      43.141   8.024  11.038  0.00  0.00    +0.000 NA
ATOM     12  H   UNL     1      42.920   7.030  11.031  0.00  0.00    +0.000 HD
ATOM     13  H   UNL     1      42.985   8.360  10.088  0.00  0.00    +0.000 HD
ENDBRANCH  10  11
ENDBRANCH   9  10
ENDBRANCH   8   9
BRANCH   8  14
ATOM     14  C   UNL     1      45.864   6.019  10.607  0.00  0.00    +0.000 C 
BRANCH  14  15
ATOM     15  C   UNL     1      45.327   4.773   9.922  0.00  0.00    +0.000 A 
ATOM     16  C   UNL     1      45.625   4.501   8.587  0.00  0.00    +0.000 A 
ATOM     17  C   UNL     1      45.231   3.280   8.044  0.00  0.00    +0.000 A 
ATOM     18  C   UNL     1      44.549   2.366   8.840  0.00  0.00    +0.000 A 
ATOM     19  C   UNL     1      44.270   2.723  10.147  0.00  0.00    +0.000 A 
ATOM     20  N   UNL     1      44.640   3.898  10.702  0.00  0.00    +0.000 NA
ENDBRANCH  14  15
ENDBRANCH   8  14
ENDBRANCH   7   8
ENDBRANCH   1   7
BRANCH   4  21
ATOM     21  C   UNL     1      47.858   3.342  17.611  0.00  0.00    +0.000 C 
BRANCH  21  22
ATOM     22  N   UNL     1      49.257   3.092  17.886  0.00  0.00    +0.000 N 
ATOM     23  C   UNL     1      50.033   2.279  17.103  0.00  0.00    +0.000 C 
ATOM     24  O   UNL     1      49.584   1.716  16.107  0.00  0.00    +0.000 OA
ATOM     25  H   UNL     1      49.583   3.363  18.809  0.00  0.00    +0.000 HD
BRANCH  23  26
ATOM     26  C   UNL     1      51.452   2.170  17.471  0.00  0.00    +0.000 A 
ATOM     27  C   UNL     1      52.023   0.916  17.638  0.00  0.00    +0.000 A 
ATOM     28  S   UNL     1      53.685   0.961  18.017  0.00  0.00    +0.000 S 
ATOM     29  C   UNL     1      53.691   2.662  18.023  0.00  0.00    +0.000 A 
ATOM     30  N   UNL     1      54.826   3.354  18.312  0.00  0.00    +0.000 NA
ATOM     31  C   UNL     1      54.681   4.638  18.310  0.00  0.00    +0.000 A 
ATOM     32  N   UNL     1      53.506   5.291  18.041  0.00  0.00    +0.000 N 
ATOM     33  C   UNL     1      52.353   4.635  17.683  0.00  0.00    +0.000 A 
ATOM     34  O   UNL     1      51.351   5.249  17.337  0.00  0.00    +0.000 OA
ATOM     35  C   UNL     1      52.450   3.186  17.707  0.00  0.00    +0.000 A 
ATOM     36  H   UNL     1      53.462   6.300  18.036  0.00  0.00    +0.000 HD
ENDBRANCH  23  26
ENDBRANCH  21  22
ENDBRANCH   4  21
TORSDOF 10
ENDMDL
MODEL 5
REMARK VINA RESULT:    -7.085      2.822      3.785
REMARK INTER + INTRA:         -12.760
REMARK INTER:                 -11.672
REMARK INTRA:                  -1.087
REMARK UNBOUND:                -1.740
REMARK  Name = 
REMARK  10 active torsions:
REMARK  status: ('A' for Active; 'I' for Inactive)
REMARK    1  A    between atoms: N_1  and  C_2
REMARK    2  A    between atoms: C_2  and  C_3
REMARK    3  A    between atoms: C_3  and  N_4
REMARK    4  A    between atoms: N_4  and  C_5
REMARK    5  A    between atoms: N_4  and  C_12
REMARK    6  A    between atoms: C_5  and  C_6
REMARK    7  A    between atoms: C_12  and  C_13
REMARK    8  A    between atoms: C_16  and  C_17
REMARK    9  A    between atoms: C_17  and  N_18
REMARK   10  A    between atoms: C_19  and  C_21
REMARK                            x       y       z     vdW  Elec       q    Type
REMARK                         _______ _______ _______ _____ _____    ______ ____
ROOT
ATOM      1  C   UNL     1      46.462   5.300  12.615  0.00  0.00    +0.000 A 
ATOM      2  C   UNL     1      47.174   6.145  13.457  0.00  0.00    +0.000 A 
ATOM      3  C   UNL     1      47.515   5.696  14.726  0.00  0.00    +0.000 A 
ATOM      4  C   UNL     1      47.110   4.428  15.113  0.00  0.00    +0.000 A 
ATOM      5  N   UNL     1      46.396   3.634  14.282  0.00  0.00    +0.000 NA
ATOM      6  N   UNL     1      46.072   4.073  13.026  0.00  0.00    +0.000 NA
ENDROOT
BRANCH   1   7
ATOM      7  C   UNL     1      46.171   5.689  11.178  0.00  0.00    +0.000 C 
BRANCH   7   8
ATOM      8  N   UNL     1      45.017   4.956  10.576  0.00  0.00    +0.000 NA
BRANCH   8   9
ATOM      9  C   UNL     1      43.750   5.601  11.022  0.00  0.00    +0.000 C 
BRANCH   9  10
ATOM     10  C   UNL     1      42.895   4.768  12.006  0.00  0.00    +0.000 C 
BRANCH  10  11
ATOM     11  N   UNL     1      42.652   5.491  13.259  0.00  0.00    +0.000 NA
ATOM     12  H   UNL     1      43.460   5.382  13.869  0.00  0.00    +0.000 HD
ATOM     13  H   UNL     1      41.864   5.067  13.748  0.00  0.00    +0.000 HD
ENDBRANCH  10  11
ENDBRANCH   9  10
ENDBRANCH   8   9
BRANCH   8  14
ATOM     14  C   UNL     1      45.114   5.002   9.097  0.00  0.00    +0.000 C 
BRANCH  14  15
ATOM     15  C   UNL     1      45.659   3.762   8.408  0.00  0.00    +0.000 A 
ATOM     16  C   UNL     1      46.583   3.864   7.367  0.00  0.00    +0.000 A 
ATOM     17  C   UNL     1      47.161   2.701   6.864  0.00  0.00    +0.000 A 
ATOM     18  C   UNL     1      46.803   1.471   7.404  0.00  0.00    +0.000 A 
ATOM     19  C   UNL     1      45.861   1.453   8.416  0.00  0.00    +0.000 A 
ATOM     20  N   UNL     1      45.284   2.563   8.926  0.00  0.00    +0.000 NA
ENDBRANCH  14  15
ENDBRANCH   8  14
ENDBRANCH   7   8
ENDBRANCH   1   7
BRANCH   4  21
ATOM     21  C   UNL     1      47.487   3.866  16.456  0.00  0.00    +0.000 C 
BRANCH  21  22
ATOM     22  N   UNL     1      48.920   3.784  16.638  0.00  0.00    +0.000 N 
ATOM     23  C   UNL     1      49.564   4.335  17.714  0.00  0.00    +0.000 C 
ATOM     24  O   UNL     1      48.954   4.928  18.601  0.00  0.00    +0.000 OA
ATOM     25  H   UNL     1      49.455   3.498  15.822  0.00  0.00    +0.000 HD
BRANCH  23  26
ATOM     26  C   UNL     1      51.015   4.117  17.794  0.00  0.00    +0.000 A 
ATOM     27  C   UNL     1      51.858   5.194  18.036  0.00  0.00    +0.000 A 
ATOM     28  S   UNL     1      53.505   4.767  18.146  0.00  0.00    +0.000 S 
ATOM     29  C   UNL     1      53.159   3.134  17.823  0.00  0.00    +0.000 A 
ATOM     30  N   UNL     1      54.155   2.212  17.746  0.00  0.00    +0.000 NA
ATOM     31  C   UNL     1      53.754   1.016  17.465  0.00  0.00    +0.000 A 
ATOM     32  N   UNL     1      52.446   0.660  17.260  0.00  0.00    +0.000 N 
ATOM     33  C   UNL     1      51.403   1.544  17.389  0.00  0.00    +0.000 A 
ATOM     34  O   UNL     1      50.237   1.173  17.313  0.00  0.00    +0.000 OA
ATOM     35  C   UNL     1      51.801   2.913  17.667  0.00  0.00    +0.000 A 
ATOM     36  H   UNL     1      52.194  -0.298  17.062  0.00  0.00    +0.000 HD
ENDBRANCH  23  26
ENDBRANCH  21  22
ENDBRANCH   4  21
TORSDOF 10
ENDMDL
MODEL 6
REMARK VINA RESULT:    -6.959      2.161      2.683
REMARK INTER + INTRA:         -12.564
REMARK INTER:                 -11.698
REMARK INTRA:                  -0.866
REMARK UNBOUND:                -1.740
REMARK  Name = 
REMARK  10 active torsions:
REMARK  status: ('A' for Active; 'I' for Inactive)
REMARK    1  A    between atoms: N_1  and  C_2
REMARK    2  A    between atoms: C_2  and  C_3
REMARK    3  A    between atoms: C_3  and  N_4
REMARK    4  A    between atoms: N_4  and  C_5
REMARK    5  A    between atoms: N_4  and  C_12
REMARK    6  A    between atoms: C_5  and  C_6
REMARK    7  A    between atoms: C_12  and  C_13
REMARK    8  A    between atoms: C_16  and  C_17
REMARK    9  A    between atoms: C_17  and  N_18
REMARK   10  A    between atoms: C_19  and  C_21
REMARK                            x       y       z     vdW  Elec       q    Type
REMARK                         _______ _______ _______ _____ _____    ______ ____
ROOT
ATOM      1  C   UNL     1      46.620   6.482  11.944  0.00  0.00    +0.000 A 
ATOM      2  C   UNL     1      46.992   5.500  12.853  0.00  0.00    +0.000 A 
ATOM      3  C   UNL     1      47.653   5.878  14.014  0.00  0.00    +0.000 A 
ATOM      4  C   UNL     1      47.937   7.221  14.210  0.00  0.00    +0.000 A 
ATOM      5  N   UNL     1      47.584   8.155  13.297  0.00  0.00    +0.000 NA
ATOM      6  N   UNL     1      46.921   7.782  12.158  0.00  0.00    +0.000 NA
ENDROOT
BRANCH   1   7
ATOM      7  C   UNL     1      45.789   6.143  10.721  0.00  0.00    +0.000 C 
BRANCH   7   8
ATOM      8  N   UNL     1      45.304   4.731  10.692  0.00  0.00    +0.000 NA
BRANCH   8   9
ATOM      9  C   UNL     1      44.257   4.558  11.739  0.00  0.00    +0.000 C 
BRANCH   9  10
ATOM     10  C   UNL     1      44.103   3.121  12.289  0.00  0.00    +0.000 C 
BRANCH  10  11
ATOM     11  N   UNL     1      43.101   2.358  11.537  0.00  0.00    +0.000 NA
ATOM     12  H   UNL     1      42.229   2.883  11.516  0.00  0.00    +0.000 HD
ATOM     13  H   UNL     1      42.900   1.487  12.027  0.00  0.00    +0.000 HD
ENDBRANCH  10  11
ENDBRANCH   9  10
ENDBRANCH   8   9
BRANCH   8  14
ATOM     14  C   UNL     1      44.739   4.425   9.356  0.00  0.00    +0.000 C 
BRANCH  14  15
ATOM     15  C   UNL     1      45.463   3.374   8.530  0.00  0.00    +0.000 A 
ATOM     16  C   UNL     1      46.330   3.740   7.501  0.00  0.00    +0.000 A 
ATOM     17  C   UNL     1      47.079   2.750   6.868  0.00  0.00    +0.000 A 
ATOM     18  C   UNL     1      46.943   1.427   7.272  0.00  0.00    +0.000 A 
ATOM     19  C   UNL     1      46.043   1.144   8.283  0.00  0.00    +0.000 A 
ATOM     20  N   UNL     1      45.304   2.081   8.916  0.00  0.00    +0.000 NA
ENDBRANCH  14  15
ENDBRANCH   8  14
ENDBRANCH   7   8
ENDBRANCH   1   7
BRANCH   4  21
ATOM     21  C   UNL     1      48.609   7.700  15.468  0.00  0.00    +0.000 C 
BRANCH  21  22
ATOM     22  N   UNL     1      49.657   6.805  15.909  0.00  0.00    +0.000 N 
ATOM     23  C   UNL     1      49.633   6.177  17.126  0.00  0.00    +0.000 C 
ATOM     24  O   UNL     1      48.706   6.331  17.917  0.00  0.00    +0.000 OA
ATOM     25  H   UNL     1      50.521   6.837  15.375  0.00  0.00    +0.000 HD
BRANCH  23  26
ATOM     26  C   UNL     1      50.737   5.249  17.409  0.00  0.00    +0.000 A 
ATOM     27  C   UNL     1      51.975   5.751  17.789  0.00  0.00    +0.000 A 
ATOM     28  S   UNL     1      53.132   4.545  18.125  0.00  0.00    +0.000 S 
ATOM     29  C   UNL     1      52.037   3.307  17.725  0.00  0.00    +0.000 A 
ATOM     30  N   UNL     1      52.412   2.001  17.775  0.00  0.00    +0.000 NA
ATOM     31  C   UNL     1      51.491   1.168  17.417  0.00  0.00    +0.000 A 
ATOM     32  N   UNL     1      50.229   1.524  17.020  0.00  0.00    +0.000 N 
ATOM     33  C   UNL     1      49.787   2.825  17.015  0.00  0.00    +0.000 A 
ATOM     34  O   UNL     1      48.620   3.102  16.766  0.00  0.00    +0.000 OA
ATOM     35  C   UNL     1      50.796   3.807  17.373  0.00  0.00    +0.000 A 
ATOM     36  H   UNL     1      49.546   0.823  16.770  0.00  0.00    +0.000 HD
ENDBRANCH  23  26
ENDBRANCH  21  22
ENDBRANCH   4  21
TORSDOF 10
ENDMDL
MODEL 7
REMARK VINA RESULT:    -6.552      3.049      5.647
REMARK INTER + INTRA:         -11.931
REMARK INTER:                 -10.497
REMARK INTRA:                  -1.434
REMARK UNBOUND:                -1.740
REMARK  Name = 
REMARK  10 active torsions:
REMARK  status: ('A' for Active; 'I' for Inactive)
REMARK    1  A    between atoms: N_1  and  C_2
REMARK    2  A    between atoms: C_2  and  C_3
REMARK    3  A    between atoms: C_3  and  N_4
REMARK    4  A    between atoms: N_4  and  C_5
REMARK    5  A    between atoms: N_4  and  C_12
REMARK    6  A    between atoms: C_5  and  C_6
REMARK    7  A    between atoms: C_12  and  C_13
REMARK    8  A    between atoms: C_16  and  C_17
REMARK    9  A    between atoms: C_17  and  N_18
REMARK   10  A    between atoms: C_19  and  C_21
REMARK                            x       y       z     vdW  Elec       q    Type
REMARK                         _______ _______ _______ _____ _____    ______ ____
ROOT
ATOM      1  C   UNL     1      47.478   5.722  13.618  0.00  0.00    +0.000 A 
ATOM      2  C   UNL     1      46.867   4.474  13.619  0.00  0.00    +0.000 A 
ATOM      3  C   UNL     1      46.956   3.686  14.759  0.00  0.00    +0.000 A 
ATOM      4  C   UNL     1      47.671   4.166  15.846  0.00  0.00    +0.000 A 
ATOM      5  N   UNL     1      48.276   5.375  15.809  0.00  0.00    +0.000 NA
ATOM      6  N   UNL     1      48.178   6.157  14.690  0.00  0.00    +0.000 NA
ENDROOT
BRANCH   1   7
ATOM      7  C   UNL     1      47.310   6.676  12.450  0.00  0.00    +0.000 C 
BRANCH   7   8
ATOM      8  N   UNL     1      46.099   7.543  12.548  0.00  0.00    +0.000 NA
BRANCH   8   9
ATOM      9  C   UNL     1      46.515   8.970  12.425  0.00  0.00    +0.000 C 
BRANCH   9  10
ATOM     10  C   UNL     1      47.976   9.269  12.833  0.00  0.00    +0.000 C 
BRANCH  10  11
ATOM     11  N   UNL     1      48.058  10.406  13.755  0.00  0.00    +0.000 NA
ATOM     12  H   UNL     1      47.126  10.791  13.894  0.00  0.00    +0.000 HD
ATOM     13  H   UNL     1      48.614  11.148  13.330  0.00  0.00    +0.000 HD
ENDBRANCH  10  11
ENDBRANCH   9  10
ENDBRANCH   8   9
BRANCH   8  14
ATOM     14  C   UNL     1      45.150   7.198  11.462  0.00  0.00    +0.000 C 
BRANCH  14  15
ATOM     15  C   UNL     1      44.454   5.850  11.563  0.00  0.00    +0.000 A 
ATOM     16  C   UNL     1      44.673   4.854  10.611  0.00  0.00    +0.000 A 
ATOM     17  C   UNL     1      44.127   3.590  10.823  0.00  0.00    +0.000 A 
ATOM     18  C   UNL     1      43.377   3.352  11.969  0.00  0.00    +0.000 A 
ATOM     19  C   UNL     1      43.186   4.400  12.851  0.00  0.00    +0.000 A 
ATOM     20  N   UNL     1      43.703   5.635  12.675  0.00  0.00    +0.000 NA
ENDBRANCH  14  15
ENDBRANCH   8  14
ENDBRANCH   7   8
ENDBRANCH   1   7
BRANCH   4  21
ATOM     21  C   UNL     1      47.765   3.380  17.125  0.00  0.00    +0.000 C 
BRANCH  21  22
ATOM     22  N   UNL     1      49.133   3.170  17.545  0.00  0.00    +0.000 N 
ATOM     23  C   UNL     1      49.959   2.253  16.952  0.00  0.00    +0.000 C 
ATOM     24  O   UNL     1      49.584   1.554  16.013  0.00  0.00    +0.000 OA
ATOM     25  H   UNL     1      49.388   3.571  18.444  0.00  0.00    +0.000 HD
BRANCH  23  26
ATOM     26  C   UNL     1      51.342   2.196  17.446  0.00  0.00    +0.000 A 
ATOM     27  C   UNL     1      51.935   0.963  17.683  0.00  0.00    +0.000 A 
ATOM     28  S   UNL     1      53.555   1.068  18.207  0.00  0.00    +0.000 S 
ATOM     29  C   UNL     1      53.507   2.769  18.186  0.00  0.00    +0.000 A 
ATOM     30  N   UNL     1      54.589   3.501  18.562  0.00  0.00    +0.000 NA
ATOM     31  C   UNL     1      54.404   4.780  18.526  0.00  0.00    +0.000 A 
ATOM     32  N   UNL     1      53.238   5.390  18.144  0.00  0.00    +0.000 N 
ATOM     33  C   UNL     1      52.143   4.692  17.696  0.00  0.00    +0.000 A 
ATOM     34  O   UNL     1      51.156   5.267  17.253  0.00  0.00    +0.000 OA
ATOM     35  C   UNL     1      52.283   3.247  17.752  0.00  0.00    +0.000 A 
ATOM     36  H   UNL     1      53.163   6.396  18.119  0.00  0.00    +0.000 HD
ENDBRANCH  23  26
ENDBRANCH  21  22
ENDBRANCH   4  21
TORSDOF 10
ENDMDL
MODEL 8
REMARK VINA RESULT:    -6.412      2.964      8.451
REMARK INTER + INTRA:         -11.714
REMARK INTER:                 -10.093
REMARK INTRA:                  -1.621
REMARK UNBOUND:                -1.740
REMARK  Name = 
REMARK  10 active torsions:
REMARK  status: ('A' for Active; 'I' for Inactive)
REMARK    1  A    between atoms: N_1  and  C_2
REMARK    2  A    between atoms: C_2  and  C_3
REMARK    3  A    between atoms: C_3  and  N_4
REMARK    4  A    between atoms: N_4  and  C_5
REMARK    5  A    between atoms: N_4  and  C_12
REMARK    6  A    between atoms: C_5  and  C_6
REMARK    7  A    between atoms: C_12  and  C_13
REMARK    8  A    between atoms: C_16  and  C_17
REMARK    9  A    between atoms: C_17  and  N_18
REMARK   10  A    between atoms: C_19  and  C_21
REMARK                            x       y       z     vdW  Elec       q    Type
REMARK                         _______ _______ _______ _____ _____    ______ ____
ROOT
ATOM      1  C   UNL     1      49.233   7.655  15.812  0.00  0.00    +0.000 A 
ATOM      2  C   UNL     1      48.450   8.752  15.474  0.00  0.00    +0.000 A 
ATOM      3  C   UNL     1      47.858   8.792  14.219  0.00  0.00    +0.000 A 
ATOM      4  C   UNL     1      48.091   7.745  13.340  0.00  0.00    +0.000 A 
ATOM      5  N   UNL     1      48.877   6.699  13.686  0.00  0.00    +0.000 NA
ATOM      6  N   UNL     1      49.450   6.655  14.928  0.00  0.00    +0.000 NA
ENDROOT
BRANCH   1   7
ATOM      7  C   UNL     1      49.802   7.498  17.209  0.00  0.00    +0.000 C 
BRANCH   7   8
ATOM      8  N   UNL     1      50.948   6.545  17.291  0.00  0.00    +0.000 NA
BRANCH   8   9
ATOM      9  C   UNL     1      52.170   7.293  17.700  0.00  0.00    +0.000 C 
BRANCH   9  10
ATOM     10  C   UNL     1      53.062   7.787  16.537  0.00  0.00    +0.000 C 
BRANCH  10  11
ATOM     11  N   UNL     1      52.796   7.046  15.299  0.00  0.00    +0.000 NA
ATOM     12  H   UNL     1      53.201   7.553  14.514  0.00  0.00    +0.000 HD
ATOM     13  H   UNL     1      51.791   7.015  15.132  0.00  0.00    +0.000 HD
ENDBRANCH  10  11
ENDBRANCH   9  10
ENDBRANCH   8   9
BRANCH   8  14
ATOM     14  C   UNL     1      50.646   5.488  18.286  0.00  0.00    +0.000 C 
BRANCH  14  15
ATOM     15  C   UNL     1      49.946   4.241  17.770  0.00  0.00    +0.000 A 
ATOM     16  C   UNL     1      48.567   4.225  17.558  0.00  0.00    +0.000 A 
ATOM     17  C   UNL     1      47.993   3.111  16.950  0.00  0.00    +0.000 A 
ATOM     18  C   UNL     1      48.801   2.044  16.575  0.00  0.00    +0.000 A 
ATOM     19  C   UNL     1      50.155   2.127  16.843  0.00  0.00    +0.000 A 
ATOM     20  N   UNL     1      50.742   3.194  17.429  0.00  0.00    +0.000 NA
ENDBRANCH  14  15
ENDBRANCH   8  14
ENDBRANCH   7   8
ENDBRANCH   1   7
BRANCH   4  21
ATOM     21  C   UNL     1      47.441   7.707  11.984  0.00  0.00    +0.000 C 
BRANCH  21  22
ATOM     22  N   UNL     1      46.757   6.456  11.735  0.00  0.00    +0.000 N 
ATOM     23  C   UNL     1      45.396   6.328  11.807  0.00  0.00    +0.000 C 
ATOM     24  O   UNL     1      44.668   7.280  12.082  0.00  0.00    +0.000 OA
ATOM     25  H   UNL     1      47.342   5.625  11.725  0.00  0.00    +0.000 HD
BRANCH  23  26
ATOM     26  C   UNL     1      44.839   5.011  11.467  0.00  0.00    +0.000 A 
ATOM     27  C   UNL     1      44.088   4.319  12.408  0.00  0.00    +0.000 A 
ATOM     28  S   UNL     1      43.477   2.831  11.843  0.00  0.00    +0.000 S 
ATOM     29  C   UNL     1      44.238   3.031  10.335  0.00  0.00    +0.000 A 
ATOM     30  N   UNL     1      44.137   2.077   9.371  0.00  0.00    +0.000 NA
ATOM     31  C   UNL     1      44.788   2.345   8.287  0.00  0.00    +0.000 A 
ATOM     32  N   UNL     1      45.525   3.481   8.079  0.00  0.00    +0.000 N 
ATOM     33  C   UNL     1      45.603   4.499   9.000  0.00  0.00    +0.000 A 
ATOM     34  O   UNL     1      46.174   5.551   8.741  0.00  0.00    +0.000 OA
ATOM     35  C   UNL     1      44.920   4.233  10.254  0.00  0.00    +0.000 A 
ATOM     36  H   UNL     1      45.996   3.641   7.201  0.00  0.00    +0.000 HD
ENDBRANCH  23  26
ENDBRANCH  21  22
ENDBRANCH   4  21
TORSDOF 10
ENDMDL
MODEL 9
REMARK VINA RESULT:    -6.381      3.341      5.613
REMARK INTER + INTRA:         -11.664
REMARK INTER:                 -10.249
REMARK INTRA:                  -1.416
REMARK UNBOUND:                -1.740
REMARK  Name = 
REMARK  10 active torsions:
REMARK  status: ('A' for Active; 'I' for Inactive)
REMARK    1  A    between atoms: N_1  and  C_2
REMARK    2  A    between atoms: C_2  and  C_3
REMARK    3  A    between atoms: C_3  and  N_4
REMARK    4  A    between atoms: N_4  and  C_5
REMARK    5  A    between atoms: N_4  and  C_12
REMARK    6  A    between atoms: C_5  and  C_6
REMARK    7  A    between atoms: C_12  and  C_13
REMARK    8  A    between atoms: C_16  and  C_17
REMARK    9  A    between atoms: C_17  and  N_18
REMARK   10  A    between atoms: C_19  and  C_21
REMARK                            x       y       z     vdW  Elec       q    Type
REMARK                         _______ _______ _______ _____ _____    ______ ____
ROOT
ATOM      1  C   UNL     1      47.515   5.820  13.579  0.00  0.00    +0.000 A 
ATOM      2  C   UNL     1      46.814   4.716  14.049  0.00  0.00    +0.000 A 
ATOM      3  C   UNL     1      47.148   4.188  15.289  0.00  0.00    +0.000 A 
ATOM      4  C   UNL     1      48.186   4.769  16.002  0.00  0.00    +0.000 A 
ATOM      5  N   UNL     1      48.868   5.829  15.510  0.00  0.00    +0.000 NA
ATOM      6  N   UNL     1      48.530   6.357  14.293  0.00  0.00    +0.000 NA
ENDROOT
BRANCH   1   7
ATOM      7  C   UNL     1      47.114   6.514  12.292  0.00  0.00    +0.000 C 
BRANCH   7   8
ATOM      8  N   UNL     1      46.021   7.517  12.461  0.00  0.00    +0.000 NA
BRANCH   8   9
ATOM      9  C   UNL     1      46.562   8.875  12.168  0.00  0.00    +0.000 C 
BRANCH   9  10
ATOM     10  C   UNL     1      47.543   9.436  13.223  0.00  0.00    +0.000 C 
BRANCH  10  11
ATOM     11  N   UNL     1      47.106   9.124  14.589  0.00  0.00    +0.000 NA
ATOM     12  H   UNL     1      46.543   8.276  14.573  0.00  0.00    +0.000 HD
ATOM     13  H   UNL     1      46.496   9.868  14.927  0.00  0.00    +0.000 HD
ENDBRANCH  10  11
ENDBRANCH   9  10
ENDBRANCH   8   9
BRANCH   8  14
ATOM     14  C   UNL     1      44.909   7.204  11.532  0.00  0.00    +0.000 C 
BRANCH  14  15
ATOM     15  C   UNL     1      44.295   5.818  11.639  0.00  0.00    +0.000 A 
ATOM     16  C   UNL     1      44.472   4.872  10.629  0.00  0.00    +0.000 A 
ATOM     17  C   UNL     1      44.013   3.573  10.836  0.00  0.00    +0.000 A 
ATOM     18  C   UNL     1      43.389   3.251  12.036  0.00  0.00    +0.000 A 
ATOM     19  C   UNL     1      43.230   4.253  12.977  0.00  0.00    +0.000 A 
ATOM     20  N   UNL     1      43.665   5.520  12.806  0.00  0.00    +0.000 NA
ENDBRANCH  14  15
ENDBRANCH   8  14
ENDBRANCH   7   8
ENDBRANCH   1   7
BRANCH   4  21
ATOM     21  C   UNL     1      48.565   4.273  17.370  0.00  0.00    +0.000 C 
BRANCH  21  22
ATOM     22  N   UNL     1      49.963   3.911  17.458  0.00  0.00    +0.000 N 
ATOM     23  C   UNL     1      50.734   4.189  18.555  0.00  0.00    +0.000 C 
ATOM     24  O   UNL     1      50.276   4.761  19.542  0.00  0.00    +0.000 OA
ATOM     25  H   UNL     1      50.408   3.643  16.584  0.00  0.00    +0.000 HD
BRANCH  23  26
ATOM     26  C   UNL     1      52.121   3.704  18.525  0.00  0.00    +0.000 A 
ATOM     27  C   UNL     1      53.145   4.528  18.974  0.00  0.00    +0.000 A 
ATOM     28  S   UNL     1      54.687   3.801  18.917  0.00  0.00    +0.000 S 
ATOM     29  C   UNL     1      54.049   2.376  18.242  0.00  0.00    +0.000 A 
ATOM     30  N   UNL     1      54.861   1.335  17.916  0.00  0.00    +0.000 NA
ATOM     31  C   UNL     1      54.249   0.329  17.385  0.00  0.00    +0.000 A 
ATOM     32  N   UNL     1      52.899   0.268  17.156  0.00  0.00    +0.000 N 
ATOM     33  C   UNL     1      52.034   1.270  17.526  0.00  0.00    +0.000 A 
ATOM     34  O   UNL     1      50.820   1.140  17.414  0.00  0.00    +0.000 OA
ATOM     35  C   UNL     1      52.675   2.443  18.094  0.00  0.00    +0.000 A 
ATOM     36  H   UNL     1      52.477  -0.556  16.754  0.00  0.00    +0.000 HD
ENDBRANCH  23  26
ENDBRANCH  21  22
ENDBRANCH   4  21
TORSDOF 10
ENDMDL
