MODEL 1
REMARK VINA RESULT:    -7.147      0.000      0.000
REMARK INTER + INTRA:          -9.427
REMARK INTER:                  -9.027
REMARK INTRA:                  -0.400
REMARK UNBOUND:                -0.400
REMARK  Name = 
REMARK  5 active torsions:
REMARK  status: ('A' for Active; 'I' for Inactive)
REMARK    1  A    between atoms: N_1  and  C_2
REMARK    2  A    between atoms: C_2  and  C_3
REMARK    3  A    between atoms: C_6  and  O_7
REMARK    4  A    between atoms: O_7  and  C_8
REMARK    5  A    between atoms: C_8  and  C_9
REMARK                            x       y       z     vdW  Elec       q    Type
REMARK                         _______ _______ _______ _____ _____    ______ ____
ROOT
ATOM      1  C   UNL     1      46.558   2.600   6.839  0.00  0.00    +0.000 A 
ATOM      2  C   UNL     1      45.755   3.673   7.239  0.00  0.00    +0.000 A 
ATOM      3  C   UNL     1      44.920   3.539   8.346  0.00  0.00    +0.000 A 
ATOM      4  C   UNL     1      44.929   2.337   9.033  0.00  0.00    +0.000 A 
ATOM      5  N   UNL     1      45.689   1.280   8.681  0.00  0.00    +0.000 NA
ATOM      6  C   UNL     1      46.477   1.434   7.594  0.00  0.00    +0.000 A 
ENDROOT
BRANCH   1   7
ATOM      7  C   UNL     1      47.443   2.683   5.630  0.00  0.00    +0.000 C 
BRANCH   7   8
ATOM      8  N   UNL     1      48.563   1.753   5.710  0.00  0.00    +0.000 NA
ATOM      9  H   UNL     1      48.860   1.507   4.768  0.00  0.00    +0.000 HD
ATOM     10  H   UNL     1      48.247   0.887   6.147  0.00  0.00    +0.000 HD
ENDBRANCH   7   8
ENDBRANCH   1   7
BRANCH   4  11
ATOM     11  O   UNL     1      44.062   2.233  10.102  0.00  0.00    +0.000 OA
BRANCH  11  12
ATOM     12  C   UNL     1      43.825   3.488  10.750  0.00  0.00    +0.000 C 
BRANCH  12  13
ATOM     13  C   UNL     1      44.084   3.326  12.259  0.00  0.00    +0.000 C 
ATOM     14  C   UNL     1      43.267   4.339  13.074  0.00  0.00    +0.000 C 
ATOM     15  C   UNL     1      43.830   5.757  12.967  0.00  0.00    +0.000 C 
ATOM     16  N   UNL     1      45.235   5.809  13.371  0.00  0.00    +0.000 NA
ATOM     17  C   UNL     1      46.058   4.919  12.546  0.00  0.00    +0.000 C 
ATOM     18  C   UNL     1      45.576   3.468  12.611  0.00  0.00    +0.000 C 
ATOM     19  H   UNL     1      45.310   5.517  14.346  0.00  0.00    +0.000 HD
ENDBRANCH  12  13
ENDBRANCH  11  12
ENDBRANCH   4  11
TORSDOF 5
ENDMDL
MODEL 2
REMARK VINA RESULT:    -7.039      1.403      1.937
REMARK INTER + INTRA:          -9.291
REMARK INTER:                  -8.870
REMARK INTRA:                  -0.421
REMARK UNBOUND:                -0.400
REMARK  Name = 
REMARK  5 active torsions:
REMARK  status: ('A' for Active; 'I' for Inactive)
REMARK    1  A    between atoms: N_1  and  C_2
REMARK    2  A    between atoms: C_2  and  C_3
REMARK    3  A    between atoms: C_6  and  O_7
REMARK    4  A    between atoms: O_7  and  C_8
REMARK    5  A    between atoms: C_8  and  C_9
REMARK                            x       y       z     vdW  Elec       q    Type
REMARK                         _______ _______ _______ _____ _____    ______ ____
ROOT
ATOM      1  C   UNL     1      46.661   2.323   7.513  0.00  0.00    +0.000 A 
ATOM      2  C   UNL     1      45.839   1.630   8.407  0.00  0.00    +0.000 A 
ATOM      3  C   UNL     1      44.880   2.321   9.144  0.00  0.00    +0.000 A 
ATOM      4  C   UNL     1      44.758   3.686   8.947  0.00  0.00    +0.000 A 
ATOM      5  N   UNL     1      45.529   4.390   8.093  0.00  0.00    +0.000 NA
ATOM      6  C   UNL     1      46.463   3.695   7.404  0.00  0.00    +0.000 A 
ENDROOT
BRANCH   1   7
ATOM      7  C   UNL     1      47.736   1.628   6.728  0.00  0.00    +0.000 C 
BRANCH   7   8
ATOM      8  N   UNL     1      48.753   2.560   6.257  0.00  0.00    +0.000 NA
ATOM      9  H   UNL     1      49.654   2.300   6.654  0.00  0.00    +0.000 HD
ATOM     10  H   UNL     1      48.543   3.493   6.612  0.00  0.00    +0.000 HD
ENDBRANCH   7   8
ENDBRANCH   1   7
BRANCH   4  11
ATOM     11  O   UNL     1      43.819   4.338   9.721  0.00  0.00    +0.000 OA
BRANCH  11  12
ATOM     12  C   UNL     1      44.398   5.329  10.577  0.00  0.00    +0.000 C 
BRANCH  12  13
ATOM     13  C   UNL     1      43.922   5.079  12.020  0.00  0.00    +0.000 C 
ATOM     14  C   UNL     1      44.698   5.949  13.018  0.00  0.00    +0.000 C 
ATOM     15  C   UNL     1      46.127   5.450  13.234  0.00  0.00    +0.000 C 
ATOM     16  N   UNL     1      46.148   4.053  13.668  0.00  0.00    +0.000 NA
ATOM     17  C   UNL     1      45.494   3.182  12.687  0.00  0.00    +0.000 C 
ATOM     18  C   UNL     1      44.046   3.599  12.425  0.00  0.00    +0.000 C 
ATOM     19  H   UNL     1      45.654   3.976  14.557  0.00  0.00    +0.000 HD
ENDBRANCH  12  13
ENDBRANCH  11  12
ENDBRANCH   4  11
TORSDOF 5
ENDMDL
MODEL 3
REMARK VINA RESULT:    -6.543      1.741      2.355
REMARK INTER + INTRA:          -8.664
REMARK INTER:                  -8.426
REMARK INTRA:                  -0.238
REMARK UNBOUND:                -0.400
REMARK  Name = 
REMARK  5 active torsions:
REMARK  status: ('A' for Active; 'I' for Inactive)
REMARK    1  A    between atoms: N_1  and  C_2
REMARK    2  A    between atoms: C_2  and  C_3
REMARK    3  A    between atoms: C_6  and  O_7
REMARK    4  A    between atoms: O_7  and  C_8
REMARK    5  A    between atoms: C_8  and  C_9
REMARK                            x       y       z     vdW  Elec       q    Type
REMARK                         _______ _______ _______ _____ _____    ______ ____
ROOT
ATOM      1  C   UNL     1      46.258   1.922   7.849  0.00  0.00    +0.000 A 
ATOM      2  C   UNL     1      45.340   1.556   8.838  0.00  0.00    +0.000 A 
ATOM      3  C   UNL     1      44.460   2.506   9.352  0.00  0.00    +0.000 A 
ATOM      4  C   UNL     1      44.513   3.793   8.843  0.00  0.00    +0.000 A 
ATOM      5  N   UNL     1      45.382   4.185   7.889  0.00  0.00    +0.000 NA
ATOM      6  C   UNL     1      46.235   3.245   7.421  0.00  0.00    +0.000 A 
ENDROOT
BRANCH   1   7
ATOM      7  C   UNL     1      47.253   0.943   7.294  0.00  0.00    +0.000 C 
BRANCH   7   8
ATOM      8  N   UNL     1      46.941  -0.427   7.681  0.00  0.00    +0.000 NA
ATOM      9  H   UNL     1      47.310  -1.065   6.978  0.00  0.00    +0.000 HD
ATOM     10  H   UNL     1      45.929  -0.554   7.678  0.00  0.00    +0.000 HD
ENDBRANCH   7   8
ENDBRANCH   1   7
BRANCH   4  11
ATOM     11  O   UNL     1      43.649   4.712   9.403  0.00  0.00    +0.000 OA
BRANCH  11  12
ATOM     12  C   UNL     1      43.873   4.903  10.804  0.00  0.00    +0.000 C 
BRANCH  12  13
ATOM     13  C   UNL     1      45.369   5.178  11.038  0.00  0.00    +0.000 C 
ATOM     14  C   UNL     1      45.873   4.470  12.303  0.00  0.00    +0.000 C 
ATOM     15  C   UNL     1      45.385   5.152  13.582  0.00  0.00    +0.000 C 
ATOM     16  N   UNL     1      45.764   6.564  13.616  0.00  0.00    +0.000 NA
ATOM     17  C   UNL     1      45.217   7.289  12.465  0.00  0.00    +0.000 C 
ATOM     18  C   UNL     1      45.674   6.684  11.137  0.00  0.00    +0.000 C 
ATOM     19  H   UNL     1      46.782   6.634  13.595  0.00  0.00    +0.000 HD
ENDBRANCH  12  13
ENDBRANCH  11  12
ENDBRANCH   4  11
TORSDOF 5
ENDMDL
MODEL 4
REMARK VINA RESULT:    -6.280      1.997      2.449
REMARK INTER + INTRA:          -8.333
REMARK INTER:                  -8.052
REMARK INTRA:                  -0.280
REMARK UNBOUND:                -0.400
REMARK  Name = 
REMARK  5 active torsions:
REMARK  status: ('A' for Active; 'I' for Inactive)
REMARK    1  A    between atoms: N_1  and  C_2
REMARK    2  A    between atoms: C_2  and  C_3
REMARK    3  A    between atoms: C_6  and  O_7
REMARK    4  A    between atoms: O_7  and  C_8
REMARK    5  A    between atoms: C_8  and  C_9
REMARK                            x       y       z     vdW  Elec       q    Type
REMARK                         _______ _______ _______ _____ _____    ______ ____
ROOT
ATOM      1  C   UNL     1      46.649   2.140   7.404  0.00  0.00    +0.000 A 
ATOM      2  C   UNL     1      45.813   1.683   8.427  0.00  0.00    +0.000 A 
ATOM      3  C   UNL     1      45.067   2.594   9.171  0.00  0.00    +0.000 A 
ATOM      4  C   UNL     1      45.166   3.938   8.854  0.00  0.00    +0.000 A 
ATOM      5  N   UNL     1      45.958   4.419   7.873  0.00  0.00    +0.000 NA
ATOM      6  C   UNL     1      46.683   3.513   7.179  0.00  0.00    +0.000 A 
ENDROOT
BRANCH   1   7
ATOM      7  C   UNL     1      47.503   1.201   6.602  0.00  0.00    +0.000 C 
BRANCH   7   8
ATOM      8  N   UNL     1      48.478   1.914   5.786  0.00  0.00    +0.000 NA
ATOM      9  H   UNL     1      48.005   2.327   4.985  0.00  0.00    +0.000 HD
ATOM     10  H   UNL     1      49.151   1.247   5.409  0.00  0.00    +0.000 HD
ENDBRANCH   7   8
ENDBRANCH   1   7
BRANCH   4  11
ATOM     11  O   UNL     1      44.438   4.811   9.637  0.00  0.00    +0.000 OA
BRANCH  11  12
ATOM     12  C   UNL     1      45.247   5.512  10.587  0.00  0.00    +0.000 C 
BRANCH  12  13
ATOM     13  C   UNL     1      44.355   5.982  11.751  0.00  0.00    +0.000 C 
ATOM     14  C   UNL     1      43.524   7.210  11.352  0.00  0.00    +0.000 C 
ATOM     15  C   UNL     1      44.370   8.482  11.276  0.00  0.00    +0.000 C 
ATOM     16  N   UNL     1      45.068   8.739  12.536  0.00  0.00    +0.000 NA
ATOM     17  C   UNL     1      45.943   7.620  12.896  0.00  0.00    +0.000 C 
ATOM     18  C   UNL     1      45.173   6.304  13.015  0.00  0.00    +0.000 C 
ATOM     19  H   UNL     1      44.377   8.868  13.276  0.00  0.00    +0.000 HD
ENDBRANCH  12  13
ENDBRANCH  11  12
ENDBRANCH   4  11
TORSDOF 5
ENDMDL
MODEL 5
REMARK VINA RESULT:    -6.010      1.835      6.038
REMARK INTER + INTRA:          -7.992
REMARK INTER:                  -7.556
REMARK INTRA:                  -0.436
REMARK UNBOUND:                -0.400
REMARK  Name = 
REMARK  5 active torsions:
REMARK  status: ('A' for Active; 'I' for Inactive)
REMARK    1  A    between atoms: N_1  and  C_2
REMARK    2  A    between atoms: C_2  and  C_3
REMARK    3  A    between atoms: C_6  and  O_7
REMARK    4  A    between atoms: O_7  and  C_8
REMARK    5  A    between atoms: C_8  and  C_9
REMARK                            x       y       z     vdW  Elec       q    Type
REMARK                         _______ _______ _______ _____ _____    ______ ____
ROOT
ATOM      1  C   UNL     1      46.382   4.639  13.561  0.00  0.00    +0.000 A 
ATOM      2  C   UNL     1      46.345   5.859  12.878  0.00  0.00    +0.000 A 
ATOM      3  C   UNL     1      45.800   5.919  11.597  0.00  0.00    +0.000 A 
ATOM      4  C   UNL     1      45.287   4.757  11.046  0.00  0.00    +0.000 A 
ATOM      5  N   UNL     1      45.302   3.562  11.673  0.00  0.00    +0.000 NA
ATOM      6  C   UNL     1      45.853   3.531  12.908  0.00  0.00    +0.000 A 
ENDROOT
BRANCH   1   7
ATOM      7  C   UNL     1      46.996   4.517  14.926  0.00  0.00    +0.000 C 
BRANCH   7   8
ATOM      8  N   UNL     1      47.599   3.206  15.135  0.00  0.00    +0.000 NA
ATOM      9  H   UNL     1      47.745   2.758  14.232  0.00  0.00    +0.000 HD
ATOM     10  H   UNL     1      46.944   2.614  15.645  0.00  0.00    +0.000 HD
ENDBRANCH   7   8
ENDBRANCH   1   7
BRANCH   4  11
ATOM     11  O   UNL     1      44.788   4.852   9.763  0.00  0.00    +0.000 OA
BRANCH  11  12
ATOM     12  C   UNL     1      45.799   4.698   8.761  0.00  0.00    +0.000 C 
BRANCH  12  13
ATOM     13  C   UNL     1      45.262   3.776   7.650  0.00  0.00    +0.000 C 
ATOM     14  C   UNL     1      44.740   2.454   8.229  0.00  0.00    +0.000 C 
ATOM     15  C   UNL     1      45.874   1.527   8.671  0.00  0.00    +0.000 C 
ATOM     16  N   UNL     1      46.805   1.259   7.575  0.00  0.00    +0.000 NA
ATOM     17  C   UNL     1      47.393   2.499   7.062  0.00  0.00    +0.000 C 
ATOM     18  C   UNL     1      46.326   3.482   6.576  0.00  0.00    +0.000 C 
ATOM     19  H   UNL     1      46.301   0.795   6.819  0.00  0.00    +0.000 HD
ENDBRANCH  12  13
ENDBRANCH  11  12
ENDBRANCH   4  11
TORSDOF 5
ENDMDL
MODEL 6
REMARK VINA RESULT:    -5.689      4.280      6.349
REMARK INTER + INTRA:          -7.586
REMARK INTER:                  -7.191
REMARK INTRA:                  -0.395
REMARK UNBOUND:                -0.400
REMARK  Name = 
REMARK  5 active torsions:
REMARK  status: ('A' for Active; 'I' for Inactive)
REMARK    1  A    between atoms: N_1  and  C_2
REMARK    2  A    between atoms: C_2  and  C_3
REMARK    3  A    between atoms: C_6  and  O_7
REMARK    4  A    between atoms: O_7  and  C_8
REMARK    5  A    between atoms: C_8  and  C_9
REMARK                            x       y       z     vdW  Elec       q    Type
REMARK                         _______ _______ _______ _____ _____    ______ ____
ROOT
ATOM      1  C   UNL     1      44.376   4.954  11.940  0.00  0.00    +0.000 A 
ATOM      2  C   UNL     1      45.092   5.927  12.644  0.00  0.00    +0.000 A 
ATOM      3  C   UNL     1      46.136   5.546  13.485  0.00  0.00    +0.000 A 
ATOM      4  C   UNL     1      46.445   4.200  13.580  0.00  0.00    +0.000 A 
ATOM      5  N   UNL     1      45.780   3.231  12.918  0.00  0.00    +0.000 NA
ATOM      6  C   UNL     1      44.761   3.629  12.122  0.00  0.00    +0.000 A 
ENDROOT
BRANCH   1   7
ATOM      7  C   UNL     1      43.218   5.312  11.054  0.00  0.00    +0.000 C 
BRANCH   7   8
ATOM      8  N   UNL     1      42.260   6.175  11.734  0.00  0.00    +0.000 NA
ATOM      9  H   UNL     1      41.357   6.102  11.269  0.00  0.00    +0.000 HD
ATOM     10  H   UNL     1      42.556   7.145  11.636  0.00  0.00    +0.000 HD
ENDBRANCH   7   8
ENDBRANCH   1   7
BRANCH   4  11
ATOM     11  O   UNL     1      47.462   3.862  14.450  0.00  0.00    +0.000 OA
BRANCH  11  12
ATOM     12  C   UNL     1      47.562   4.757  15.562  0.00  0.00    +0.000 C 
BRANCH  12  13
ATOM     13  C   UNL     1      47.163   4.006  16.845  0.00  0.00    +0.000 C 
ATOM     14  C   UNL     1      47.387   4.875  18.090  0.00  0.00    +0.000 C 
ATOM     15  C   UNL     1      48.869   5.013  18.442  0.00  0.00    +0.000 C 
ATOM     16  N   UNL     1      49.501   3.706  18.625  0.00  0.00    +0.000 NA
ATOM     17  C   UNL     1      49.384   2.885  17.416  0.00  0.00    +0.000 C 
ATOM     18  C   UNL     1      47.926   2.678  17.002  0.00  0.00    +0.000 C 
ATOM     19  H   UNL     1      49.041   3.222  19.397  0.00  0.00    +0.000 HD
ENDBRANCH  12  13
ENDBRANCH  11  12
ENDBRANCH   4  11
TORSDOF 5
ENDMDL
MODEL 7
REMARK VINA RESULT:    -5.528      2.298      3.444
REMARK INTER + INTRA:          -7.383
REMARK INTER:                  -7.210
REMARK INTRA:                  -0.173
REMARK UNBOUND:                -0.400
REMARK  Name = 
REMARK  5 active torsions:
REMARK  status: ('A' for Active; 'I' for Inactive)
REMARK    1  A    between atoms: N_1  and  C_2
REMARK    2  A    between atoms: C_2  and  C_3
REMARK    3  A    between atoms: C_6  and  O_7
REMARK    4  A    between atoms: O_7  and  C_8
REMARK    5  A    between atoms: C_8  and  C_9
REMARK                            x       y       z     vdW  Elec       q    Type
REMARK                         _______ _______ _______ _____ _____    ______ ____
ROOT
ATOM      1  C   UNL     1      45.309   3.687   8.710  0.00  0.00    +0.000 A 
ATOM      2  C   UNL     1      44.771   2.752   9.599  0.00  0.00    +0.000 A 
ATOM      3  C   UNL     1      44.453   3.137  10.900  0.00  0.00    +0.000 A 
ATOM      4  C   UNL     1      44.665   4.456  11.265  0.00  0.00    +0.000 A 
ATOM      5  N   UNL     1      45.180   5.387  10.436  0.00  0.00    +0.000 NA
ATOM      6  C   UNL     1      45.494   4.981   9.186  0.00  0.00    +0.000 A 
ENDROOT
BRANCH   1   7
ATOM      7  C   UNL     1      45.705   3.310   7.311  0.00  0.00    +0.000 C 
BRANCH   7   8
ATOM      8  N   UNL     1      46.755   4.176   6.791  0.00  0.00    +0.000 NA
ATOM      9  H   UNL     1      46.691   5.086   7.243  0.00  0.00    +0.000 HD
ATOM     10  H   UNL     1      46.594   4.338   5.798  0.00  0.00    +0.000 HD
ENDBRANCH   7   8
ENDBRANCH   1   7
BRANCH   4  11
ATOM     11  O   UNL     1      44.370   4.788  12.572  0.00  0.00    +0.000 OA
BRANCH  11  12
ATOM     12  C   UNL     1      45.355   5.641  13.164  0.00  0.00    +0.000 C 
BRANCH  12  13
ATOM     13  C   UNL     1      46.737   4.975  13.030  0.00  0.00    +0.000 C 
ATOM     14  C   UNL     1      46.960   3.932  14.134  0.00  0.00    +0.000 C 
ATOM     15  C   UNL     1      47.226   4.577  15.495  0.00  0.00    +0.000 C 
ATOM     16  N   UNL     1      48.362   5.497  15.440  0.00  0.00    +0.000 NA
ATOM     17  C   UNL     1      48.137   6.561  14.458  0.00  0.00    +0.000 C 
ATOM     18  C   UNL     1      47.882   6.004  13.056  0.00  0.00    +0.000 C 
ATOM     19  H   UNL     1      49.198   4.975  15.174  0.00  0.00    +0.000 HD
ENDBRANCH  12  13
ENDBRANCH  11  12
ENDBRANCH   4  11
TORSDOF 5
ENDMDL
MODEL 8
REMARK VINA RESULT:    -5.409      1.732      6.356
REMARK INTER + INTRA:          -7.232
REMARK INTER:                  -6.848
REMARK INTRA:                  -0.384
REMARK UNBOUND:                -0.400
REMARK  Name = 
REMARK  5 active torsions:
REMARK  status: ('A' for Active; 'I' for Inactive)
REMARK    1  A    between atoms: N_1  and  C_2
REMARK    2  A    between atoms: C_2  and  C_3
REMARK    3  A    between atoms: C_6  and  O_7
REMARK    4  A    between atoms: O_7  and  C_8
REMARK    5  A    between atoms: C_8  and  C_9
REMARK                            x       y       z     vdW  Elec       q    Type
REMARK                         _______ _______ _______ _____ _____    ______ ____
ROOT
ATOM      1  C   UNL     1      45.610   4.698  12.538  0.00  0.00    +0.000 A 
ATOM      2  C   UNL     1      45.033   3.631  11.843  0.00  0.00    +0.000 A 
ATOM      3  C   UNL     1      44.921   3.688  10.456  0.00  0.00    +0.000 A 
ATOM      4  C   UNL     1      45.411   4.805   9.803  0.00  0.00    +0.000 A 
ATOM      5  N   UNL     1      45.976   5.854  10.436  0.00  0.00    +0.000 NA
ATOM      6  C   UNL     1      46.056   5.778  11.784  0.00  0.00    +0.000 A 
ENDROOT
BRANCH   1   7
ATOM      7  C   UNL     1      45.715   4.700  14.036  0.00  0.00    +0.000 C 
BRANCH   7   8
ATOM      8  N   UNL     1      46.905   5.406  14.497  0.00  0.00    +0.000 NA
ATOM      9  H   UNL     1      47.443   4.792  15.104  0.00  0.00    +0.000 HD
ATOM     10  H   UNL     1      46.621   6.200  15.070  0.00  0.00    +0.000 HD
ENDBRANCH   7   8
ENDBRANCH   1   7
BRANCH   4  11
ATOM     11  O   UNL     1      45.250   4.838   8.432  0.00  0.00    +0.000 OA
BRANCH  11  12
ATOM     12  C   UNL     1      46.363   4.278   7.728  0.00  0.00    +0.000 C 
BRANCH  12  13
ATOM     13  C   UNL     1      45.855   3.157   6.802  0.00  0.00    +0.000 C 
ATOM     14  C   UNL     1      45.747   1.823   7.554  0.00  0.00    +0.000 C 
ATOM     15  C   UNL     1      47.116   1.197   7.823  0.00  0.00    +0.000 C 
ATOM     16  N   UNL     1      47.875   1.014   6.586  0.00  0.00    +0.000 NA
ATOM     17  C   UNL     1      48.076   2.289   5.892  0.00  0.00    +0.000 C 
ATOM     18  C   UNL     1      46.750   2.978   5.563  0.00  0.00    +0.000 C 
ATOM     19  H   UNL     1      47.360   0.382   5.972  0.00  0.00    +0.000 HD
ENDBRANCH  12  13
ENDBRANCH  11  12
ENDBRANCH   4  11
TORSDOF 5
ENDMDL
MODEL 9
REMARK VINA RESULT:    -5.398      3.895      7.411
REMARK INTER + INTRA:          -7.218
REMARK INTER:                  -6.874
REMARK INTRA:                  -0.344
REMARK UNBOUND:                -0.400
REMARK  Name = 
REMARK  5 active torsions:
REMARK  status: ('A' for Active; 'I' for Inactive)
REMARK    1  A    between atoms: N_1  and  C_2
REMARK    2  A    between atoms: C_2  and  C_3
REMARK    3  A    between atoms: C_6  and  O_7
REMARK    4  A    between atoms: O_7  and  C_8
REMARK    5  A    between atoms: C_8  and  C_9
REMARK                            x       y       z     vdW  Elec       q    Type
REMARK                         _______ _______ _______ _____ _____    ______ ____
ROOT
ATOM      1  C   UNL     1      48.465   4.251  17.107  0.00  0.00    +0.000 A 
ATOM      2  C   UNL     1      48.241   5.474  16.468  0.00  0.00    +0.000 A 
ATOM      3  C   UNL     1      47.658   5.497  15.203  0.00  0.00    +0.000 A 
ATOM      4  C   UNL     1      47.298   4.293  14.623  0.00  0.00    +0.000 A 
ATOM      5  N   UNL     1      47.495   3.093  15.207  0.00  0.00    +0.000 NA
ATOM      6  C   UNL     1      48.077   3.100  16.427  0.00  0.00    +0.000 A 
ENDROOT
BRANCH   1   7
ATOM      7  C   UNL     1      49.127   4.172  18.453  0.00  0.00    +0.000 C 
BRANCH   7   8
ATOM      8  N   UNL     1      48.484   3.191  19.318  0.00  0.00    +0.000 NA
ATOM      9  H   UNL     1      48.903   2.277  19.155  0.00  0.00    +0.000 HD
ATOM     10  H   UNL     1      47.502   3.106  19.057  0.00  0.00    +0.000 HD
ENDBRANCH   7   8
ENDBRANCH   1   7
BRANCH   4  11
ATOM     11  O   UNL     1      46.756   4.358  13.355  0.00  0.00    +0.000 OA
BRANCH  11  12
ATOM     12  C   UNL     1      45.571   5.159  13.298  0.00  0.00    +0.000 C 
BRANCH  12  13
ATOM     13  C   UNL     1      44.387   4.268  12.875  0.00  0.00    +0.000 C 
ATOM     14  C   UNL     1      44.699   3.510  11.577  0.00  0.00    +0.000 C 
ATOM     15  C   UNL     1      44.659   4.422  10.350  0.00  0.00    +0.000 C 
ATOM     16  N   UNL     1      43.371   5.106  10.232  0.00  0.00    +0.000 NA
ATOM     17  C   UNL     1      43.087   5.915  11.421  0.00  0.00    +0.000 C 
ATOM     18  C   UNL     1      43.088   5.075  12.699  0.00  0.00    +0.000 C 
ATOM     19  H   UNL     1      42.634   4.407  10.125  0.00  0.00    +0.000 HD
ENDBRANCH  12  13
ENDBRANCH  11  12
ENDBRANCH   4  11
TORSDOF 5
ENDMDL
