MODEL 1
REMARK VINA RESULT:    -8.407      0.000      0.000
REMARK INTER + INTRA:         -12.363
REMARK INTER:                 -11.601
REMARK INTRA:                  -0.761
REMARK UNBOUND:                -0.761
REMARK  Name = 
REMARK  9 active torsions:
REMARK  status: ('A' for Active; 'I' for Inactive)
REMARK    1  A    between atoms: C_1  and  C_2
REMARK    2  A    between atoms: C_4  and  O_5
REMARK    3  A    between atoms: O_5  and  C_6
REMARK    4  A    between atoms: C_6  and  C_7
REMARK    5  A    between atoms: C_7  and  C_8
REMARK    6  A    between atoms: C_7  and  C_9
REMARK    7  A    between atoms: C_13  and  C_14
REMARK    8  A    between atoms: C_14  and  N_15
REMARK    9  A    between atoms: C_19  and  C_20
REMARK                            x       y       z     vdW  Elec       q    Type
REMARK                         _______ _______ _______ _____ _____    ______ ____
ROOT
ATOM      1  O   UNL     1      43.626   3.134  10.426  0.00  0.00    +0.000 OA
ENDROOT
BRANCH   1   5
ATOM      2  C   UNL     1      46.657   0.287   7.728  0.00  0.00    +0.000 C 
ATOM      3  C   UNL     1      46.076   1.644   8.027  0.00  0.00    +0.000 A 
ATOM      4  C   UNL     1      45.144   1.742   9.077  0.00  0.00    +0.000 A 
ATOM      5  C   UNL     1      44.548   2.958   9.422  0.00  0.00    +0.000 A 
ATOM      6  C   UNL     1      44.899   4.101   8.706  0.00  0.00    +0.000 A 
ATOM      7  C   UNL     1      45.826   4.028   7.655  0.00  0.00    +0.000 A 
ATOM      8  C   UNL     1      46.414   2.802   7.299  0.00  0.00    +0.000 A 
BRANCH   8   9
ATOM      9  C   UNL     1      47.407   2.746   6.178  0.00  0.00    +0.000 C 
ATOM     10  N   UNL     1      48.725   2.585   6.507  0.00  0.00    +0.000 N 
ATOM     11  O   UNL     1      47.088   2.856   5.002  0.00  0.00    +0.000 OA
ATOM     12  H   UNL     1      49.083   2.649   7.448  0.00  0.00    +0.000 HD
ATOM     13  H   UNL     1      49.385   2.635   5.742  0.00  0.00    +0.000 HD
ENDBRANCH   8   9
ENDBRANCH   1   5
BRANCH   1  14
ATOM     14  C   UNL     1      44.144   3.128  11.763  0.00  0.00    +0.000 C 
BRANCH  14  15
ATOM     15  C   UNL     1      43.718   4.392  12.535  0.00  0.00    +0.000 C 
ATOM     16  C   UNL     1      42.598   5.143  11.805  0.00  0.00    +0.000 C 
BRANCH  15  17
ATOM     17  C   UNL     1      44.907   5.312  12.789  0.00  0.00    +0.000 A 
ATOM     18  C   UNL     1      46.078   4.842  13.403  0.00  0.00    +0.000 A 
ATOM     19  C   UNL     1      47.171   5.687  13.602  0.00  0.00    +0.000 A 
ATOM     20  C   UNL     1      47.113   7.018  13.192  0.00  0.00    +0.000 A 
ATOM     21  C   UNL     1      45.955   7.522  12.586  0.00  0.00    +0.000 A 
ATOM     22  C   UNL     1      44.857   6.659  12.395  0.00  0.00    +0.000 A 
BRANCH  21  23
ATOM     23  C   UNL     1      45.880   8.969  12.167  0.00  0.00    +0.000 C 
BRANCH  23  24
ATOM     24  N   UNL     1      44.759   9.661  12.794  0.00  0.00    +0.000 NA
ATOM     25  H   UNL     1      45.093  10.125  13.638  0.00  0.00    +0.000 HD
ATOM     26  H   UNL     1      44.072   8.974  13.095  0.00  0.00    +0.000 HD
ENDBRANCH  23  24
ENDBRANCH  21  23
ENDBRANCH  15  17
ENDBRANCH  14  15
ENDBRANCH   1  14
TORSDOF 7
ENDMDL
MODEL 2
REMARK VINA RESULT:    -8.044      1.678      2.169
REMARK INTER + INTRA:         -11.862
REMARK INTER:                 -10.999
REMARK INTRA:                  -0.863
REMARK UNBOUND:                -0.761
REMARK  Name = 
REMARK  9 active torsions:
REMARK  status: ('A' for Active; 'I' for Inactive)
REMARK    1  A    between atoms: C_1  and  C_2
REMARK    2  A    between atoms: C_4  and  O_5
REMARK    3  A    between atoms: O_5  and  C_6
REMARK    4  A    between atoms: C_6  and  C_7
REMARK    5  A    between atoms: C_7  and  C_8
REMARK    6  A    between atoms: C_7  and  C_9
REMARK    7  A    between atoms: C_13  and  C_14
REMARK    8  A    between atoms: C_14  and  N_15
REMARK    9  A    between atoms: C_19  and  C_20
REMARK                            x       y       z     vdW  Elec       q    Type
REMARK                         _______ _______ _______ _____ _____    ______ ____
ROOT
ATOM      1  O   UNL     1      43.685   3.226  10.108  0.00  0.00    +0.000 OA
ENDROOT
BRANCH   1   5
ATOM      2  C   UNL     1      46.726   0.137   7.704  0.00  0.00    +0.000 C 
ATOM      3  C   UNL     1      46.189   1.528   7.911  0.00  0.00    +0.000 A 
ATOM      4  C   UNL     1      45.209   1.712   8.905  0.00  0.00    +0.000 A 
ATOM      5  C   UNL     1      44.649   2.966   9.163  0.00  0.00    +0.000 A 
ATOM      6  C   UNL     1      45.084   4.059   8.416  0.00  0.00    +0.000 A 
ATOM      7  C   UNL     1      46.059   3.900   7.421  0.00  0.00    +0.000 A 
ATOM      8  C   UNL     1      46.613   2.637   7.151  0.00  0.00    +0.000 A 
BRANCH   8   9
ATOM      9  C   UNL     1      47.658   2.488   6.088  0.00  0.00    +0.000 C 
ATOM     10  N   UNL     1      48.967   2.475   6.485  0.00  0.00    +0.000 N 
ATOM     11  O   UNL     1      47.387   2.400   4.897  0.00  0.00    +0.000 OA
ATOM     12  H   UNL     1      49.275   2.703   7.417  0.00  0.00    +0.000 HD
ATOM     13  H   UNL     1      49.657   2.460   5.745  0.00  0.00    +0.000 HD
ENDBRANCH   8   9
ENDBRANCH   1   5
BRANCH   1  14
ATOM     14  C   UNL     1      43.767   4.502  10.756  0.00  0.00    +0.000 C 
BRANCH  14  15
ATOM     15  C   UNL     1      44.116   4.351  12.249  0.00  0.00    +0.000 C 
ATOM     16  C   UNL     1      42.994   4.890  13.145  0.00  0.00    +0.000 C 
BRANCH  15  17
ATOM     17  C   UNL     1      45.442   5.028  12.579  0.00  0.00    +0.000 A 
ATOM     18  C   UNL     1      46.035   5.944  11.697  0.00  0.00    +0.000 A 
ATOM     19  C   UNL     1      47.234   6.580  12.025  0.00  0.00    +0.000 A 
ATOM     20  C   UNL     1      47.861   6.312  13.240  0.00  0.00    +0.000 A 
ATOM     21  C   UNL     1      47.301   5.395  14.139  0.00  0.00    +0.000 A 
ATOM     22  C   UNL     1      46.094   4.756  13.793  0.00  0.00    +0.000 A 
BRANCH  21  23
ATOM     23  C   UNL     1      47.993   5.082  15.443  0.00  0.00    +0.000 C 
BRANCH  23  24
ATOM     24  N   UNL     1      47.043   4.883  16.531  0.00  0.00    +0.000 NA
ATOM     25  H   UNL     1      46.963   3.884  16.715  0.00  0.00    +0.000 HD
ATOM     26  H   UNL     1      46.122   5.194  16.228  0.00  0.00    +0.000 HD
ENDBRANCH  23  24
ENDBRANCH  21  23
ENDBRANCH  15  17
ENDBRANCH  14  15
ENDBRANCH   1  14
TORSDOF 7
ENDMDL
MODEL 3
REMARK VINA RESULT:    -7.192      2.470      6.713
REMARK INTER + INTRA:         -10.686
REMARK INTER:                  -9.569
REMARK INTRA:                  -1.117
REMARK UNBOUND:                -0.761
REMARK  Name = 
REMARK  9 active torsions:
REMARK  status: ('A' for Active; 'I' for Inactive)
REMARK    1  A    between atoms: C_1  and  C_2
REMARK    2  A    between atoms: C_4  and  O_5
REMARK    3  A    between atoms: O_5  and  C_6
REMARK    4  A    between atoms: C_6  and  C_7
REMARK    5  A    between atoms: C_7  and  C_8
REMARK    6  A    between atoms: C_7  and  C_9
REMARK    7  A    between atoms: C_13  and  C_14
REMARK    8  A    between atoms: C_14  and  N_15
REMARK    9  A    between atoms: C_19  and  C_20
REMARK                            x       y       z     vdW  Elec       q    Type
REMARK                         _______ _______ _______ _____ _____    ______ ____
ROOT
ATOM      1  O   UNL     1      43.925   5.095  12.713  0.00  0.00    +0.000 OA
ENDROOT
BRANCH   1   5
ATOM      2  C   UNL     1      46.878   9.053  12.279  0.00  0.00    +0.000 C 
ATOM      3  C   UNL     1      46.695   7.606  12.653  0.00  0.00    +0.000 A 
ATOM      4  C   UNL     1      45.413   7.045  12.500  0.00  0.00    +0.000 A 
ATOM      5  C   UNL     1      45.148   5.712  12.826  0.00  0.00    +0.000 A 
ATOM      6  C   UNL     1      46.191   4.923  13.309  0.00  0.00    +0.000 A 
ATOM      7  C   UNL     1      47.476   5.460  13.470  0.00  0.00    +0.000 A 
ATOM      8  C   UNL     1      47.739   6.804  13.155  0.00  0.00    +0.000 A 
BRANCH   8   9
ATOM      9  C   UNL     1      49.121   7.357  13.328  0.00  0.00    +0.000 C 
ATOM     10  N   UNL     1      49.994   7.216  12.285  0.00  0.00    +0.000 N 
ATOM     11  O   UNL     1      49.495   7.903  14.358  0.00  0.00    +0.000 OA
ATOM     12  H   UNL     1      49.817   6.642  11.475  0.00  0.00    +0.000 HD
ATOM     13  H   UNL     1      50.945   7.520  12.455  0.00  0.00    +0.000 HD
ENDBRANCH   8   9
ENDBRANCH   1   5
BRANCH   1  14
ATOM     14  C   UNL     1      43.357   5.063  11.397  0.00  0.00    +0.000 C 
BRANCH  14  15
ATOM     15  C   UNL     1      43.417   3.646  10.795  0.00  0.00    +0.000 C 
ATOM     16  C   UNL     1      43.666   2.587  11.877  0.00  0.00    +0.000 C 
BRANCH  15  17
ATOM     17  C   UNL     1      44.472   3.554   9.698  0.00  0.00    +0.000 A 
ATOM     18  C   UNL     1      45.001   4.704   9.094  0.00  0.00    +0.000 A 
ATOM     19  C   UNL     1      45.989   4.607   8.112  0.00  0.00    +0.000 A 
ATOM     20  C   UNL     1      46.466   3.359   7.718  0.00  0.00    +0.000 A 
ATOM     21  C   UNL     1      45.952   2.190   8.294  0.00  0.00    +0.000 A 
ATOM     22  C   UNL     1      44.951   2.302   9.280  0.00  0.00    +0.000 A 
BRANCH  21  23
ATOM     23  C   UNL     1      46.447   0.836   7.848  0.00  0.00    +0.000 C 
BRANCH  23  24
ATOM     24  N   UNL     1      47.675   0.934   7.068  0.00  0.00    +0.000 NA
ATOM     25  H   UNL     1      47.670   1.819   6.561  0.00  0.00    +0.000 HD
ATOM     26  H   UNL     1      47.681   0.199   6.364  0.00  0.00    +0.000 HD
ENDBRANCH  23  24
ENDBRANCH  21  23
ENDBRANCH  15  17
ENDBRANCH  14  15
ENDBRANCH   1  14
TORSDOF 7
ENDMDL
MODEL 4
REMARK VINA RESULT:    -6.811      2.470      6.913
REMARK INTER + INTRA:         -10.161
REMARK INTER:                  -9.263
REMARK INTRA:                  -0.897
REMARK UNBOUND:                -0.761
REMARK  Name = 
REMARK  9 active torsions:
REMARK  status: ('A' for Active; 'I' for Inactive)
REMARK    1  A    between atoms: C_1  and  C_2
REMARK    2  A    between atoms: C_4  and  O_5
REMARK    3  A    between atoms: O_5  and  C_6
REMARK    4  A    between atoms: C_6  and  C_7
REMARK    5  A    between atoms: C_7  and  C_8
REMARK    6  A    between atoms: C_7  and  C_9
REMARK    7  A    between atoms: C_13  and  C_14
REMARK    8  A    between atoms: C_14  and  N_15
REMARK    9  A    between atoms: C_19  and  C_20
REMARK                            x       y       z     vdW  Elec       q    Type
REMARK                         _______ _______ _______ _____ _____    ______ ____
ROOT
ATOM      1  O   UNL     1      44.971   5.274  12.399  0.00  0.00    +0.000 OA
ENDROOT
BRANCH   1   5
ATOM      2  C   UNL     1      49.261   7.669  11.739  0.00  0.00    +0.000 C 
ATOM      3  C   UNL     1      47.783   7.710  12.024  0.00  0.00    +0.000 A 
ATOM      4  C   UNL     1      47.091   6.486  12.082  0.00  0.00    +0.000 A 
ATOM      5  C   UNL     1      45.718   6.427  12.335  0.00  0.00    +0.000 A 
ATOM      6  C   UNL     1      45.025   7.618  12.540  0.00  0.00    +0.000 A 
ATOM      7  C   UNL     1      45.693   8.850  12.487  0.00  0.00    +0.000 A 
ATOM      8  C   UNL     1      47.071   8.911  12.220  0.00  0.00    +0.000 A 
BRANCH   8   9
ATOM      9  C   UNL     1      47.768  10.236  12.173  0.00  0.00    +0.000 C 
ATOM     10  N   UNL     1      48.179  10.777  13.360  0.00  0.00    +0.000 N 
ATOM     11  O   UNL     1      47.961  10.850  11.132  0.00  0.00    +0.000 OA
ATOM     12  H   UNL     1      47.917  10.417  14.265  0.00  0.00    +0.000 HD
ATOM     13  H   UNL     1      48.569  11.709  13.314  0.00  0.00    +0.000 HD
ENDBRANCH   8   9
ENDBRANCH   1   5
BRANCH   1  14
ATOM     14  C   UNL     1      43.791   5.244  11.585  0.00  0.00    +0.000 C 
BRANCH  14  15
ATOM     15  C   UNL     1      43.593   3.859  10.939  0.00  0.00    +0.000 C 
ATOM     16  C   UNL     1      43.722   2.734  11.973  0.00  0.00    +0.000 C 
BRANCH  15  17
ATOM     17  C   UNL     1      44.565   3.643   9.783  0.00  0.00    +0.000 A 
ATOM     18  C   UNL     1      45.110   4.724   9.074  0.00  0.00    +0.000 A 
ATOM     19  C   UNL     1      46.022   4.513   8.038  0.00  0.00    +0.000 A 
ATOM     20  C   UNL     1      46.405   3.219   7.693  0.00  0.00    +0.000 A 
ATOM     21  C   UNL     1      45.873   2.117   8.374  0.00  0.00    +0.000 A 
ATOM     22  C   UNL     1      44.949   2.343   9.414  0.00  0.00    +0.000 A 
BRANCH  21  23
ATOM     23  C   UNL     1      46.265   0.713   7.984  0.00  0.00    +0.000 C 
BRANCH  23  24
ATOM     24  N   UNL     1      47.260   0.702   6.918  0.00  0.00    +0.000 NA
ATOM     25  H   UNL     1      47.439  -0.265   6.650  0.00  0.00    +0.000 HD
ATOM     26  H   UNL     1      48.138   1.068   7.280  0.00  0.00    +0.000 HD
ENDBRANCH  23  24
ENDBRANCH  21  23
ENDBRANCH  15  17
ENDBRANCH  14  15
ENDBRANCH   1  14
TORSDOF 7
ENDMDL
MODEL 5
REMARK VINA RESULT:    -6.657      2.788      7.537
REMARK INTER + INTRA:          -9.948
REMARK INTER:                  -9.305
REMARK INTRA:                  -0.643
REMARK UNBOUND:                -0.761
REMARK  Name = 
REMARK  9 active torsions:
REMARK  status: ('A' for Active; 'I' for Inactive)
REMARK    1  A    between atoms: C_1  and  C_2
REMARK    2  A    between atoms: C_4  and  O_5
REMARK    3  A    between atoms: O_5  and  C_6
REMARK    4  A    between atoms: C_6  and  C_7
REMARK    5  A    between atoms: C_7  and  C_8
REMARK    6  A    between atoms: C_7  and  C_9
REMARK    7  A    between atoms: C_13  and  C_14
REMARK    8  A    between atoms: C_14  and  N_15
REMARK    9  A    between atoms: C_19  and  C_20
REMARK                            x       y       z     vdW  Elec       q    Type
REMARK                         _______ _______ _______ _____ _____    ______ ____
ROOT
ATOM      1  O   UNL     1      45.171   6.143  11.131  0.00  0.00    +0.000 OA
ENDROOT
BRANCH   1   5
ATOM      2  C   UNL     1      47.999   9.748  13.024  0.00  0.00    +0.000 C 
ATOM      3  C   UNL     1      47.604   8.295  12.982  0.00  0.00    +0.000 A 
ATOM      4  C   UNL     1      46.592   7.916  12.081  0.00  0.00    +0.000 A 
ATOM      5  C   UNL     1      46.157   6.591  11.978  0.00  0.00    +0.000 A 
ATOM      6  C   UNL     1      46.753   5.627  12.789  0.00  0.00    +0.000 A 
ATOM      7  C   UNL     1      47.764   5.982  13.694  0.00  0.00    +0.000 A 
ATOM      8  C   UNL     1      48.192   7.316  13.807  0.00  0.00    +0.000 A 
BRANCH   8   9
ATOM      9  C   UNL     1      49.277   7.674  14.776  0.00  0.00    +0.000 C 
ATOM     10  N   UNL     1      50.569   7.423  14.401  0.00  0.00    +0.000 N 
ATOM     11  O   UNL     1      49.052   8.156  15.879  0.00  0.00    +0.000 OA
ATOM     12  H   UNL     1      50.825   6.885  13.588  0.00  0.00    +0.000 HD
ATOM     13  H   UNL     1      51.278   7.593  15.103  0.00  0.00    +0.000 HD
ENDBRANCH   8   9
ENDBRANCH   1   5
BRANCH   1  14
ATOM     14  C   UNL     1      45.619   5.531   9.914  0.00  0.00    +0.000 C 
BRANCH  14  15
ATOM     15  C   UNL     1      44.615   4.472   9.418  0.00  0.00    +0.000 C 
ATOM     16  C   UNL     1      43.791   3.895  10.576  0.00  0.00    +0.000 C 
BRANCH  15  17
ATOM     17  C   UNL     1      45.319   3.359   8.650  0.00  0.00    +0.000 A 
ATOM     18  C   UNL     1      45.307   2.033   9.109  0.00  0.00    +0.000 A 
ATOM     19  C   UNL     1      45.930   1.018   8.380  0.00  0.00    +0.000 A 
ATOM     20  C   UNL     1      46.575   1.310   7.181  0.00  0.00    +0.000 A 
ATOM     21  C   UNL     1      46.615   2.625   6.699  0.00  0.00    +0.000 A 
ATOM     22  C   UNL     1      45.987   3.641   7.447  0.00  0.00    +0.000 A 
BRANCH  21  23
ATOM     23  C   UNL     1      47.338   2.948   5.415  0.00  0.00    +0.000 C 
BRANCH  23  24
ATOM     24  N   UNL     1      48.420   2.008   5.147  0.00  0.00    +0.000 NA
ATOM     25  H   UNL     1      49.016   2.396   4.417  0.00  0.00    +0.000 HD
ATOM     26  H   UNL     1      48.027   1.148   4.771  0.00  0.00    +0.000 HD
ENDBRANCH  23  24
ENDBRANCH  21  23
ENDBRANCH  15  17
ENDBRANCH  14  15
ENDBRANCH   1  14
TORSDOF 7
ENDMDL
MODEL 6
REMARK VINA RESULT:    -6.597      5.059      7.321
REMARK INTER + INTRA:          -9.865
REMARK INTER:                  -9.271
REMARK INTRA:                  -0.593
REMARK UNBOUND:                -0.761
REMARK  Name = 
REMARK  9 active torsions:
REMARK  status: ('A' for Active; 'I' for Inactive)
REMARK    1  A    between atoms: C_1  and  C_2
REMARK    2  A    between atoms: C_4  and  O_5
REMARK    3  A    between atoms: O_5  and  C_6
REMARK    4  A    between atoms: C_6  and  C_7
REMARK    5  A    between atoms: C_7  and  C_8
REMARK    6  A    between atoms: C_7  and  C_9
REMARK    7  A    between atoms: C_13  and  C_14
REMARK    8  A    between atoms: C_14  and  N_15
REMARK    9  A    between atoms: C_19  and  C_20
REMARK                            x       y       z     vdW  Elec       q    Type
REMARK                         _______ _______ _______ _____ _____    ______ ____
ROOT
ATOM      1  O   UNL     1      47.915   4.834  14.651  0.00  0.00    +0.000 OA
ENDROOT
BRANCH   1   5
ATOM      2  C   UNL     1      45.037   7.499  11.619  0.00  0.00    +0.000 C 
ATOM      3  C   UNL     1      45.443   6.162  12.180  0.00  0.00    +0.000 A 
ATOM      4  C   UNL     1      46.469   6.137  13.142  0.00  0.00    +0.000 A 
ATOM      5  C   UNL     1      46.915   4.942  13.713  0.00  0.00    +0.000 A 
ATOM      6  C   UNL     1      46.316   3.748  13.316  0.00  0.00    +0.000 A 
ATOM      7  C   UNL     1      45.291   3.748  12.359  0.00  0.00    +0.000 A 
ATOM      8  C   UNL     1      44.852   4.948  11.775  0.00  0.00    +0.000 A 
BRANCH   8   9
ATOM      9  C   UNL     1      43.752   4.928  10.757  0.00  0.00    +0.000 C 
ATOM     10  N   UNL     1      44.098   4.688   9.456  0.00  0.00    +0.000 N 
ATOM     11  O   UNL     1      42.579   5.134  11.041  0.00  0.00    +0.000 OA
ATOM     12  H   UNL     1      45.049   4.670   9.120  0.00  0.00    +0.000 HD
ATOM     13  H   UNL     1      43.353   4.763   8.775  0.00  0.00    +0.000 HD
ENDBRANCH   8   9
ENDBRANCH   1   5
BRANCH   1  14
ATOM     14  C   UNL     1      47.487   4.630  16.004  0.00  0.00    +0.000 C 
BRANCH  14  15
ATOM     15  C   UNL     1      48.018   3.296  16.563  0.00  0.00    +0.000 C 
ATOM     16  C   UNL     1      47.129   2.770  17.697  0.00  0.00    +0.000 C 
BRANCH  15  17
ATOM     17  C   UNL     1      49.464   3.428  17.029  0.00  0.00    +0.000 A 
ATOM     18  C   UNL     1      50.014   4.674  17.367  0.00  0.00    +0.000 A 
ATOM     19  C   UNL     1      51.330   4.777  17.821  0.00  0.00    +0.000 A 
ATOM     20  C   UNL     1      52.120   3.636  17.945  0.00  0.00    +0.000 A 
ATOM     21  C   UNL     1      51.606   2.377  17.607  0.00  0.00    +0.000 A 
ATOM     22  C   UNL     1      50.278   2.289  17.145  0.00  0.00    +0.000 A 
BRANCH  21  23
ATOM     23  C   UNL     1      52.469   1.145  17.714  0.00  0.00    +0.000 C 
BRANCH  23  24
ATOM     24  N   UNL     1      51.719  -0.005  18.207  0.00  0.00    +0.000 NA
ATOM     25  H   UNL     1      51.055   0.316  18.911  0.00  0.00    +0.000 HD
ATOM     26  H   UNL     1      52.358  -0.638  18.682  0.00  0.00    +0.000 HD
ENDBRANCH  23  24
ENDBRANCH  21  23
ENDBRANCH  15  17
ENDBRANCH  14  15
ENDBRANCH   1  14
TORSDOF 7
ENDMDL
MODEL 7
REMARK VINA RESULT:    -6.298      4.476      6.994
REMARK INTER + INTRA:          -9.452
REMARK INTER:                  -8.414
REMARK INTRA:                  -1.038
REMARK UNBOUND:                -0.761
REMARK  Name = 
REMARK  9 active torsions:
REMARK  status: ('A' for Active; 'I' for Inactive)
REMARK    1  A    between atoms: C_1  and  C_2
REMARK    2  A    between atoms: C_4  and  O_5
REMARK    3  A    between atoms: O_5  and  C_6
REMARK    4  A    between atoms: C_6  and  C_7
REMARK    5  A    between atoms: C_7  and  C_8
REMARK    6  A    between atoms: C_7  and  C_9
REMARK    7  A    between atoms: C_13  and  C_14
REMARK    8  A    between atoms: C_14  and  N_15
REMARK    9  A    between atoms: C_19  and  C_20
REMARK                            x       y       z     vdW  Elec       q    Type
REMARK                         _______ _______ _______ _____ _____    ______ ____
ROOT
ATOM      1  O   UNL     1      48.990   6.303  13.516  0.00  0.00    +0.000 OA
ENDROOT
BRANCH   1   5
ATOM      2  C   UNL     1      44.731   7.781  11.455  0.00  0.00    +0.000 C 
ATOM      3  C   UNL     1      45.520   6.730  12.190  0.00  0.00    +0.000 A 
ATOM      4  C   UNL     1      46.862   7.018  12.505  0.00  0.00    +0.000 A 
ATOM      5  C   UNL     1      47.672   6.101  13.181  0.00  0.00    +0.000 A 
ATOM      6  C   UNL     1      47.125   4.875  13.554  0.00  0.00    +0.000 A 
ATOM      7  C   UNL     1      45.791   4.566  13.252  0.00  0.00    +0.000 A 
ATOM      8  C   UNL     1      44.980   5.482  12.560  0.00  0.00    +0.000 A 
BRANCH   8   9
ATOM      9  C   UNL     1      43.556   5.137  12.251  0.00  0.00    +0.000 C 
ATOM     10  N   UNL     1      42.599   5.538  13.143  0.00  0.00    +0.000 N 
ATOM     11  O   UNL     1      43.225   4.503  11.258  0.00  0.00    +0.000 OA
ATOM     12  H   UNL     1      42.803   5.917  14.055  0.00  0.00    +0.000 HD
ATOM     13  H   UNL     1      41.656   5.221  12.959  0.00  0.00    +0.000 HD
ENDBRANCH   8   9
ENDBRANCH   1   5
BRANCH   1  14
ATOM     14  C   UNL     1      49.278   7.514  14.228  0.00  0.00    +0.000 C 
BRANCH  14  15
ATOM     15  C   UNL     1      48.779   7.439  15.684  0.00  0.00    +0.000 C 
ATOM     16  C   UNL     1      49.125   8.715  16.462  0.00  0.00    +0.000 C 
BRANCH  15  17
ATOM     17  C   UNL     1      49.330   6.208  16.396  0.00  0.00    +0.000 A 
ATOM     18  C   UNL     1      50.694   6.092  16.706  0.00  0.00    +0.000 A 
ATOM     19  C   UNL     1      51.181   4.973  17.385  0.00  0.00    +0.000 A 
ATOM     20  C   UNL     1      50.313   3.952  17.766  0.00  0.00    +0.000 A 
ATOM     21  C   UNL     1      48.948   4.032  17.463  0.00  0.00    +0.000 A 
ATOM     22  C   UNL     1      48.471   5.164  16.773  0.00  0.00    +0.000 A 
BRANCH  21  23
ATOM     23  C   UNL     1      48.012   2.914  17.850  0.00  0.00    +0.000 C 
BRANCH  23  24
ATOM     24  N   UNL     1      46.631   3.206  17.483  0.00  0.00    +0.000 NA
ATOM     25  H   UNL     1      46.607   3.487  16.504  0.00  0.00    +0.000 HD
ATOM     26  H   UNL     1      46.308   4.007  18.021  0.00  0.00    +0.000 HD
ENDBRANCH  23  24
ENDBRANCH  21  23
ENDBRANCH  15  17
ENDBRANCH  14  15
ENDBRANCH   1  14
TORSDOF 7
ENDMDL
MODEL 8
REMARK VINA RESULT:    -6.193      3.988      7.971
REMARK INTER + INTRA:          -9.308
REMARK INTER:                  -8.695
REMARK INTRA:                  -0.613
REMARK UNBOUND:                -0.761
REMARK  Name = 
REMARK  9 active torsions:
REMARK  status: ('A' for Active; 'I' for Inactive)
REMARK    1  A    between atoms: C_1  and  C_2
REMARK    2  A    between atoms: C_4  and  O_5
REMARK    3  A    between atoms: O_5  and  C_6
REMARK    4  A    between atoms: C_6  and  C_7
REMARK    5  A    between atoms: C_7  and  C_8
REMARK    6  A    between atoms: C_7  and  C_9
REMARK    7  A    between atoms: C_13  and  C_14
REMARK    8  A    between atoms: C_14  and  N_15
REMARK    9  A    between atoms: C_19  and  C_20
REMARK                            x       y       z     vdW  Elec       q    Type
REMARK                         _______ _______ _______ _____ _____    ______ ____
ROOT
ATOM      1  O   UNL     1      47.300   6.130  13.249  0.00  0.00    +0.000 OA
ENDROOT
BRANCH   1   5
ATOM      2  C   UNL     1      49.937   6.717  17.405  0.00  0.00    +0.000 C 
ATOM      3  C   UNL     1      48.954   5.914  16.595  0.00  0.00    +0.000 A 
ATOM      4  C   UNL     1      48.605   6.397  15.319  0.00  0.00    +0.000 A 
ATOM      5  C   UNL     1      47.697   5.721  14.499  0.00  0.00    +0.000 A 
ATOM      6  C   UNL     1      47.132   4.535  14.965  0.00  0.00    +0.000 A 
ATOM      7  C   UNL     1      47.464   4.035  16.232  0.00  0.00    +0.000 A 
ATOM      8  C   UNL     1      48.367   4.721  17.062  0.00  0.00    +0.000 A 
BRANCH   8   9
ATOM      9  C   UNL     1      48.713   4.168  18.411  0.00  0.00    +0.000 C 
ATOM     10  N   UNL     1      49.642   3.165  18.463  0.00  0.00    +0.000 N 
ATOM     11  O   UNL     1      48.190   4.561  19.445  0.00  0.00    +0.000 OA
ATOM     12  H   UNL     1      49.994   2.680  17.653  0.00  0.00    +0.000 HD
ATOM     13  H   UNL     1      49.797   2.749  19.373  0.00  0.00    +0.000 HD
ENDBRANCH   8   9
ENDBRANCH   1   5
BRANCH   1  14
ATOM     14  C   UNL     1      45.893   6.063  12.982  0.00  0.00    +0.000 C 
BRANCH  14  15
ATOM     15  C   UNL     1      45.590   6.344  11.498  0.00  0.00    +0.000 C 
ATOM     16  C   UNL     1      44.502   7.413  11.340  0.00  0.00    +0.000 C 
BRANCH  15  17
ATOM     17  C   UNL     1      45.201   5.067  10.761  0.00  0.00    +0.000 A 
ATOM     18  C   UNL     1      44.428   4.072  11.379  0.00  0.00    +0.000 A 
ATOM     19  C   UNL     1      44.053   2.921  10.683  0.00  0.00    +0.000 A 
ATOM     20  C   UNL     1      44.445   2.744   9.358  0.00  0.00    +0.000 A 
ATOM     21  C   UNL     1      45.226   3.713   8.714  0.00  0.00    +0.000 A 
ATOM     22  C   UNL     1      45.602   4.867   9.430  0.00  0.00    +0.000 A 
BRANCH  21  23
ATOM     23  C   UNL     1      45.675   3.510   7.288  0.00  0.00    +0.000 C 
BRANCH  23  24
ATOM     24  N   UNL     1      46.913   4.224   6.999  0.00  0.00    +0.000 NA
ATOM     25  H   UNL     1      47.211   4.715   7.841  0.00  0.00    +0.000 HD
ATOM     26  H   UNL     1      46.727   4.940   6.300  0.00  0.00    +0.000 HD
ENDBRANCH  23  24
ENDBRANCH  21  23
ENDBRANCH  15  17
ENDBRANCH  14  15
ENDBRANCH   1  14
TORSDOF 7
ENDMDL
MODEL 9
REMARK VINA RESULT:    -6.016      3.897      6.497
REMARK INTER + INTRA:          -9.064
REMARK INTER:                  -8.119
REMARK INTRA:                  -0.945
REMARK UNBOUND:                -0.761
REMARK  Name = 
REMARK  9 active torsions:
REMARK  status: ('A' for Active; 'I' for Inactive)
REMARK    1  A    between atoms: C_1  and  C_2
REMARK    2  A    between atoms: C_4  and  O_5
REMARK    3  A    between atoms: O_5  and  C_6
REMARK    4  A    between atoms: C_6  and  C_7
REMARK    5  A    between atoms: C_7  and  C_8
REMARK    6  A    between atoms: C_7  and  C_9
REMARK    7  A    between atoms: C_13  and  C_14
REMARK    8  A    between atoms: C_14  and  N_15
REMARK    9  A    between atoms: C_19  and  C_20
REMARK                            x       y       z     vdW  Elec       q    Type
REMARK                         _______ _______ _______ _____ _____    ______ ____
ROOT
ATOM      1  O   UNL     1      47.649   7.992  13.778  0.00  0.00    +0.000 OA
ENDROOT
BRANCH   1   5
ATOM      2  C   UNL     1      45.583   3.640  12.610  0.00  0.00    +0.000 C 
ATOM      3  C   UNL     1      45.617   5.139  12.470  0.00  0.00    +0.000 A 
ATOM      4  C   UNL     1      46.610   5.842  13.177  0.00  0.00    +0.000 A 
ATOM      5  C   UNL     1      46.715   7.234  13.113  0.00  0.00    +0.000 A 
ATOM      6  C   UNL     1      45.811   7.935  12.317  0.00  0.00    +0.000 A 
ATOM      7  C   UNL     1      44.812   7.256  11.603  0.00  0.00    +0.000 A 
ATOM      8  C   UNL     1      44.699   5.858  11.679  0.00  0.00    +0.000 A 
BRANCH   8   9
ATOM      9  C   UNL     1      43.629   5.150  10.904  0.00  0.00    +0.000 C 
ATOM     10  N   UNL     1      43.894   4.840   9.599  0.00  0.00    +0.000 N 
ATOM     11  O   UNL     1      42.540   4.863  11.383  0.00  0.00    +0.000 OA
ATOM     12  H   UNL     1      44.694   5.183   9.089  0.00  0.00    +0.000 HD
ATOM     13  H   UNL     1      43.129   4.441   9.071  0.00  0.00    +0.000 HD
ENDBRANCH   8   9
ENDBRANCH   1   5
BRANCH   1  14
ATOM     14  C   UNL     1      48.941   7.393  13.944  0.00  0.00    +0.000 C 
BRANCH  14  15
ATOM     15  C   UNL     1      49.540   7.730  15.323  0.00  0.00    +0.000 C 
ATOM     16  C   UNL     1      51.065   7.557  15.330  0.00  0.00    +0.000 C 
BRANCH  15  17
ATOM     17  C   UNL     1      48.899   6.893  16.425  0.00  0.00    +0.000 A 
ATOM     18  C   UNL     1      48.589   7.446  17.677  0.00  0.00    +0.000 A 
ATOM     19  C   UNL     1      47.974   6.677  18.667  0.00  0.00    +0.000 A 
ATOM     20  C   UNL     1      47.659   5.342  18.423  0.00  0.00    +0.000 A 
ATOM     21  C   UNL     1      47.964   4.756  17.188  0.00  0.00    +0.000 A 
ATOM     22  C   UNL     1      48.589   5.542  16.200  0.00  0.00    +0.000 A 
BRANCH  21  23
ATOM     23  C   UNL     1      47.649   3.303  16.932  0.00  0.00    +0.000 C 
BRANCH  23  24
ATOM     24  N   UNL     1      46.526   2.838  17.738  0.00  0.00    +0.000 NA
ATOM     25  H   UNL     1      46.208   3.607  18.328  0.00  0.00    +0.000 HD
ATOM     26  H   UNL     1      46.849   2.108  18.368  0.00  0.00    +0.000 HD
ENDBRANCH  23  24
ENDBRANCH  21  23
ENDBRANCH  15  17
ENDBRANCH  14  15
ENDBRANCH   1  14
TORSDOF 7
ENDMDL
