MODEL 1
REMARK VINA RESULT:    -8.619      0.000      0.000
REMARK INTER + INTRA:         -12.590
REMARK INTER:                 -11.642
REMARK INTRA:                  -0.948
REMARK UNBOUND:                -0.948
REMARK  Name = 
REMARK  6 active torsions:
REMARK  status: ('A' for Active; 'I' for Inactive)
REMARK    1  A    between atoms: C_2  and  C_3
REMARK    2  A    between atoms: N_7  and  C_8
REMARK    3  A    between atoms: C_8  and  C_9
REMARK    4  A    between atoms: C_9  and  C_12
REMARK    5  A    between atoms: C_16  and  O_17
REMARK    6  A    between atoms: O_17  and  C_18
REMARK                            x       y       z     vdW  Elec       q    Type
REMARK                         _______ _______ _______ _____ _____    ______ ____
ROOT
ATOM      1  C   UNL     1      43.742   4.672  12.439  0.00  0.00    +0.000 C 
ATOM      2  F   UNL     1      42.820   5.542  12.943  0.00  0.00    +0.000 F 
ATOM      3  F   UNL     1      43.543   3.502  13.116  0.00  0.00    +0.000 F 
ENDROOT
BRANCH   1   4
ATOM      4  C   UNL     1      45.163   5.185  12.590  0.00  0.00    +0.000 A 
ATOM      5  C   UNL     1      45.685   6.124  11.691  0.00  0.00    +0.000 A 
ATOM      6  C   UNL     1      46.964   6.649  11.880  0.00  0.00    +0.000 A 
ATOM      7  C   UNL     1      47.745   6.242  12.968  0.00  0.00    +0.000 A 
ATOM      8  C   UNL     1      47.242   5.300  13.860  0.00  0.00    +0.000 A 
ATOM      9  C   UNL     1      45.958   4.778  13.674  0.00  0.00    +0.000 A 
BRANCH   8  10
ATOM     10  O   UNL     1      47.888   4.852  14.985  0.00  0.00    +0.000 OA
BRANCH  10  11
ATOM     11  C   UNL     1      47.149   4.122  15.990  0.00  0.00    +0.000 C 
ATOM     12  C   UNL     1      47.163   4.660  17.437  0.00  0.00    +0.000 C 
ATOM     13  N   UNL     1      47.468   3.305  17.938  0.00  0.00    +0.000 NA
ATOM     14  C   UNL     1      47.908   2.913  16.586  0.00  0.00    +0.000 C 
ATOM     15  H   UNL     1      46.653   2.789  18.269  0.00  0.00    +0.000 HD
ENDBRANCH  10  11
ENDBRANCH   8  10
ENDBRANCH   1   4
BRANCH   1  16
ATOM     16  C   UNL     1      43.436   4.434  10.937  0.00  0.00    +0.000 C 
BRANCH  16  21
ATOM     17  C   UNL     1      46.624   2.451   7.425  0.00  0.00    +0.000 A 
ATOM     18  C   UNL     1      46.291   3.764   7.724  0.00  0.00    +0.000 A 
ATOM     19  C   UNL     1      45.366   4.019   8.740  0.00  0.00    +0.000 A 
ATOM     20  C   UNL     1      44.789   2.961   9.437  0.00  0.00    +0.000 A 
ATOM     21  N   UNL     1      43.861   3.135  10.428  0.00  0.00    +0.000 N 
ATOM     22  N   UNL     1      45.114   1.686   9.155  0.00  0.00    +0.000 NA
ATOM     23  C   UNL     1      46.016   1.452   8.165  0.00  0.00    +0.000 A 
ATOM     24  H   UNL     1      43.532   2.281  10.869  0.00  0.00    +0.000 HD
BRANCH  17  26
ATOM     25  N   UNL     1      48.309   1.872   5.547  0.00  0.00    +0.000 NA
ATOM     26  C   UNL     1      47.557   2.137   6.391  0.00  0.00    +0.000 C 
ENDBRANCH  17  26
ENDBRANCH  16  21
ENDBRANCH   1  16
TORSDOF 6
ENDMDL
MODEL 2
REMARK VINA RESULT:    -7.589      1.708      1.921
REMARK INTER + INTRA:         -11.199
REMARK INTER:                 -10.353
REMARK INTRA:                  -0.846
REMARK UNBOUND:                -0.948
REMARK  Name = 
REMARK  6 active torsions:
REMARK  status: ('A' for Active; 'I' for Inactive)
REMARK    1  A    between atoms: C_2  and  C_3
REMARK    2  A    between atoms: N_7  and  C_8
REMARK    3  A    between atoms: C_8  and  C_9
REMARK    4  A    between atoms: C_9  and  C_12
REMARK    5  A    between atoms: C_16  and  O_17
REMARK    6  A    between atoms: O_17  and  C_18
REMARK                            x       y       z     vdW  Elec       q    Type
REMARK                         _______ _______ _______ _____ _____    ______ ____
ROOT
ATOM      1  C   UNL     1      44.176   3.960  12.356  0.00  0.00    +0.000 C 
ATOM      2  F   UNL     1      43.099   4.318  13.113  0.00  0.00    +0.000 F 
ATOM      3  F   UNL     1      44.608   2.774  12.879  0.00  0.00    +0.000 F 
ENDROOT
BRANCH   1   4
ATOM      4  C   UNL     1      45.266   5.019  12.367  0.00  0.00    +0.000 A 
ATOM      5  C   UNL     1      45.181   6.141  11.531  0.00  0.00    +0.000 A 
ATOM      6  C   UNL     1      46.145   7.147  11.601  0.00  0.00    +0.000 A 
ATOM      7  C   UNL     1      47.212   7.048  12.502  0.00  0.00    +0.000 A 
ATOM      8  C   UNL     1      47.313   5.932  13.326  0.00  0.00    +0.000 A 
ATOM      9  C   UNL     1      46.344   4.925  13.261  0.00  0.00    +0.000 A 
BRANCH   8  10
ATOM     10  O   UNL     1      48.282   5.736  14.277  0.00  0.00    +0.000 OA
BRANCH  10  11
ATOM     11  C   UNL     1      48.732   6.850  15.081  0.00  0.00    +0.000 C 
ATOM     12  C   UNL     1      50.159   7.390  14.843  0.00  0.00    +0.000 C 
ATOM     13  N   UNL     1      50.405   7.379  16.299  0.00  0.00    +0.000 NA
ATOM     14  C   UNL     1      49.270   6.454  16.476  0.00  0.00    +0.000 C 
ATOM     15  H   UNL     1      50.272   8.282  16.752  0.00  0.00    +0.000 HD
ENDBRANCH  10  11
ENDBRANCH   8  10
ENDBRANCH   1   4
BRANCH   1  16
ATOM     16  C   UNL     1      43.705   3.718  10.899  0.00  0.00    +0.000 C 
BRANCH  16  21
ATOM     17  C   UNL     1      46.865   2.363   7.075  0.00  0.00    +0.000 A 
ATOM     18  C   UNL     1      46.399   3.604   7.484  0.00  0.00    +0.000 A 
ATOM     19  C   UNL     1      45.520   3.679   8.569  0.00  0.00    +0.000 A 
ATOM     20  C   UNL     1      45.121   2.518   9.223  0.00  0.00    +0.000 A 
ATOM     21  N   UNL     1      44.247   2.514  10.276  0.00  0.00    +0.000 N 
ATOM     22  N   UNL     1      45.577   1.312   8.835  0.00  0.00    +0.000 NA
ATOM     23  C   UNL     1      46.431   1.253   7.780  0.00  0.00    +0.000 A 
ATOM     24  H   UNL     1      44.053   1.601  10.675  0.00  0.00    +0.000 HD
BRANCH  17  26
ATOM     25  N   UNL     1      48.474   2.126   5.062  0.00  0.00    +0.000 NA
ATOM     26  C   UNL     1      47.758   2.231   5.970  0.00  0.00    +0.000 C 
ENDBRANCH  17  26
ENDBRANCH  16  21
ENDBRANCH   1  16
TORSDOF 6
ENDMDL
MODEL 3
REMARK VINA RESULT:    -7.435      2.511      3.640
REMARK INTER + INTRA:         -10.990
REMARK INTER:                 -10.068
REMARK INTRA:                  -0.922
REMARK UNBOUND:                -0.948
REMARK  Name = 
REMARK  6 active torsions:
REMARK  status: ('A' for Active; 'I' for Inactive)
REMARK    1  A    between atoms: C_2  and  C_3
REMARK    2  A    between atoms: N_7  and  C_8
REMARK    3  A    between atoms: C_8  and  C_9
REMARK    4  A    between atoms: C_9  and  C_12
REMARK    5  A    between atoms: C_16  and  O_17
REMARK    6  A    between atoms: O_17  and  C_18
REMARK                            x       y       z     vdW  Elec       q    Type
REMARK                         _______ _______ _______ _____ _____    ______ ____
ROOT
ATOM      1  C   UNL     1      43.348   5.409  12.149  0.00  0.00    +0.000 C 
ATOM      2  F   UNL     1      42.939   6.679  11.861  0.00  0.00    +0.000 F 
ATOM      3  F   UNL     1      42.414   4.916  13.016  0.00  0.00    +0.000 F 
ENDROOT
BRANCH   1   4
ATOM      4  C   UNL     1      44.748   5.374  12.737  0.00  0.00    +0.000 A 
ATOM      5  C   UNL     1      45.328   4.161  13.132  0.00  0.00    +0.000 A 
ATOM      6  C   UNL     1      46.642   4.126  13.600  0.00  0.00    +0.000 A 
ATOM      7  C   UNL     1      47.397   5.301  13.685  0.00  0.00    +0.000 A 
ATOM      8  C   UNL     1      46.827   6.513  13.309  0.00  0.00    +0.000 A 
ATOM      9  C   UNL     1      45.512   6.548  12.835  0.00  0.00    +0.000 A 
BRANCH   8  10
ATOM     10  O   UNL     1      47.472   7.724  13.305  0.00  0.00    +0.000 OA
BRANCH  10  11
ATOM     11  C   UNL     1      47.764   8.375  12.048  0.00  0.00    +0.000 C 
ATOM     12  C   UNL     1      49.241   8.480  11.609  0.00  0.00    +0.000 C 
ATOM     13  N   UNL     1      49.046   9.910  11.295  0.00  0.00    +0.000 NA
ATOM     14  C   UNL     1      47.829   9.918  12.129  0.00  0.00    +0.000 C 
ATOM     15  H   UNL     1      48.868  10.099  10.309  0.00  0.00    +0.000 HD
ENDBRANCH  10  11
ENDBRANCH   8  10
ENDBRANCH   1   4
BRANCH   1  16
ATOM     16  C   UNL     1      43.312   4.566  10.849  0.00  0.00    +0.000 C 
BRANCH  16  21
ATOM     17  C   UNL     1      46.707   2.677   7.480  0.00  0.00    +0.000 A 
ATOM     18  C   UNL     1      45.974   2.064   8.486  0.00  0.00    +0.000 A 
ATOM     19  C   UNL     1      45.119   2.838   9.276  0.00  0.00    +0.000 A 
ATOM     20  C   UNL     1      45.012   4.206   9.050  0.00  0.00    +0.000 A 
ATOM     21  N   UNL     1      44.213   5.029   9.798  0.00  0.00    +0.000 N 
ATOM     22  N   UNL     1      45.715   4.805   8.071  0.00  0.00    +0.000 NA
ATOM     23  C   UNL     1      46.542   4.041   7.310  0.00  0.00    +0.000 A 
ATOM     24  H   UNL     1      44.212   6.005   9.518  0.00  0.00    +0.000 HD
BRANCH  17  26
ATOM     25  N   UNL     1      48.316   1.319   5.976  0.00  0.00    +0.000 NA
ATOM     26  C   UNL     1      47.599   1.934   6.651  0.00  0.00    +0.000 C 
ENDBRANCH  17  26
ENDBRANCH  16  21
ENDBRANCH   1  16
TORSDOF 6
ENDMDL
MODEL 4
REMARK VINA RESULT:    -7.337      2.479      7.850
REMARK INTER + INTRA:         -10.858
REMARK INTER:                 -10.366
REMARK INTRA:                  -0.493
REMARK UNBOUND:                -0.948
REMARK  Name = 
REMARK  6 active torsions:
REMARK  status: ('A' for Active; 'I' for Inactive)
REMARK    1  A    between atoms: C_2  and  C_3
REMARK    2  A    between atoms: N_7  and  C_8
REMARK    3  A    between atoms: C_8  and  C_9
REMARK    4  A    between atoms: C_9  and  C_12
REMARK    5  A    between atoms: C_16  and  O_17
REMARK    6  A    between atoms: O_17  and  C_18
REMARK                            x       y       z     vdW  Elec       q    Type
REMARK                         _______ _______ _______ _____ _____    ______ ____
ROOT
ATOM      1  C   UNL     1      45.104   6.050  11.407  0.00  0.00    +0.000 C 
ATOM      2  F   UNL     1      44.038   6.165  12.253  0.00  0.00    +0.000 F 
ATOM      3  F   UNL     1      45.111   7.204  10.676  0.00  0.00    +0.000 F 
ENDROOT
BRANCH   1   4
ATOM      4  C   UNL     1      45.011   4.816  10.526  0.00  0.00    +0.000 A 
ATOM      5  C   UNL     1      44.254   3.707  10.925  0.00  0.00    +0.000 A 
ATOM      6  C   UNL     1      44.110   2.608  10.077  0.00  0.00    +0.000 A 
ATOM      7  C   UNL     1      44.723   2.597   8.820  0.00  0.00    +0.000 A 
ATOM      8  C   UNL     1      45.488   3.687   8.418  0.00  0.00    +0.000 A 
ATOM      9  C   UNL     1      45.628   4.791   9.265  0.00  0.00    +0.000 A 
BRANCH   8  10
ATOM     10  O   UNL     1      46.103   3.817   7.199  0.00  0.00    +0.000 OA
BRANCH  10  11
ATOM     11  C   UNL     1      46.565   2.638   6.501  0.00  0.00    +0.000 C 
ATOM     12  C   UNL     1      47.913   2.019   6.932  0.00  0.00    +0.000 C 
ATOM     13  N   UNL     1      48.330   1.943   5.517  0.00  0.00    +0.000 NA
ATOM     14  C   UNL     1      47.290   2.929   5.167  0.00  0.00    +0.000 C 
ATOM     15  H   UNL     1      48.188   1.029   5.089  0.00  0.00    +0.000 HD
ENDBRANCH  10  11
ENDBRANCH   8  10
ENDBRANCH   1   4
BRANCH   1  16
ATOM     16  C   UNL     1      46.404   5.987  12.249  0.00  0.00    +0.000 C 
BRANCH  16  21
ATOM     17  C   UNL     1      48.466   4.914  16.836  0.00  0.00    +0.000 A 
ATOM     18  C   UNL     1      48.606   6.014  16.002  0.00  0.00    +0.000 A 
ATOM     19  C   UNL     1      47.925   6.035  14.781  0.00  0.00    +0.000 A 
ATOM     20  C   UNL     1      47.122   4.960  14.413  0.00  0.00    +0.000 A 
ATOM     21  N   UNL     1      46.446   4.903  13.225  0.00  0.00    +0.000 N 
ATOM     22  N   UNL     1      46.978   3.894  15.222  0.00  0.00    +0.000 NA
ATOM     23  C   UNL     1      47.644   3.887  16.407  0.00  0.00    +0.000 A 
ATOM     24  H   UNL     1      45.881   4.070  13.087  0.00  0.00    +0.000 HD
BRANCH  17  26
ATOM     25  N   UNL     1      49.687   4.772  19.113  0.00  0.00    +0.000 NA
ATOM     26  C   UNL     1      49.145   4.840  18.089  0.00  0.00    +0.000 C 
ENDBRANCH  17  26
ENDBRANCH  16  21
ENDBRANCH   1  16
TORSDOF 6
ENDMDL
MODEL 5
REMARK VINA RESULT:    -7.170      2.759      3.216
REMARK INTER + INTRA:         -10.633
REMARK INTER:                  -9.948
REMARK INTRA:                  -0.686
REMARK UNBOUND:                -0.948
REMARK  Name = 
REMARK  6 active torsions:
REMARK  status: ('A' for Active; 'I' for Inactive)
REMARK    1  A    between atoms: C_2  and  C_3
REMARK    2  A    between atoms: N_7  and  C_8
REMARK    3  A    between atoms: C_8  and  C_9
REMARK    4  A    between atoms: C_9  and  C_12
REMARK    5  A    between atoms: C_16  and  O_17
REMARK    6  A    between atoms: O_17  and  C_18
REMARK                            x       y       z     vdW  Elec       q    Type
REMARK                         _______ _______ _______ _____ _____    ______ ____
ROOT
ATOM      1  C   UNL     1      44.337   5.458  12.226  0.00  0.00    +0.000 C 
ATOM      2  F   UNL     1      43.425   5.302  13.229  0.00  0.00    +0.000 F 
ATOM      3  F   UNL     1      45.323   4.550  12.490  0.00  0.00    +0.000 F 
ENDROOT
BRANCH   1   4
ATOM      4  C   UNL     1      44.872   6.878  12.150  0.00  0.00    +0.000 A 
ATOM      5  C   UNL     1      44.215   7.850  11.384  0.00  0.00    +0.000 A 
ATOM      6  C   UNL     1      44.669   9.170  11.380  0.00  0.00    +0.000 A 
ATOM      7  C   UNL     1      45.787   9.539  12.135  0.00  0.00    +0.000 A 
ATOM      8  C   UNL     1      46.455   8.579  12.888  0.00  0.00    +0.000 A 
ATOM      9  C   UNL     1      45.998   7.258  12.897  0.00  0.00    +0.000 A 
BRANCH   8  10
ATOM     10  O   UNL     1      47.534   8.821  13.700  0.00  0.00    +0.000 OA
BRANCH  10  11
ATOM     11  C   UNL     1      48.869   8.787  13.147  0.00  0.00    +0.000 C 
ATOM     12  C   UNL     1      49.092   8.005  11.834  0.00  0.00    +0.000 C 
ATOM     13  N   UNL     1      50.273   7.346  12.428  0.00  0.00    +0.000 NA
ATOM     14  C   UNL     1      49.792   7.716  13.772  0.00  0.00    +0.000 C 
ATOM     15  H   UNL     1      51.162   7.778  12.177  0.00  0.00    +0.000 HD
ENDBRANCH  10  11
ENDBRANCH   8  10
ENDBRANCH   1   4
BRANCH   1  16
ATOM     16  C   UNL     1      43.666   5.085  10.879  0.00  0.00    +0.000 C 
BRANCH  16  21
ATOM     17  C   UNL     1      46.613   2.552   7.512  0.00  0.00    +0.000 A 
ATOM     18  C   UNL     1      46.455   3.909   7.753  0.00  0.00    +0.000 A 
ATOM     19  C   UNL     1      45.556   4.326   8.740  0.00  0.00    +0.000 A 
ATOM     20  C   UNL     1      44.833   3.384   9.465  0.00  0.00    +0.000 A 
ATOM     21  N   UNL     1      43.921   3.721  10.429  0.00  0.00    +0.000 N 
ATOM     22  N   UNL     1      44.989   2.067   9.240  0.00  0.00    +0.000 NA
ATOM     23  C   UNL     1      45.866   1.675   8.279  0.00  0.00    +0.000 A 
ATOM     24  H   UNL     1      43.475   2.937  10.896  0.00  0.00    +0.000 HD
BRANCH  17  26
ATOM     25  N   UNL     1      48.240   1.698   5.690  0.00  0.00    +0.000 NA
ATOM     26  C   UNL     1      47.512   2.075   6.511  0.00  0.00    +0.000 C 
ENDBRANCH  17  26
ENDBRANCH  16  21
ENDBRANCH   1  16
TORSDOF 6
ENDMDL
MODEL 6
REMARK VINA RESULT:    -6.315      3.118      6.903
REMARK INTER + INTRA:          -9.478
REMARK INTER:                  -8.948
REMARK INTRA:                  -0.531
REMARK UNBOUND:                -0.948
REMARK  Name = 
REMARK  6 active torsions:
REMARK  status: ('A' for Active; 'I' for Inactive)
REMARK    1  A    between atoms: C_2  and  C_3
REMARK    2  A    between atoms: N_7  and  C_8
REMARK    3  A    between atoms: C_8  and  C_9
REMARK    4  A    between atoms: C_9  and  C_12
REMARK    5  A    between atoms: C_16  and  O_17
REMARK    6  A    between atoms: O_17  and  C_18
REMARK                            x       y       z     vdW  Elec       q    Type
REMARK                         _______ _______ _______ _____ _____    ______ ____
ROOT
ATOM      1  C   UNL     1      44.925   3.457  12.482  0.00  0.00    +0.000 C 
ATOM      2  F   UNL     1      45.958   2.699  12.953  0.00  0.00    +0.000 F 
ATOM      3  F   UNL     1      43.791   2.783  12.836  0.00  0.00    +0.000 F 
ENDROOT
BRANCH   1   4
ATOM      4  C   UNL     1      45.012   3.681  10.981  0.00  0.00    +0.000 A 
ATOM      5  C   UNL     1      44.898   4.969  10.442  0.00  0.00    +0.000 A 
ATOM      6  C   UNL     1      45.055   5.176   9.071  0.00  0.00    +0.000 A 
ATOM      7  C   UNL     1      45.323   4.101   8.216  0.00  0.00    +0.000 A 
ATOM      8  C   UNL     1      45.424   2.816   8.739  0.00  0.00    +0.000 A 
ATOM      9  C   UNL     1      45.272   2.608  10.113  0.00  0.00    +0.000 A 
BRANCH   8  10
ATOM     10  O   UNL     1      45.724   1.689   8.016  0.00  0.00    +0.000 OA
BRANCH  10  11
ATOM     11  C   UNL     1      47.084   1.456   7.586  0.00  0.00    +0.000 C 
ATOM     12  C   UNL     1      47.849   2.625   6.926  0.00  0.00    +0.000 C 
ATOM     13  N   UNL     1      48.283   1.725   5.838  0.00  0.00    +0.000 NA
ATOM     14  C   UNL     1      47.208   0.782   6.200  0.00  0.00    +0.000 C 
ATOM     15  H   UNL     1      49.220   1.344   5.961  0.00  0.00    +0.000 HD
ENDBRANCH  10  11
ENDBRANCH   8  10
ENDBRANCH   1   4
BRANCH   1  16
ATOM     16  C   UNL     1      44.937   4.826  13.210  0.00  0.00    +0.000 C 
BRANCH  16  21
ATOM     17  C   UNL     1      49.255   7.579  12.742  0.00  0.00    +0.000 A 
ATOM     18  C   UNL     1      48.201   7.371  11.865  0.00  0.00    +0.000 A 
ATOM     19  C   UNL     1      47.141   6.548  12.256  0.00  0.00    +0.000 A 
ATOM     20  C   UNL     1      47.153   5.946  13.511  0.00  0.00    +0.000 A 
ATOM     21  N   UNL     1      46.162   5.110  13.951  0.00  0.00    +0.000 N 
ATOM     22  N   UNL     1      48.171   6.150  14.367  0.00  0.00    +0.000 NA
ATOM     23  C   UNL     1      49.195   6.954  13.975  0.00  0.00    +0.000 A 
ATOM     24  H   UNL     1      46.284   4.752  14.893  0.00  0.00    +0.000 HD
BRANCH  17  26
ATOM     25  N   UNL     1      51.262   9.086  12.110  0.00  0.00    +0.000 NA
ATOM     26  C   UNL     1      50.364   8.405  12.389  0.00  0.00    +0.000 C 
ENDBRANCH  17  26
ENDBRANCH  16  21
ENDBRANCH   1  16
TORSDOF 6
ENDMDL
MODEL 7
REMARK VINA RESULT:    -6.191      2.864      4.288
REMARK INTER + INTRA:          -9.310
REMARK INTER:                  -8.595
REMARK INTRA:                  -0.716
REMARK UNBOUND:                -0.948
REMARK  Name = 
REMARK  6 active torsions:
REMARK  status: ('A' for Active; 'I' for Inactive)
REMARK    1  A    between atoms: C_2  and  C_3
REMARK    2  A    between atoms: N_7  and  C_8
REMARK    3  A    between atoms: C_8  and  C_9
REMARK    4  A    between atoms: C_9  and  C_12
REMARK    5  A    between atoms: C_16  and  O_17
REMARK    6  A    between atoms: O_17  and  C_18
REMARK                            x       y       z     vdW  Elec       q    Type
REMARK                         _______ _______ _______ _____ _____    ______ ____
ROOT
ATOM      1  C   UNL     1      47.704   8.314  12.978  0.00  0.00    +0.000 C 
ATOM      2  F   UNL     1      48.272   7.483  12.057  0.00  0.00    +0.000 F 
ATOM      3  F   UNL     1      48.036   9.578  12.579  0.00  0.00    +0.000 F 
ENDROOT
BRANCH   1   4
ATOM      4  C   UNL     1      48.177   8.018  14.391  0.00  0.00    +0.000 A 
ATOM      5  C   UNL     1      48.196   9.025  15.365  0.00  0.00    +0.000 A 
ATOM      6  C   UNL     1      48.559   8.728  16.680  0.00  0.00    +0.000 A 
ATOM      7  C   UNL     1      48.911   7.424  17.042  0.00  0.00    +0.000 A 
ATOM      8  C   UNL     1      48.909   6.419  16.080  0.00  0.00    +0.000 A 
ATOM      9  C   UNL     1      48.540   6.714  14.764  0.00  0.00    +0.000 A 
BRANCH   8  10
ATOM     10  O   UNL     1      49.192   5.097  16.316  0.00  0.00    +0.000 OA
BRANCH  10  11
ATOM     11  C   UNL     1      48.507   4.397  17.379  0.00  0.00    +0.000 C 
ATOM     12  C   UNL     1      48.375   2.862  17.273  0.00  0.00    +0.000 C 
ATOM     13  N   UNL     1      46.941   2.962  17.608  0.00  0.00    +0.000 NA
ATOM     14  C   UNL     1      46.966   4.393  17.251  0.00  0.00    +0.000 C 
ATOM     15  H   UNL     1      46.729   2.788  18.589  0.00  0.00    +0.000 HD
ENDBRANCH  10  11
ENDBRANCH   8  10
ENDBRANCH   1   4
BRANCH   1  16
ATOM     16  C   UNL     1      46.163   8.160  12.906  0.00  0.00    +0.000 C 
BRANCH  16  21
ATOM     17  C   UNL     1      44.971   3.746  10.553  0.00  0.00    +0.000 A 
ATOM     18  C   UNL     1      45.371   4.974  10.049  0.00  0.00    +0.000 A 
ATOM     19  C   UNL     1      45.621   6.027  10.935  0.00  0.00    +0.000 A 
ATOM     20  C   UNL     1      45.464   5.835  12.304  0.00  0.00    +0.000 A 
ATOM     21  N   UNL     1      45.669   6.825  13.227  0.00  0.00    +0.000 N 
ATOM     22  N   UNL     1      45.083   4.643  12.799  0.00  0.00    +0.000 NA
ATOM     23  C   UNL     1      44.845   3.628  11.926  0.00  0.00    +0.000 A 
ATOM     24  H   UNL     1      45.538   6.549  14.196  0.00  0.00    +0.000 HD
BRANCH  17  26
ATOM     25  N   UNL     1      44.475   1.753   8.978  0.00  0.00    +0.000 NA
ATOM     26  C   UNL     1      44.697   2.642   9.690  0.00  0.00    +0.000 C 
ENDBRANCH  17  26
ENDBRANCH  16  21
ENDBRANCH   1  16
TORSDOF 6
ENDMDL
MODEL 8
REMARK VINA RESULT:    -6.105      3.308      5.128
REMARK INTER + INTRA:          -9.194
REMARK INTER:                  -8.438
REMARK INTRA:                  -0.757
REMARK UNBOUND:                -0.948
REMARK  Name = 
REMARK  6 active torsions:
REMARK  status: ('A' for Active; 'I' for Inactive)
REMARK    1  A    between atoms: C_2  and  C_3
REMARK    2  A    between atoms: N_7  and  C_8
REMARK    3  A    between atoms: C_8  and  C_9
REMARK    4  A    between atoms: C_9  and  C_12
REMARK    5  A    between atoms: C_16  and  O_17
REMARK    6  A    between atoms: O_17  and  C_18
REMARK                            x       y       z     vdW  Elec       q    Type
REMARK                         _______ _______ _______ _____ _____    ______ ____
ROOT
ATOM      1  C   UNL     1      48.039   8.552  14.023  0.00  0.00    +0.000 C 
ATOM      2  F   UNL     1      48.538   9.786  13.721  0.00  0.00    +0.000 F 
ATOM      3  F   UNL     1      46.680   8.691  13.984  0.00  0.00    +0.000 F 
ENDROOT
BRANCH   1   4
ATOM      4  C   UNL     1      48.522   8.049  15.373  0.00  0.00    +0.000 A 
ATOM      5  C   UNL     1      48.578   8.908  16.479  0.00  0.00    +0.000 A 
ATOM      6  C   UNL     1      48.950   8.421  17.733  0.00  0.00    +0.000 A 
ATOM      7  C   UNL     1      49.276   7.071  17.902  0.00  0.00    +0.000 A 
ATOM      8  C   UNL     1      49.238   6.212  16.809  0.00  0.00    +0.000 A 
ATOM      9  C   UNL     1      48.860   6.698  15.553  0.00  0.00    +0.000 A 
BRANCH   8  10
ATOM     10  O   UNL     1      49.493   4.865  16.851  0.00  0.00    +0.000 OA
BRANCH  10  11
ATOM     11  C   UNL     1      48.623   3.996  17.611  0.00  0.00    +0.000 C 
ATOM     12  C   UNL     1      47.938   2.825  16.873  0.00  0.00    +0.000 C 
ATOM     13  N   UNL     1      46.647   3.194  17.487  0.00  0.00    +0.000 NA
ATOM     14  C   UNL     1      47.185   4.533  17.793  0.00  0.00    +0.000 C 
ATOM     15  H   UNL     1      46.408   2.650  18.314  0.00  0.00    +0.000 HD
ENDBRANCH  10  11
ENDBRANCH   8  10
ENDBRANCH   1   4
BRANCH   1  16
ATOM     16  C   UNL     1      48.468   7.555  12.916  0.00  0.00    +0.000 C 
BRANCH  16  21
ATOM     17  C   UNL     1      44.755   4.165  11.838  0.00  0.00    +0.000 A 
ATOM     18  C   UNL     1      45.699   4.199  12.854  0.00  0.00    +0.000 A 
ATOM     19  C   UNL     1      46.615   5.254  12.899  0.00  0.00    +0.000 A 
ATOM     20  C   UNL     1      46.575   6.252  11.930  0.00  0.00    +0.000 A 
ATOM     21  N   UNL     1      47.453   7.301  11.899  0.00  0.00    +0.000 N 
ATOM     22  N   UNL     1      45.656   6.227  10.947  0.00  0.00    +0.000 NA
ATOM     23  C   UNL     1      44.771   5.196  10.916  0.00  0.00    +0.000 A 
ATOM     24  H   UNL     1      47.303   7.970  11.150  0.00  0.00    +0.000 HD
BRANCH  17  26
ATOM     25  N   UNL     1      43.018   2.253  11.671  0.00  0.00    +0.000 NA
ATOM     26  C   UNL     1      43.803   3.106  11.744  0.00  0.00    +0.000 C 
ENDBRANCH  17  26
ENDBRANCH  16  21
ENDBRANCH   1  16
TORSDOF 6
ENDMDL
MODEL 9
REMARK VINA RESULT:    -5.725      3.895      8.042
REMARK INTER + INTRA:          -8.681
REMARK INTER:                  -7.620
REMARK INTRA:                  -1.061
REMARK UNBOUND:                -0.948
REMARK  Name = 
REMARK  6 active torsions:
REMARK  status: ('A' for Active; 'I' for Inactive)
REMARK    1  A    between atoms: C_2  and  C_3
REMARK    2  A    between atoms: N_7  and  C_8
REMARK    3  A    between atoms: C_8  and  C_9
REMARK    4  A    between atoms: C_9  and  C_12
REMARK    5  A    between atoms: C_16  and  O_17
REMARK    6  A    between atoms: O_17  and  C_18
REMARK                            x       y       z     vdW  Elec       q    Type
REMARK                         _______ _______ _______ _____ _____    ______ ____
ROOT
ATOM      1  C   UNL     1      49.511   8.414  11.821  0.00  0.00    +0.000 C 
ATOM      2  F   UNL     1      49.732   9.535  11.074  0.00  0.00    +0.000 F 
ATOM      3  F   UNL     1      50.108   7.397  11.131  0.00  0.00    +0.000 F 
ENDROOT
BRANCH   1   4
ATOM      4  C   UNL     1      48.032   8.157  12.051  0.00  0.00    +0.000 A 
ATOM      5  C   UNL     1      47.249   9.075  12.764  0.00  0.00    +0.000 A 
ATOM      6  C   UNL     1      45.876   8.870  12.906  0.00  0.00    +0.000 A 
ATOM      7  C   UNL     1      45.263   7.744  12.344  0.00  0.00    +0.000 A 
ATOM      8  C   UNL     1      46.034   6.820  11.646  0.00  0.00    +0.000 A 
ATOM      9  C   UNL     1      47.409   7.027  11.498  0.00  0.00    +0.000 A 
BRANCH   8  10
ATOM     10  O   UNL     1      45.550   5.702  11.014  0.00  0.00    +0.000 OA
BRANCH  10  11
ATOM     11  C   UNL     1      44.861   4.689  11.781  0.00  0.00    +0.000 C 
ATOM     12  C   UNL     1      45.617   4.023  12.952  0.00  0.00    +0.000 C 
ATOM     13  N   UNL     1      45.194   2.693  12.469  0.00  0.00    +0.000 NA
ATOM     14  C   UNL     1      44.894   3.278  11.148  0.00  0.00    +0.000 C 
ATOM     15  H   UNL     1      44.376   2.317  12.946  0.00  0.00    +0.000 HD
ENDBRANCH  10  11
ENDBRANCH   8  10
ENDBRANCH   1   4
BRANCH   1  16
ATOM     16  C   UNL     1      50.227   8.575  13.187  0.00  0.00    +0.000 C 
BRANCH  16  21
ATOM     17  C   UNL     1      48.570   7.041  17.806  0.00  0.00    +0.000 A 
ATOM     18  C   UNL     1      48.551   8.284  17.191  0.00  0.00    +0.000 A 
ATOM     19  C   UNL     1      49.094   8.420  15.910  0.00  0.00    +0.000 A 
ATOM     20  C   UNL     1      49.646   7.317  15.268  0.00  0.00    +0.000 A 
ATOM     21  N   UNL     1      50.215   7.381  14.025  0.00  0.00    +0.000 N 
ATOM     22  N   UNL     1      49.661   6.107  15.857  0.00  0.00    +0.000 NA
ATOM     23  C   UNL     1      49.129   5.988  17.103  0.00  0.00    +0.000 A 
ATOM     24  H   UNL     1      50.566   6.499  13.662  0.00  0.00    +0.000 HD
BRANCH  17  26
ATOM     25  N   UNL     1      47.597   6.709  20.181  0.00  0.00    +0.000 NA
ATOM     26  C   UNL     1      48.035   6.851  19.116  0.00  0.00    +0.000 C 
ENDBRANCH  17  26
ENDBRANCH  16  21
ENDBRANCH   1  16
TORSDOF 6
ENDMDL
