MODEL 1
REMARK VINA RESULT:    -8.068      0.000      0.000
REMARK INTER + INTRA:          -9.871
REMARK INTER:                  -9.483
REMARK INTRA:                  -0.388
REMARK UNBOUND:                -0.388
REMARK  Name = 
REMARK  3 active torsions:
REMARK  status: ('A' for Active; 'I' for Inactive)
REMARK    1  A    between atoms: C_2  and  C_4
REMARK    2  A    between atoms: N_8  and  C_9
REMARK    3  A    between atoms: C_9  and  C_10
REMARK                            x       y       z     vdW  Elec       q    Type
REMARK                         _______ _______ _______ _____ _____    ______ ____
ROOT
ATOM      1  C   UNL     1      46.531   2.602   7.413  0.00  0.00    +0.000 A 
ATOM      2  C   UNL     1      45.932   1.634   8.212  0.00  0.00    +0.000 A 
ATOM      3  C   UNL     1      45.004   2.033   9.172  0.00  0.00    +0.000 A 
ATOM      4  C   UNL     1      44.714   3.386   9.339  0.00  0.00    +0.000 A 
ATOM      5  N   UNL     1      43.847   3.730  10.366  0.00  0.00    +0.000 N 
ATOM      6  N   UNL     1      45.306   4.334   8.589  0.00  0.00    +0.000 NA
ATOM      7  C   UNL     1      46.196   3.928   7.646  0.00  0.00    +0.000 A 
ATOM      8  H   UNL     1      42.938   3.292  10.270  0.00  0.00    +0.000 HD
ENDROOT
BRANCH   1  10
ATOM      9  N   UNL     1      47.526   3.078   5.250  0.00  0.00    +0.000 N 
ATOM     10  C   UNL     1      47.515   2.280   6.360  0.00  0.00    +0.000 C 
ATOM     11  O   UNL     1      48.312   1.361   6.489  0.00  0.00    +0.000 OA
ATOM     12  H   UNL     1      48.272   2.910   4.584  0.00  0.00    +0.000 HD
ATOM     13  H   UNL     1      47.060   3.973   5.214  0.00  0.00    +0.000 HD
ENDBRANCH   1  10
BRANCH   5  14
ATOM     14  C   UNL     1      43.803   5.109  10.816  0.00  0.00    +0.000 C 
BRANCH  14  15
ATOM     15  C   UNL     1      44.887   5.265  11.849  0.00  0.00    +0.000 A 
ATOM     16  C   UNL     1      44.896   4.528  13.029  0.00  0.00    +0.000 A 
ATOM     17  N   UNL     1      45.876   4.607  13.959  0.00  0.00    +0.000 NA
ATOM     18  C   UNL     1      46.898   5.459  13.699  0.00  0.00    +0.000 A 
ATOM     19  C   UNL     1      46.975   6.247  12.563  0.00  0.00    +0.000 A 
ATOM     20 BR   UNL     1      48.441   7.392  12.265  0.00  0.00    +0.000 Br
ATOM     21  C   UNL     1      45.951   6.155  11.632  0.00  0.00    +0.000 A 
ENDBRANCH  14  15
ENDBRANCH   5  14
TORSDOF 3
ENDMDL
MODEL 2
REMARK VINA RESULT:    -7.197      3.302      6.309
REMARK INTER + INTRA:          -8.847
REMARK INTER:                  -8.467
REMARK INTRA:                  -0.380
REMARK UNBOUND:                -0.388
REMARK  Name = 
REMARK  3 active torsions:
REMARK  status: ('A' for Active; 'I' for Inactive)
REMARK    1  A    between atoms: C_2  and  C_4
REMARK    2  A    between atoms: N_8  and  C_9
REMARK    3  A    between atoms: C_9  and  C_10
REMARK                            x       y       z     vdW  Elec       q    Type
REMARK                         _______ _______ _______ _____ _____    ______ ____
ROOT
ATOM      1  C   UNL     1      46.636   5.022  13.690  0.00  0.00    +0.000 A 
ATOM      2  C   UNL     1      47.201   5.937  12.808  0.00  0.00    +0.000 A 
ATOM      3  C   UNL     1      46.619   6.110  11.553  0.00  0.00    +0.000 A 
ATOM      4  C   UNL     1      45.508   5.351  11.191  0.00  0.00    +0.000 A 
ATOM      5  N   UNL     1      45.025   5.506   9.900  0.00  0.00    +0.000 N 
ATOM      6  N   UNL     1      44.968   4.445  12.026  0.00  0.00    +0.000 NA
ATOM      7  C   UNL     1      45.537   4.298  13.252  0.00  0.00    +0.000 A 
ATOM      8  H   UNL     1      44.747   6.460   9.701  0.00  0.00    +0.000 HD
ENDROOT
BRANCH   1  10
ATOM      9  N   UNL     1      47.851   5.797  15.643  0.00  0.00    +0.000 N 
ATOM     10  C   UNL     1      47.170   4.775  15.045  0.00  0.00    +0.000 C 
ATOM     11  O   UNL     1      46.982   3.713  15.622  0.00  0.00    +0.000 OA
ATOM     12  H   UNL     1      48.123   5.650  16.610  0.00  0.00    +0.000 HD
ATOM     13  H   UNL     1      47.819   6.749  15.306  0.00  0.00    +0.000 HD
ENDBRANCH   1  10
BRANCH   5  14
ATOM     14  C   UNL     1      44.131   4.498   9.359  0.00  0.00    +0.000 C 
BRANCH  14  15
ATOM     15  C   UNL     1      45.000   3.428   8.751  0.00  0.00    +0.000 A 
ATOM     16  C   UNL     1      45.056   2.139   9.269  0.00  0.00    +0.000 A 
ATOM     17  N   UNL     1      45.788   1.139   8.725  0.00  0.00    +0.000 NA
ATOM     18  C   UNL     1      46.495   1.438   7.606  0.00  0.00    +0.000 A 
ATOM     19  C   UNL     1      46.517   2.693   7.022  0.00  0.00    +0.000 A 
ATOM     20 BR   UNL     1      47.509   3.024   5.455  0.00  0.00    +0.000 Br
ATOM     21  C   UNL     1      45.767   3.703   7.608  0.00  0.00    +0.000 A 
ENDBRANCH  14  15
ENDBRANCH   5  14
TORSDOF 3
ENDMDL
MODEL 3
REMARK VINA RESULT:    -6.885      3.327      6.522
REMARK INTER + INTRA:          -8.481
REMARK INTER:                  -8.133
REMARK INTRA:                  -0.348
REMARK UNBOUND:                -0.388
REMARK  Name = 
REMARK  3 active torsions:
REMARK  status: ('A' for Active; 'I' for Inactive)
REMARK    1  A    between atoms: C_2  and  C_4
REMARK    2  A    between atoms: N_8  and  C_9
REMARK    3  A    between atoms: C_9  and  C_10
REMARK                            x       y       z     vdW  Elec       q    Type
REMARK                         _______ _______ _______ _____ _____    ______ ____
ROOT
ATOM      1  C   UNL     1      47.062   5.750  13.622  0.00  0.00    +0.000 A 
ATOM      2  C   UNL     1      46.918   6.804  12.726  0.00  0.00    +0.000 A 
ATOM      3  C   UNL     1      46.035   6.663  11.657  0.00  0.00    +0.000 A 
ATOM      4  C   UNL     1      45.337   5.469  11.484  0.00  0.00    +0.000 A 
ATOM      5  N   UNL     1      44.538   5.356  10.356  0.00  0.00    +0.000 N 
ATOM      6  N   UNL     1      45.488   4.433  12.330  0.00  0.00    +0.000 NA
ATOM      7  C   UNL     1      46.340   4.591  13.376  0.00  0.00    +0.000 A 
ATOM      8  H   UNL     1      43.819   6.070  10.317  0.00  0.00    +0.000 HD
ENDROOT
BRANCH   1  10
ATOM      9  N   UNL     1      47.591   5.094  15.899  0.00  0.00    +0.000 N 
ATOM     10  C   UNL     1      47.962   5.805  14.792  0.00  0.00    +0.000 C 
ATOM     11  O   UNL     1      49.013   6.431  14.762  0.00  0.00    +0.000 OA
ATOM     12  H   UNL     1      48.266   5.059  16.656  0.00  0.00    +0.000 HD
ATOM     13  H   UNL     1      46.872   4.387  15.880  0.00  0.00    +0.000 HD
ENDBRANCH   1  10
BRANCH   5  14
ATOM     14  C   UNL     1      44.096   4.039   9.937  0.00  0.00    +0.000 C 
BRANCH  14  15
ATOM     15  C   UNL     1      45.080   3.558   8.903  0.00  0.00    +0.000 A 
ATOM     16  C   UNL     1      45.782   4.437   8.085  0.00  0.00    +0.000 A 
ATOM     17  N   UNL     1      46.707   4.048   7.177  0.00  0.00    +0.000 NA
ATOM     18  C   UNL     1      46.945   2.716   7.082  0.00  0.00    +0.000 A 
ATOM     19  C   UNL     1      46.290   1.759   7.839  0.00  0.00    +0.000 A 
ATOM     20 BR   UNL     1      46.694  -0.072   7.662  0.00  0.00    +0.000 Br
ATOM     21  C   UNL     1      45.338   2.186   8.753  0.00  0.00    +0.000 A 
ENDBRANCH  14  15
ENDBRANCH   5  14
TORSDOF 3
ENDMDL
MODEL 4
REMARK VINA RESULT:    -6.489      3.988      6.021
REMARK INTER + INTRA:          -8.015
REMARK INTER:                  -7.668
REMARK INTRA:                  -0.347
REMARK UNBOUND:                -0.388
REMARK  Name = 
REMARK  3 active torsions:
REMARK  status: ('A' for Active; 'I' for Inactive)
REMARK    1  A    between atoms: C_2  and  C_4
REMARK    2  A    between atoms: N_8  and  C_9
REMARK    3  A    between atoms: C_9  and  C_10
REMARK                            x       y       z     vdW  Elec       q    Type
REMARK                         _______ _______ _______ _____ _____    ______ ____
ROOT
ATOM      1  C   UNL     1      45.477   4.812  11.637  0.00  0.00    +0.000 A 
ATOM      2  C   UNL     1      46.138   5.991  11.966  0.00  0.00    +0.000 A 
ATOM      3  C   UNL     1      46.815   6.067  13.182  0.00  0.00    +0.000 A 
ATOM      4  C   UNL     1      46.795   4.983  14.058  0.00  0.00    +0.000 A 
ATOM      5  N   UNL     1      47.414   5.147  15.289  0.00  0.00    +0.000 N 
ATOM      6  N   UNL     1      46.138   3.847  13.762  0.00  0.00    +0.000 NA
ATOM      7  C   UNL     1      45.496   3.782  12.566  0.00  0.00    +0.000 A 
ATOM      8  H   UNL     1      48.398   5.376  15.201  0.00  0.00    +0.000 HD
ENDROOT
BRANCH   1  10
ATOM      9  N   UNL     1      45.320   5.128   9.236  0.00  0.00    +0.000 N 
ATOM     10  C   UNL     1      44.743   4.628  10.369  0.00  0.00    +0.000 C 
ATOM     11  O   UNL     1      43.680   4.023  10.327  0.00  0.00    +0.000 OA
ATOM     12  H   UNL     1      44.856   4.907   8.361  0.00  0.00    +0.000 HD
ATOM     13  H   UNL     1      46.287   5.413   9.193  0.00  0.00    +0.000 HD
ENDBRANCH   1  10
BRANCH   5  14
ATOM     14  C   UNL     1      47.109   4.214  16.358  0.00  0.00    +0.000 C 
BRANCH  14  15
ATOM     15  C   UNL     1      48.392   3.495  16.687  0.00  0.00    +0.000 A 
ATOM     16  C   UNL     1      48.687   2.237  16.172  0.00  0.00    +0.000 A 
ATOM     17  N   UNL     1      49.846   1.580  16.406  0.00  0.00    +0.000 NA
ATOM     18  C   UNL     1      50.757   2.209  17.190  0.00  0.00    +0.000 A 
ATOM     19  C   UNL     1      50.553   3.453  17.762  0.00  0.00    +0.000 A 
ATOM     20 BR   UNL     1      51.879   4.269  18.824  0.00  0.00    +0.000 Br
ATOM     21  C   UNL     1      49.350   4.099  17.515  0.00  0.00    +0.000 A 
ENDBRANCH  14  15
ENDBRANCH   5  14
TORSDOF 3
ENDMDL
MODEL 5
REMARK VINA RESULT:    -6.033      4.080      6.072
REMARK INTER + INTRA:          -7.480
REMARK INTER:                  -7.191
REMARK INTRA:                  -0.289
REMARK UNBOUND:                -0.388
REMARK  Name = 
REMARK  3 active torsions:
REMARK  status: ('A' for Active; 'I' for Inactive)
REMARK    1  A    between atoms: C_2  and  C_4
REMARK    2  A    between atoms: N_8  and  C_9
REMARK    3  A    between atoms: C_9  and  C_10
REMARK                            x       y       z     vdW  Elec       q    Type
REMARK                         _______ _______ _______ _____ _____    ______ ____
ROOT
ATOM      1  C   UNL     1      45.221   4.177  11.656  0.00  0.00    +0.000 A 
ATOM      2  C   UNL     1      45.431   5.501  12.027  0.00  0.00    +0.000 A 
ATOM      3  C   UNL     1      46.091   5.768  13.225  0.00  0.00    +0.000 A 
ATOM      4  C   UNL     1      46.501   4.716  14.043  0.00  0.00    +0.000 A 
ATOM      5  N   UNL     1      47.076   5.044  15.262  0.00  0.00    +0.000 N 
ATOM      6  N   UNL     1      46.281   3.432  13.707  0.00  0.00    +0.000 NA
ATOM      7  C   UNL     1      45.651   3.187  12.528  0.00  0.00    +0.000 A 
ATOM      8  H   UNL     1      47.907   5.615  15.158  0.00  0.00    +0.000 HD
ENDROOT
BRANCH   1  10
ATOM      9  N   UNL     1      44.498   2.458  10.102  0.00  0.00    +0.000 N 
ATOM     10  C   UNL     1      44.544   3.791  10.401  0.00  0.00    +0.000 C 
ATOM     11  O   UNL     1      44.016   4.623   9.677  0.00  0.00    +0.000 OA
ATOM     12  H   UNL     1      43.944   2.199   9.293  0.00  0.00    +0.000 HD
ATOM     13  H   UNL     1      44.704   1.737  10.778  0.00  0.00    +0.000 HD
ENDBRANCH   1  10
BRANCH   5  14
ATOM     14  C   UNL     1      47.175   4.023  16.289  0.00  0.00    +0.000 C 
BRANCH  14  15
ATOM     15  C   UNL     1      48.592   4.054  16.798  0.00  0.00    +0.000 A 
ATOM     16  C   UNL     1      49.201   5.230  17.221  0.00  0.00    +0.000 A 
ATOM     17  N   UNL     1      50.455   5.291  17.727  0.00  0.00    +0.000 NA
ATOM     18  C   UNL     1      51.134   4.120  17.817  0.00  0.00    +0.000 A 
ATOM     19  C   UNL     1      50.624   2.900  17.410  0.00  0.00    +0.000 A 
ATOM     20 BR   UNL     1      51.624   1.313  17.588  0.00  0.00    +0.000 Br
ATOM     21  C   UNL     1      49.340   2.869  16.884  0.00  0.00    +0.000 A 
ENDBRANCH  14  15
ENDBRANCH   5  14
TORSDOF 3
ENDMDL
MODEL 6
REMARK VINA RESULT:    -5.964      4.997      8.420
REMARK INTER + INTRA:          -7.398
REMARK INTER:                  -7.159
REMARK INTRA:                  -0.239
REMARK UNBOUND:                -0.388
REMARK  Name = 
REMARK  3 active torsions:
REMARK  status: ('A' for Active; 'I' for Inactive)
REMARK    1  A    between atoms: C_2  and  C_4
REMARK    2  A    between atoms: N_8  and  C_9
REMARK    3  A    between atoms: C_9  and  C_10
REMARK                            x       y       z     vdW  Elec       q    Type
REMARK                         _______ _______ _______ _____ _____    ______ ____
ROOT
ATOM      1  C   UNL     1      48.852   4.638  18.213  0.00  0.00    +0.000 A 
ATOM      2  C   UNL     1      47.973   3.562  18.173  0.00  0.00    +0.000 A 
ATOM      3  C   UNL     1      47.289   3.294  16.988  0.00  0.00    +0.000 A 
ATOM      4  C   UNL     1      47.470   4.119  15.879  0.00  0.00    +0.000 A 
ATOM      5  N   UNL     1      46.699   3.854  14.756  0.00  0.00    +0.000 N 
ATOM      6  N   UNL     1      48.299   5.178  15.914  0.00  0.00    +0.000 NA
ATOM      7  C   UNL     1      48.971   5.417  17.071  0.00  0.00    +0.000 A 
ATOM      8  H   UNL     1      46.848   2.919  14.395  0.00  0.00    +0.000 HD
ENDROOT
BRANCH   1  10
ATOM      9  N   UNL     1      49.350   4.317  20.567  0.00  0.00    +0.000 N 
ATOM     10  C   UNL     1      49.632   4.996  19.415  0.00  0.00    +0.000 C 
ATOM     11  O   UNL     1      50.518   5.839  19.375  0.00  0.00    +0.000 OA
ATOM     12  H   UNL     1      49.960   4.501  21.357  0.00  0.00    +0.000 HD
ATOM     13  H   UNL     1      48.808   3.466  20.583  0.00  0.00    +0.000 HD
ENDBRANCH   1  10
BRANCH   5  14
ATOM     14  C   UNL     1      46.574   4.878  13.734  0.00  0.00    +0.000 C 
BRANCH  14  15
ATOM     15  C   UNL     1      45.375   4.513  12.899  0.00  0.00    +0.000 A 
ATOM     16  C   UNL     1      44.094   4.955  13.211  0.00  0.00    +0.000 A 
ATOM     17  N   UNL     1      43.000   4.688  12.461  0.00  0.00    +0.000 NA
ATOM     18  C   UNL     1      43.193   3.945  11.342  0.00  0.00    +0.000 A 
ATOM     19  C   UNL     1      44.424   3.446  10.952  0.00  0.00    +0.000 A 
ATOM     20 BR   UNL     1      44.614   2.439   9.371  0.00  0.00    +0.000 Br
ATOM     21  C   UNL     1      45.527   3.725  11.747  0.00  0.00    +0.000 A 
ENDBRANCH  14  15
ENDBRANCH   5  14
TORSDOF 3
ENDMDL
MODEL 7
REMARK VINA RESULT:    -5.795      3.759      5.774
REMARK INTER + INTRA:          -7.200
REMARK INTER:                  -6.907
REMARK INTRA:                  -0.292
REMARK UNBOUND:                -0.388
REMARK  Name = 
REMARK  3 active torsions:
REMARK  status: ('A' for Active; 'I' for Inactive)
REMARK    1  A    between atoms: C_2  and  C_4
REMARK    2  A    between atoms: N_8  and  C_9
REMARK    3  A    between atoms: C_9  and  C_10
REMARK                            x       y       z     vdW  Elec       q    Type
REMARK                         _______ _______ _______ _____ _____    ______ ____
ROOT
ATOM      1  C   UNL     1      45.030   4.232  11.613  0.00  0.00    +0.000 A 
ATOM      2  C   UNL     1      45.230   5.557  11.988  0.00  0.00    +0.000 A 
ATOM      3  C   UNL     1      45.971   5.828  13.137  0.00  0.00    +0.000 A 
ATOM      4  C   UNL     1      46.471   4.778  13.905  0.00  0.00    +0.000 A 
ATOM      5  N   UNL     1      47.127   5.108  15.083  0.00  0.00    +0.000 N 
ATOM      6  N   UNL     1      46.263   3.493  13.567  0.00  0.00    +0.000 NA
ATOM      7  C   UNL     1      45.552   3.244  12.435  0.00  0.00    +0.000 A 
ATOM      8  H   UNL     1      47.932   5.703  14.925  0.00  0.00    +0.000 HD
ENDROOT
BRANCH   1  10
ATOM      9  N   UNL     1      44.305   4.700   9.345  0.00  0.00    +0.000 N 
ATOM     10  C   UNL     1      44.271   3.842  10.408  0.00  0.00    +0.000 C 
ATOM     11  O   UNL     1      43.666   2.781  10.349  0.00  0.00    +0.000 OA
ATOM     12  H   UNL     1      43.865   4.373   8.491  0.00  0.00    +0.000 HD
ATOM     13  H   UNL     1      44.974   5.452   9.267  0.00  0.00    +0.000 HD
ENDBRANCH   1  10
BRANCH   5  14
ATOM     14  C   UNL     1      47.333   4.076  16.083  0.00  0.00    +0.000 C 
BRANCH  14  15
ATOM     15  C   UNL     1      48.180   4.687  17.169  0.00  0.00    +0.000 A 
ATOM     16  C   UNL     1      48.515   3.990  18.325  0.00  0.00    +0.000 A 
ATOM     17  N   UNL     1      49.310   4.487  19.301  0.00  0.00    +0.000 NA
ATOM     18  C   UNL     1      49.797   5.739  19.114  0.00  0.00    +0.000 A 
ATOM     19  C   UNL     1      49.511   6.520  18.007  0.00  0.00    +0.000 A 
ATOM     20 BR   UNL     1      50.244   8.244  17.811  0.00  0.00    +0.000 Br
ATOM     21  C   UNL     1      48.683   5.990  17.027  0.00  0.00    +0.000 A 
ENDBRANCH  14  15
ENDBRANCH   5  14
TORSDOF 3
ENDMDL
MODEL 8
REMARK VINA RESULT:    -5.363      4.332      6.463
REMARK INTER + INTRA:          -6.691
REMARK INTER:                  -6.378
REMARK INTRA:                  -0.314
REMARK UNBOUND:                -0.388
REMARK  Name = 
REMARK  3 active torsions:
REMARK  status: ('A' for Active; 'I' for Inactive)
REMARK    1  A    between atoms: C_2  and  C_4
REMARK    2  A    between atoms: N_8  and  C_9
REMARK    3  A    between atoms: C_9  and  C_10
REMARK                            x       y       z     vdW  Elec       q    Type
REMARK                         _______ _______ _______ _____ _____    ______ ____
ROOT
ATOM      1  C   UNL     1      50.094   8.048  12.658  0.00  0.00    +0.000 A 
ATOM      2  C   UNL     1      49.775   7.652  13.952  0.00  0.00    +0.000 A 
ATOM      3  C   UNL     1      48.529   7.075  14.193  0.00  0.00    +0.000 A 
ATOM      4  C   UNL     1      47.616   6.933  13.149  0.00  0.00    +0.000 A 
ATOM      5  N   UNL     1      46.362   6.431  13.465  0.00  0.00    +0.000 N 
ATOM      6  N   UNL     1      47.904   7.336  11.898  0.00  0.00    +0.000 NA
ATOM      7  C   UNL     1      49.128   7.881  11.676  0.00  0.00    +0.000 A 
ATOM      8  H   UNL     1      46.406   5.508  13.881  0.00  0.00    +0.000 HD
ENDROOT
BRANCH   1  10
ATOM      9  N   UNL     1      52.504   7.872  12.422  0.00  0.00    +0.000 N 
ATOM     10  C   UNL     1      51.391   8.657  12.299  0.00  0.00    +0.000 C 
ATOM     11  O   UNL     1      51.465   9.802  11.876  0.00  0.00    +0.000 OA
ATOM     12  H   UNL     1      53.372   8.268  12.077  0.00  0.00    +0.000 HD
ATOM     13  H   UNL     1      52.458   6.870  12.533  0.00  0.00    +0.000 HD
ENDBRANCH   1  10
BRANCH   5  14
ATOM     14  C   UNL     1      45.276   6.608  12.518  0.00  0.00    +0.000 C 
BRANCH  14  15
ATOM     15  C   UNL     1      44.736   5.236  12.213  0.00  0.00    +0.000 A 
ATOM     16  C   UNL     1      43.974   4.521  13.130  0.00  0.00    +0.000 A 
ATOM     17  N   UNL     1      43.433   3.306  12.877  0.00  0.00    +0.000 NA
ATOM     18  C   UNL     1      43.662   2.780  11.648  0.00  0.00    +0.000 A 
ATOM     19  C   UNL     1      44.418   3.405  10.671  0.00  0.00    +0.000 A 
ATOM     20 BR   UNL     1      44.671   2.617   8.978  0.00  0.00    +0.000 Br
ATOM     21  C   UNL     1      44.970   4.644  10.962  0.00  0.00    +0.000 A 
ENDBRANCH  14  15
ENDBRANCH   5  14
TORSDOF 3
ENDMDL
