MODEL 1
REMARK VINA RESULT:    -8.421      0.000      0.000
REMARK INTER + INTRA:         -11.501
REMARK INTER:                 -10.882
REMARK INTRA:                  -0.619
REMARK UNBOUND:                -0.619
REMARK  Name = 
REMARK  6 active torsions:
REMARK  status: ('A' for Active; 'I' for Inactive)
REMARK    1  A    between atoms: C_1  and  C_2
REMARK    2  A    between atoms: C_5  and  O_6
REMARK    3  A    between atoms: O_6  and  C_7
REMARK    4  A    between atoms: C_10  and  C_11
REMARK    5  A    between atoms: C_11  and  N_12
REMARK    6  A    between atoms: C_13  and  C_15
REMARK                            x       y       z     vdW  Elec       q    Type
REMARK                         _______ _______ _______ _____ _____    ______ ____
ROOT
ATOM      1  C   UNL     1      46.811   8.155  13.236  0.00  0.00    +0.000 C 
ENDROOT
BRANCH   1   5
ATOM      2  C   UNL     1      44.715   5.370  10.694  0.00  0.00    +0.000 A 
ATOM      3  C   UNL     1      44.173   5.737  11.927  0.00  0.00    +0.000 A 
ATOM      4  C   UNL     1      44.849   6.643  12.749  0.00  0.00    +0.000 A 
ATOM      5  C   UNL     1      46.098   7.153  12.370  0.00  0.00    +0.000 A 
ATOM      6  C   UNL     1      46.683   6.696  11.181  0.00  0.00    +0.000 A 
ATOM      7  C   UNL     1      45.991   5.816  10.345  0.00  0.00    +0.000 A 
BRANCH   2   8
ATOM      8  O   UNL     1      44.101   4.529   9.794  0.00  0.00    +0.000 OA
BRANCH   8  13
ATOM      9  C   UNL     1      47.020   0.575   7.063  0.00  0.00    +0.000 C 
ATOM     10  C   UNL     1      46.268   1.677   7.746  0.00  0.00    +0.000 A 
ATOM     11  C   UNL     1      46.308   2.979   7.254  0.00  0.00    +0.000 A 
ATOM     12  C   UNL     1      45.611   3.980   7.930  0.00  0.00    +0.000 A 
ATOM     13  C   UNL     1      44.849   3.652   9.049  0.00  0.00    +0.000 A 
ATOM     14  C   UNL     1      44.898   2.337   9.489  0.00  0.00    +0.000 A 
ATOM     15  N   UNL     1      45.584   1.347   8.866  0.00  0.00    +0.000 NA
ENDBRANCH   8  13
ENDBRANCH   2   8
ENDBRANCH   1   5
BRANCH   1  16
ATOM     16  N   UNL     1      47.299   7.559  14.451  0.00  0.00    +0.000 N 
ATOM     17  C   UNL     1      48.491   6.880  14.460  0.00  0.00    +0.000 C 
ATOM     18  O   UNL     1      49.202   6.811  13.460  0.00  0.00    +0.000 OA
ATOM     19  H   UNL     1      46.635   7.427  15.209  0.00  0.00    +0.000 HD
BRANCH  17  20
ATOM     20  C   UNL     1      48.909   6.285  15.735  0.00  0.00    +0.000 A 
ATOM     21  C   UNL     1      49.965   6.852  16.436  0.00  0.00    +0.000 A 
ATOM     22  S   UNL     1      50.310   6.068  17.908  0.00  0.00    +0.000 S 
ATOM     23  C   UNL     1      49.094   4.910  17.639  0.00  0.00    +0.000 A 
ATOM     24  N   UNL     1      48.875   3.908  18.531  0.00  0.00    +0.000 NA
ATOM     25  C   UNL     1      47.943   3.085  18.190  0.00  0.00    +0.000 A 
ATOM     26  N   UNL     1      47.202   3.177  17.041  0.00  0.00    +0.000 N 
ATOM     27  C   UNL     1      47.363   4.191  16.125  0.00  0.00    +0.000 A 
ATOM     28  O   UNL     1      46.650   4.273  15.131  0.00  0.00    +0.000 OA
ATOM     29  C   UNL     1      48.416   5.136  16.454  0.00  0.00    +0.000 A 
ATOM     30  H   UNL     1      46.478   2.504  16.837  0.00  0.00    +0.000 HD
ENDBRANCH  17  20
ENDBRANCH   1  16
TORSDOF 5
ENDMDL
MODEL 2
REMARK VINA RESULT:    -7.551      1.602      1.980
REMARK INTER + INTRA:         -10.378
REMARK INTER:                  -9.587
REMARK INTRA:                  -0.791
REMARK UNBOUND:                -0.619
REMARK  Name = 
REMARK  6 active torsions:
REMARK  status: ('A' for Active; 'I' for Inactive)
REMARK    1  A    between atoms: C_1  and  C_2
REMARK    2  A    between atoms: C_5  and  O_6
REMARK    3  A    between atoms: O_6  and  C_7
REMARK    4  A    between atoms: C_10  and  C_11
REMARK    5  A    between atoms: C_11  and  N_12
REMARK    6  A    between atoms: C_13  and  C_15
REMARK                            x       y       z     vdW  Elec       q    Type
REMARK                         _______ _______ _______ _____ _____    ______ ____
ROOT
ATOM      1  C   UNL     1      47.212   9.039  13.536  0.00  0.00    +0.000 C 
ENDROOT
BRANCH   1   5
ATOM      2  C   UNL     1      45.154   5.883  11.433  0.00  0.00    +0.000 A 
ATOM      3  C   UNL     1      46.388   5.635  12.035  0.00  0.00    +0.000 A 
ATOM      4  C   UNL     1      47.053   6.655  12.721  0.00  0.00    +0.000 A 
ATOM      5  C   UNL     1      46.515   7.948  12.769  0.00  0.00    +0.000 A 
ATOM      6  C   UNL     1      45.330   8.214  12.070  0.00  0.00    +0.000 A 
ATOM      7  C   UNL     1      44.650   7.186  11.413  0.00  0.00    +0.000 A 
BRANCH   2   8
ATOM      8  O   UNL     1      44.400   4.933  10.784  0.00  0.00    +0.000 OA
BRANCH   8  13
ATOM      9  C   UNL     1      46.874   2.205   6.535  0.00  0.00    +0.000 C 
ATOM     10  C   UNL     1      46.190   2.870   7.691  0.00  0.00    +0.000 A 
ATOM     11  C   UNL     1      45.532   2.116   8.659  0.00  0.00    +0.000 A 
ATOM     12  C   UNL     1      44.890   2.774   9.709  0.00  0.00    +0.000 A 
ATOM     13  C   UNL     1      44.963   4.162   9.798  0.00  0.00    +0.000 A 
ATOM     14  C   UNL     1      45.609   4.833   8.769  0.00  0.00    +0.000 A 
ATOM     15  N   UNL     1      46.223   4.222   7.724  0.00  0.00    +0.000 NA
ENDBRANCH   8  13
ENDBRANCH   2   8
ENDBRANCH   1   5
BRANCH   1  16
ATOM     16  N   UNL     1      47.409   8.679  14.915  0.00  0.00    +0.000 N 
ATOM     17  C   UNL     1      48.646   8.287  15.359  0.00  0.00    +0.000 C 
ATOM     18  O   UNL     1      49.627   8.288  14.620  0.00  0.00    +0.000 OA
ATOM     19  H   UNL     1      46.582   8.472  15.469  0.00  0.00    +0.000 HD
BRANCH  17  20
ATOM     20  C   UNL     1      48.759   7.918  16.775  0.00  0.00    +0.000 A 
ATOM     21  C   UNL     1      48.945   8.915  17.725  0.00  0.00    +0.000 A 
ATOM     22  S   UNL     1      49.026   8.333  19.323  0.00  0.00    +0.000 S 
ATOM     23  C   UNL     1      48.868   6.722  18.802  0.00  0.00    +0.000 A 
ATOM     24  N   UNL     1      48.888   5.695  19.692  0.00  0.00    +0.000 NA
ATOM     25  C   UNL     1      48.786   4.526  19.160  0.00  0.00    +0.000 A 
ATOM     26  N   UNL     1      48.657   4.287  17.816  0.00  0.00    +0.000 N 
ATOM     27  C   UNL     1      48.598   5.294  16.880  0.00  0.00    +0.000 A 
ATOM     28  O   UNL     1      48.432   5.050  15.690  0.00  0.00    +0.000 OA
ATOM     29  C   UNL     1      48.727   6.633  17.429  0.00  0.00    +0.000 A 
ATOM     30  H   UNL     1      48.572   3.346  17.464  0.00  0.00    +0.000 HD
ENDBRANCH  17  20
ENDBRANCH   1  16
TORSDOF 5
ENDMDL
MODEL 3
REMARK VINA RESULT:    -7.316      2.655      3.780
REMARK INTER + INTRA:         -10.073
REMARK INTER:                  -9.078
REMARK INTRA:                  -0.995
REMARK UNBOUND:                -0.619
REMARK  Name = 
REMARK  6 active torsions:
REMARK  status: ('A' for Active; 'I' for Inactive)
REMARK    1  A    between atoms: C_1  and  C_2
REMARK    2  A    between atoms: C_5  and  O_6
REMARK    3  A    between atoms: O_6  and  C_7
REMARK    4  A    between atoms: C_10  and  C_11
REMARK    5  A    between atoms: C_11  and  N_12
REMARK    6  A    between atoms: C_13  and  C_15
REMARK                            x       y       z     vdW  Elec       q    Type
REMARK                         _______ _______ _______ _____ _____    ______ ____
ROOT
ATOM      1  C   UNL     1      47.737   4.389  15.291  0.00  0.00    +0.000 C 
ENDROOT
BRANCH   1   5
ATOM      2  C   UNL     1      45.288   4.942  11.782  0.00  0.00    +0.000 A 
ATOM      3  C   UNL     1      45.837   6.047  12.435  0.00  0.00    +0.000 A 
ATOM      4  C   UNL     1      46.634   5.869  13.569  0.00  0.00    +0.000 A 
ATOM      5  C   UNL     1      46.850   4.587  14.091  0.00  0.00    +0.000 A 
ATOM      6  C   UNL     1      46.207   3.495  13.493  0.00  0.00    +0.000 A 
ATOM      7  C   UNL     1      45.438   3.671  12.341  0.00  0.00    +0.000 A 
BRANCH   2   8
ATOM      8  O   UNL     1      44.536   5.013  10.632  0.00  0.00    +0.000 OA
BRANCH   8  13
ATOM      9  C   UNL     1      46.689   2.936   5.870  0.00  0.00    +0.000 C 
ATOM     10  C   UNL     1      46.068   3.437   7.140  0.00  0.00    +0.000 A 
ATOM     11  C   UNL     1      45.047   2.724   7.763  0.00  0.00    +0.000 A 
ATOM     12  C   UNL     1      44.482   3.234   8.932  0.00  0.00    +0.000 A 
ATOM     13  C   UNL     1      44.981   4.413   9.481  0.00  0.00    +0.000 A 
ATOM     14  C   UNL     1      45.975   5.073   8.772  0.00  0.00    +0.000 A 
ATOM     15  N   UNL     1      46.529   4.614   7.622  0.00  0.00    +0.000 NA
ENDBRANCH   8  13
ENDBRANCH   2   8
ENDBRANCH   1   5
BRANCH   1  16
ATOM     16  N   UNL     1      47.630   5.482  16.220  0.00  0.00    +0.000 N 
ATOM     17  C   UNL     1      48.676   5.791  17.051  0.00  0.00    +0.000 C 
ATOM     18  O   UNL     1      49.747   5.191  16.991  0.00  0.00    +0.000 OA
ATOM     19  H   UNL     1      46.699   5.836  16.423  0.00  0.00    +0.000 HD
BRANCH  17  20
ATOM     20  C   UNL     1      48.479   6.908  17.982  0.00  0.00    +0.000 A 
ATOM     21  C   UNL     1      48.459   6.659  19.349  0.00  0.00    +0.000 A 
ATOM     22  S   UNL     1      48.253   8.059  20.297  0.00  0.00    +0.000 S 
ATOM     23  C   UNL     1      48.131   9.043  18.916  0.00  0.00    +0.000 A 
ATOM     24  N   UNL     1      47.916  10.380  19.029  0.00  0.00    +0.000 NA
ATOM     25  C   UNL     1      47.817  11.001  17.903  0.00  0.00    +0.000 A 
ATOM     26  N   UNL     1      47.921  10.408  16.672  0.00  0.00    +0.000 N 
ATOM     27  C   UNL     1      48.171   9.065  16.507  0.00  0.00    +0.000 A 
ATOM     28  O   UNL     1      48.308   8.574  15.392  0.00  0.00    +0.000 OA
ATOM     29  C   UNL     1      48.273   8.316  17.747  0.00  0.00    +0.000 A 
ATOM     30  H   UNL     1      47.842  10.954  15.827  0.00  0.00    +0.000 HD
ENDBRANCH  17  20
ENDBRANCH   1  16
TORSDOF 5
ENDMDL
MODEL 4
REMARK VINA RESULT:    -7.207      3.519      8.018
REMARK INTER + INTRA:          -9.933
REMARK INTER:                  -8.974
REMARK INTRA:                  -0.959
REMARK UNBOUND:                -0.619
REMARK  Name = 
REMARK  6 active torsions:
REMARK  status: ('A' for Active; 'I' for Inactive)
REMARK    1  A    between atoms: C_1  and  C_2
REMARK    2  A    between atoms: C_5  and  O_6
REMARK    3  A    between atoms: O_6  and  C_7
REMARK    4  A    between atoms: C_10  and  C_11
REMARK    5  A    between atoms: C_11  and  N_12
REMARK    6  A    between atoms: C_13  and  C_15
REMARK                            x       y       z     vdW  Elec       q    Type
REMARK                         _______ _______ _______ _____ _____    ______ ____
ROOT
ATOM      1  C   UNL     1      48.338   7.755  14.544  0.00  0.00    +0.000 C 
ENDROOT
BRANCH   1   5
ATOM      2  C   UNL     1      49.966   5.016  17.454  0.00  0.00    +0.000 A 
ATOM      3  C   UNL     1      50.774   6.009  16.897  0.00  0.00    +0.000 A 
ATOM      4  C   UNL     1      50.246   6.899  15.958  0.00  0.00    +0.000 A 
ATOM      5  C   UNL     1      48.919   6.776  15.528  0.00  0.00    +0.000 A 
ATOM      6  C   UNL     1      48.147   5.710  16.012  0.00  0.00    +0.000 A 
ATOM      7  C   UNL     1      48.666   4.841  16.975  0.00  0.00    +0.000 A 
BRANCH   2   8
ATOM      8  O   UNL     1      50.379   4.129  18.422  0.00  0.00    +0.000 OA
BRANCH   8  13
ATOM      9  C   UNL     1      53.959   0.032  17.005  0.00  0.00    +0.000 C 
ATOM     10  C   UNL     1      53.057   1.155  17.418  0.00  0.00    +0.000 A 
ATOM     11  C   UNL     1      53.554   2.241  18.135  0.00  0.00    +0.000 A 
ATOM     12  C   UNL     1      52.678   3.257  18.518  0.00  0.00    +0.000 A 
ATOM     13  C   UNL     1      51.341   3.194  18.133  0.00  0.00    +0.000 A 
ATOM     14  C   UNL     1      50.927   2.057  17.452  0.00  0.00    +0.000 A 
ATOM     15  N   UNL     1      51.750   1.043  17.086  0.00  0.00    +0.000 NA
ENDBRANCH   8  13
ENDBRANCH   2   8
ENDBRANCH   1   5
BRANCH   1  16
ATOM     16  N   UNL     1      47.092   7.286  13.998  0.00  0.00    +0.000 N 
ATOM     17  C   UNL     1      47.050   6.732  12.744  0.00  0.00    +0.000 C 
ATOM     18  O   UNL     1      48.068   6.565  12.077  0.00  0.00    +0.000 OA
ATOM     19  H   UNL     1      46.235   7.607  14.439  0.00  0.00    +0.000 HD
BRANCH  17  20
ATOM     20  C   UNL     1      45.737   6.296  12.253  0.00  0.00    +0.000 A 
ATOM     21  C   UNL     1      44.872   7.233  11.702  0.00  0.00    +0.000 A 
ATOM     22  S   UNL     1      43.404   6.568  11.151  0.00  0.00    +0.000 S 
ATOM     23  C   UNL     1      43.848   5.013  11.675  0.00  0.00    +0.000 A 
ATOM     24  N   UNL     1      43.003   3.958  11.525  0.00  0.00    +0.000 NA
ATOM     25  C   UNL     1      43.454   2.844  11.991  0.00  0.00    +0.000 A 
ATOM     26  N   UNL     1      44.678   2.684  12.587  0.00  0.00    +0.000 N 
ATOM     27  C   UNL     1      45.580   3.713  12.731  0.00  0.00    +0.000 A 
ATOM     28  O   UNL     1      46.687   3.527  13.224  0.00  0.00    +0.000 OA
ATOM     29  C   UNL     1      45.111   4.996  12.238  0.00  0.00    +0.000 A 
ATOM     30  H   UNL     1      44.975   1.780  12.923  0.00  0.00    +0.000 HD
ENDBRANCH  17  20
ENDBRANCH   1  16
TORSDOF 5
ENDMDL
MODEL 5
REMARK VINA RESULT:    -6.978      3.688      8.600
REMARK INTER + INTRA:          -9.637
REMARK INTER:                  -8.990
REMARK INTRA:                  -0.647
REMARK UNBOUND:                -0.619
REMARK  Name = 
REMARK  6 active torsions:
REMARK  status: ('A' for Active; 'I' for Inactive)
REMARK    1  A    between atoms: C_1  and  C_2
REMARK    2  A    between atoms: C_5  and  O_6
REMARK    3  A    between atoms: O_6  and  C_7
REMARK    4  A    between atoms: C_10  and  C_11
REMARK    5  A    between atoms: C_11  and  N_12
REMARK    6  A    between atoms: C_13  and  C_15
REMARK                            x       y       z     vdW  Elec       q    Type
REMARK                         _______ _______ _______ _____ _____    ______ ____
ROOT
ATOM      1  C   UNL     1      47.209   3.446  16.624  0.00  0.00    +0.000 C 
ENDROOT
BRANCH   1   5
ATOM      2  C   UNL     1      51.135   4.735  17.866  0.00  0.00    +0.000 A 
ATOM      3  C   UNL     1      50.849   3.374  17.748  0.00  0.00    +0.000 A 
ATOM      4  C   UNL     1      49.579   2.955  17.342  0.00  0.00    +0.000 A 
ATOM      5  C   UNL     1      48.566   3.891  17.096  0.00  0.00    +0.000 A 
ATOM      6  C   UNL     1      48.831   5.249  17.321  0.00  0.00    +0.000 A 
ATOM      7  C   UNL     1      50.110   5.668  17.696  0.00  0.00    +0.000 A 
BRANCH   2   8
ATOM      8  O   UNL     1      52.367   5.244  18.207  0.00  0.00    +0.000 OA
BRANCH   8  13
ATOM      9  C   UNL     1      55.775   6.883  14.046  0.00  0.00    +0.000 C 
ATOM     10  C   UNL     1      54.912   6.395  15.170  0.00  0.00    +0.000 A 
ATOM     11  C   UNL     1      55.335   5.353  15.992  0.00  0.00    +0.000 A 
ATOM     12  C   UNL     1      54.494   4.914  17.015  0.00  0.00    +0.000 A 
ATOM     13  C   UNL     1      53.277   5.557  17.229  0.00  0.00    +0.000 A 
ATOM     14  C   UNL     1      52.922   6.561  16.338  0.00  0.00    +0.000 A 
ATOM     15  N   UNL     1      53.708   6.994  15.321  0.00  0.00    +0.000 NA
ENDBRANCH   8  13
ENDBRANCH   2   8
ENDBRANCH   1   5
BRANCH   1  16
ATOM     16  N   UNL     1      46.626   4.391  15.710  0.00  0.00    +0.000 N 
ATOM     17  C   UNL     1      46.780   4.234  14.356  0.00  0.00    +0.000 C 
ATOM     18  O   UNL     1      47.361   3.261  13.882  0.00  0.00    +0.000 OA
ATOM     19  H   UNL     1      46.336   5.290  16.086  0.00  0.00    +0.000 HD
BRANCH  17  20
ATOM     20  C   UNL     1      46.169   5.252  13.493  0.00  0.00    +0.000 A 
ATOM     21  C   UNL     1      46.862   6.429  13.236  0.00  0.00    +0.000 A 
ATOM     22  S   UNL     1      46.037   7.495  12.196  0.00  0.00    +0.000 S 
ATOM     23  C   UNL     1      44.702   6.448  12.092  0.00  0.00    +0.000 A 
ATOM     24  N   UNL     1      43.607   6.784  11.359  0.00  0.00    +0.000 NA
ATOM     25  C   UNL     1      42.657   5.912  11.389  0.00  0.00    +0.000 A 
ATOM     26  N   UNL     1      42.705   4.729  12.078  0.00  0.00    +0.000 N 
ATOM     27  C   UNL     1      43.803   4.330  12.806  0.00  0.00    +0.000 A 
ATOM     28  O   UNL     1      43.833   3.242  13.371  0.00  0.00    +0.000 OA
ATOM     29  C   UNL     1      44.895   5.288  12.819  0.00  0.00    +0.000 A 
ATOM     30  H   UNL     1      41.929   4.084  12.053  0.00  0.00    +0.000 HD
ENDBRANCH  17  20
ENDBRANCH   1  16
TORSDOF 5
ENDMDL
MODEL 6
REMARK VINA RESULT:    -6.850      2.315      3.853
REMARK INTER + INTRA:          -9.472
REMARK INTER:                  -8.610
REMARK INTRA:                  -0.862
REMARK UNBOUND:                -0.619
REMARK  Name = 
REMARK  6 active torsions:
REMARK  status: ('A' for Active; 'I' for Inactive)
REMARK    1  A    between atoms: C_1  and  C_2
REMARK    2  A    between atoms: C_5  and  O_6
REMARK    3  A    between atoms: O_6  and  C_7
REMARK    4  A    between atoms: C_10  and  C_11
REMARK    5  A    between atoms: C_11  and  N_12
REMARK    6  A    between atoms: C_13  and  C_15
REMARK                            x       y       z     vdW  Elec       q    Type
REMARK                         _______ _______ _______ _____ _____    ______ ____
ROOT
ATOM      1  C   UNL     1      46.886   4.871  14.942  0.00  0.00    +0.000 C 
ENDROOT
BRANCH   1   5
ATOM      2  C   UNL     1      44.986   4.058  11.153  0.00  0.00    +0.000 A 
ATOM      3  C   UNL     1      45.200   5.376  11.562  0.00  0.00    +0.000 A 
ATOM      4  C   UNL     1      45.819   5.640  12.787  0.00  0.00    +0.000 A 
ATOM      5  C   UNL     1      46.187   4.590  13.639  0.00  0.00    +0.000 A 
ATOM      6  C   UNL     1      45.872   3.276  13.269  0.00  0.00    +0.000 A 
ATOM      7  C   UNL     1      45.282   3.012  12.030  0.00  0.00    +0.000 A 
BRANCH   2   8
ATOM      8  O   UNL     1      44.435   3.698   9.945  0.00  0.00    +0.000 OA
BRANCH   8  13
ATOM      9  C   UNL     1      47.728   1.871   5.771  0.00  0.00    +0.000 C 
ATOM     10  C   UNL     1      46.861   2.424   6.861  0.00  0.00    +0.000 A 
ATOM     11  C   UNL     1      46.581   3.786   6.926  0.00  0.00    +0.000 A 
ATOM     12  C   UNL     1      45.785   4.264   7.968  0.00  0.00    +0.000 A 
ATOM     13  C   UNL     1      45.247   3.369   8.889  0.00  0.00    +0.000 A 
ATOM     14  C   UNL     1      45.609   2.035   8.767  0.00  0.00    +0.000 A 
ATOM     15  N   UNL     1      46.398   1.544   7.779  0.00  0.00    +0.000 NA
ENDBRANCH   8  13
ENDBRANCH   2   8
ENDBRANCH   1   5
BRANCH   1  16
ATOM     16  N   UNL     1      47.903   5.877  14.795  0.00  0.00    +0.000 N 
ATOM     17  C   UNL     1      48.622   6.300  15.883  0.00  0.00    +0.000 C 
ATOM     18  O   UNL     1      48.467   5.799  16.994  0.00  0.00    +0.000 OA
ATOM     19  H   UNL     1      47.891   6.437  13.947  0.00  0.00    +0.000 HD
BRANCH  17  20
ATOM     20  C   UNL     1      49.629   7.343  15.652  0.00  0.00    +0.000 A 
ATOM     21  C   UNL     1      50.937   7.129  16.067  0.00  0.00    +0.000 A 
ATOM     22  S   UNL     1      51.991   8.416  15.701  0.00  0.00    +0.000 S 
ATOM     23  C   UNL     1      50.728   9.329  15.022  0.00  0.00    +0.000 A 
ATOM     24  N   UNL     1      50.954  10.576  14.531  0.00  0.00    +0.000 NA
ATOM     25  C   UNL     1      49.904  11.167  14.070  0.00  0.00    +0.000 A 
ATOM     26  N   UNL     1      48.648  10.621  14.048  0.00  0.00    +0.000 N 
ATOM     27  C   UNL     1      48.375   9.351  14.502  0.00  0.00    +0.000 A 
ATOM     28  O   UNL     1      47.249   8.872  14.422  0.00  0.00    +0.000 OA
ATOM     29  C   UNL     1      49.524   8.649  15.049  0.00  0.00    +0.000 A 
ATOM     30  H   UNL     1      47.868  11.133  13.664  0.00  0.00    +0.000 HD
ENDBRANCH  17  20
ENDBRANCH   1  16
TORSDOF 5
ENDMDL
MODEL 7
REMARK VINA RESULT:    -6.841      3.368      8.150
REMARK INTER + INTRA:          -9.460
REMARK INTER:                  -8.644
REMARK INTRA:                  -0.817
REMARK UNBOUND:                -0.619
REMARK  Name = 
REMARK  6 active torsions:
REMARK  status: ('A' for Active; 'I' for Inactive)
REMARK    1  A    between atoms: C_1  and  C_2
REMARK    2  A    between atoms: C_5  and  O_6
REMARK    3  A    between atoms: O_6  and  C_7
REMARK    4  A    between atoms: C_10  and  C_11
REMARK    5  A    between atoms: C_11  and  N_12
REMARK    6  A    between atoms: C_13  and  C_15
REMARK                            x       y       z     vdW  Elec       q    Type
REMARK                         _______ _______ _______ _____ _____    ______ ____
ROOT
ATOM      1  C   UNL     1      48.326   7.856  12.394  0.00  0.00    +0.000 C 
ENDROOT
BRANCH   1   5
ATOM      2  C   UNL     1      50.069   6.687  16.164  0.00  0.00    +0.000 A 
ATOM      3  C   UNL     1      50.814   7.432  15.249  0.00  0.00    +0.000 A 
ATOM      4  C   UNL     1      50.249   7.815  14.029  0.00  0.00    +0.000 A 
ATOM      5  C   UNL     1      48.950   7.415  13.691  0.00  0.00    +0.000 A 
ATOM      6  C   UNL     1      48.249   6.577  14.569  0.00  0.00    +0.000 A 
ATOM      7  C   UNL     1      48.802   6.223  15.801  0.00  0.00    +0.000 A 
BRANCH   2   8
ATOM      8  O   UNL     1      50.518   6.309  17.409  0.00  0.00    +0.000 OA
BRANCH   8  13
ATOM      9  C   UNL     1      53.575   1.645  18.127  0.00  0.00    +0.000 C 
ATOM     10  C   UNL     1      52.703   2.848  17.926  0.00  0.00    +0.000 A 
ATOM     11  C   UNL     1      51.328   2.710  17.755  0.00  0.00    +0.000 A 
ATOM     12  C   UNL     1      50.554   3.853  17.551  0.00  0.00    +0.000 A 
ATOM     13  C   UNL     1      51.159   5.107  17.574  0.00  0.00    +0.000 A 
ATOM     14  C   UNL     1      52.539   5.146  17.714  0.00  0.00    +0.000 A 
ATOM     15  N   UNL     1      53.321   4.051  17.892  0.00  0.00    +0.000 NA
ENDBRANCH   8  13
ENDBRANCH   2   8
ENDBRANCH   1   5
BRANCH   1  16
ATOM     16  N   UNL     1      47.632   6.778  11.743  0.00  0.00    +0.000 N 
ATOM     17  C   UNL     1      46.284   6.865  11.504  0.00  0.00    +0.000 C 
ATOM     18  O   UNL     1      45.644   7.877  11.779  0.00  0.00    +0.000 OA
ATOM     19  H   UNL     1      48.095   5.874  11.707  0.00  0.00    +0.000 HD
BRANCH  17  20
ATOM     20  C   UNL     1      45.647   5.714  10.852  0.00  0.00    +0.000 A 
ATOM     21  C   UNL     1      45.772   5.558   9.477  0.00  0.00    +0.000 A 
ATOM     22  S   UNL     1      45.006   4.161   8.875  0.00  0.00    +0.000 S 
ATOM     23  C   UNL     1      44.435   3.741  10.420  0.00  0.00    +0.000 A 
ATOM     24  N   UNL     1      43.666   2.635  10.604  0.00  0.00    +0.000 NA
ATOM     25  C   UNL     1      43.279   2.451  11.819  0.00  0.00    +0.000 A 
ATOM     26  N   UNL     1      43.598   3.267  12.873  0.00  0.00    +0.000 N 
ATOM     27  C   UNL     1      44.399   4.378  12.744  0.00  0.00    +0.000 A 
ATOM     28  O   UNL     1      44.707   5.059  13.715  0.00  0.00    +0.000 OA
ATOM     29  C   UNL     1      44.847   4.641  11.387  0.00  0.00    +0.000 A 
ATOM     30  H   UNL     1      43.270   3.060  13.805  0.00  0.00    +0.000 HD
ENDBRANCH  17  20
ENDBRANCH   1  16
TORSDOF 5
ENDMDL
MODEL 8
REMARK VINA RESULT:    -6.761      3.670      8.555
REMARK INTER + INTRA:          -9.357
REMARK INTER:                  -8.424
REMARK INTRA:                  -0.933
REMARK UNBOUND:                -0.619
REMARK  Name = 
REMARK  6 active torsions:
REMARK  status: ('A' for Active; 'I' for Inactive)
REMARK    1  A    between atoms: C_1  and  C_2
REMARK    2  A    between atoms: C_5  and  O_6
REMARK    3  A    between atoms: O_6  and  C_7
REMARK    4  A    between atoms: C_10  and  C_11
REMARK    5  A    between atoms: C_11  and  N_12
REMARK    6  A    between atoms: C_13  and  C_15
REMARK                            x       y       z     vdW  Elec       q    Type
REMARK                         _______ _______ _______ _____ _____    ______ ____
ROOT
ATOM      1  C   UNL     1      48.646   7.760  14.964  0.00  0.00    +0.000 C 
ENDROOT
BRANCH   1   5
ATOM      2  C   UNL     1      50.936   5.446  17.796  0.00  0.00    +0.000 A 
ATOM      3  C   UNL     1      51.584   6.154  16.782  0.00  0.00    +0.000 A 
ATOM      4  C   UNL     1      50.844   6.907  15.867  0.00  0.00    +0.000 A 
ATOM      5  C   UNL     1      49.444   6.921  15.925  0.00  0.00    +0.000 A 
ATOM      6  C   UNL     1      48.798   6.123  16.879  0.00  0.00    +0.000 A 
ATOM      7  C   UNL     1      49.541   5.397  17.813  0.00  0.00    +0.000 A 
BRANCH   2   8
ATOM      8  O   UNL     1      51.580   4.722  18.773  0.00  0.00    +0.000 OA
BRANCH   8  13
ATOM      9  C   UNL     1      53.854  -0.356  17.961  0.00  0.00    +0.000 C 
ATOM     10  C   UNL     1      53.197   0.980  18.132  0.00  0.00    +0.000 A 
ATOM     11  C   UNL     1      51.985   1.263  17.507  0.00  0.00    +0.000 A 
ATOM     12  C   UNL     1      51.415   2.526  17.675  0.00  0.00    +0.000 A 
ATOM     13  C   UNL     1      52.038   3.457  18.502  0.00  0.00    +0.000 A 
ATOM     14  C   UNL     1      53.260   3.101  19.055  0.00  0.00    +0.000 A 
ATOM     15  N   UNL     1      53.850   1.890  18.892  0.00  0.00    +0.000 NA
ENDBRANCH   8  13
ENDBRANCH   2   8
ENDBRANCH   1   5
BRANCH   1  16
ATOM     16  N   UNL     1      47.507   7.045  14.452  0.00  0.00    +0.000 N 
ATOM     17  C   UNL     1      47.649   6.175  13.401  0.00  0.00    +0.000 C 
ATOM     18  O   UNL     1      48.748   5.933  12.908  0.00  0.00    +0.000 OA
ATOM     19  H   UNL     1      46.585   7.390  14.703  0.00  0.00    +0.000 HD
BRANCH  17  20
ATOM     20  C   UNL     1      46.435   5.500  12.927  0.00  0.00    +0.000 A 
ATOM     21  C   UNL     1      46.338   4.118  13.039  0.00  0.00    +0.000 A 
ATOM     22  S   UNL     1      44.860   3.488  12.474  0.00  0.00    +0.000 S 
ATOM     23  C   UNL     1      44.316   5.031  12.011  0.00  0.00    +0.000 A 
ATOM     24  N   UNL     1      43.103   5.196  11.420  0.00  0.00    +0.000 NA
ATOM     25  C   UNL     1      42.828   6.413  11.096  0.00  0.00    +0.000 A 
ATOM     26  N   UNL     1      43.653   7.485  11.316  0.00  0.00    +0.000 N 
ATOM     27  C   UNL     1      44.874   7.374  11.940  0.00  0.00    +0.000 A 
ATOM     28  O   UNL     1      45.567   8.360  12.167  0.00  0.00    +0.000 OA
ATOM     29  C   UNL     1      45.239   6.017  12.309  0.00  0.00    +0.000 A 
ATOM     30  H   UNL     1      43.373   8.416  11.046  0.00  0.00    +0.000 HD
ENDBRANCH  17  20
ENDBRANCH   1  16
TORSDOF 5
ENDMDL
MODEL 9
REMARK VINA RESULT:    -6.419      3.866      9.826
REMARK INTER + INTRA:          -8.915
REMARK INTER:                  -8.073
REMARK INTRA:                  -0.841
REMARK UNBOUND:                -0.619
REMARK  Name = 
REMARK  6 active torsions:
REMARK  status: ('A' for Active; 'I' for Inactive)
REMARK    1  A    between atoms: C_1  and  C_2
REMARK    2  A    between atoms: C_5  and  O_6
REMARK    3  A    between atoms: O_6  and  C_7
REMARK    4  A    between atoms: C_10  and  C_11
REMARK    5  A    between atoms: C_11  and  N_12
REMARK    6  A    between atoms: C_13  and  C_15
REMARK                            x       y       z     vdW  Elec       q    Type
REMARK                         _______ _______ _______ _____ _____    ______ ____
ROOT
ATOM      1  C   UNL     1      47.534   3.740  16.547  0.00  0.00    +0.000 C 
ENDROOT
BRANCH   1   5
ATOM      2  C   UNL     1      49.390   5.814  19.844  0.00  0.00    +0.000 A 
ATOM      3  C   UNL     1      49.131   4.445  19.934  0.00  0.00    +0.000 A 
ATOM      4  C   UNL     1      48.535   3.772  18.865  0.00  0.00    +0.000 A 
ATOM      5  C   UNL     1      48.144   4.469  17.714  0.00  0.00    +0.000 A 
ATOM      6  C   UNL     1      48.310   5.860  17.676  0.00  0.00    +0.000 A 
ATOM      7  C   UNL     1      48.936   6.526  18.732  0.00  0.00    +0.000 A 
BRANCH   2   8
ATOM      8  O   UNL     1      50.020   6.552  20.819  0.00  0.00    +0.000 OA
BRANCH   8  13
ATOM      9  C   UNL     1      54.952   9.130  20.015  0.00  0.00    +0.000 C 
ATOM     10  C   UNL     1      53.667   8.383  20.206  0.00  0.00    +0.000 A 
ATOM     11  C   UNL     1      53.598   7.012  19.974  0.00  0.00    +0.000 A 
ATOM     12  C   UNL     1      52.378   6.357  20.144  0.00  0.00    +0.000 A 
ATOM     13  C   UNL     1      51.270   7.072  20.590  0.00  0.00    +0.000 A 
ATOM     14  C   UNL     1      51.421   8.441  20.761  0.00  0.00    +0.000 A 
ATOM     15  N   UNL     1      52.588   9.109  20.582  0.00  0.00    +0.000 NA
ENDBRANCH   8  13
ENDBRANCH   2   8
ENDBRANCH   1   5
BRANCH   1  16
ATOM     16  N   UNL     1      46.895   4.644  15.629  0.00  0.00    +0.000 N 
ATOM     17  C   UNL     1      46.805   4.332  14.296  0.00  0.00    +0.000 C 
ATOM     18  O   UNL     1      47.208   3.258  13.857  0.00  0.00    +0.000 OA
ATOM     19  H   UNL     1      46.755   5.604  15.935  0.00  0.00    +0.000 HD
BRANCH  17  20
ATOM     20  C   UNL     1      46.154   5.316  13.424  0.00  0.00    +0.000 A 
ATOM     21  C   UNL     1      46.810   6.507  13.136  0.00  0.00    +0.000 A 
ATOM     22  S   UNL     1      45.941   7.530  12.088  0.00  0.00    +0.000 S 
ATOM     23  C   UNL     1      44.634   6.444  12.021  0.00  0.00    +0.000 A 
ATOM     24  N   UNL     1      43.521   6.735  11.298  0.00  0.00    +0.000 NA
ATOM     25  C   UNL     1      42.597   5.838  11.357  0.00  0.00    +0.000 A 
ATOM     26  N   UNL     1      42.687   4.669  12.068  0.00  0.00    +0.000 N 
ATOM     27  C   UNL     1      43.806   4.315  12.786  0.00  0.00    +0.000 A 
ATOM     28  O   UNL     1      43.875   3.240  13.371  0.00  0.00    +0.000 OA
ATOM     29  C   UNL     1      44.870   5.303  12.767  0.00  0.00    +0.000 A 
ATOM     30  H   UNL     1      41.930   4.002  12.064  0.00  0.00    +0.000 HD
ENDBRANCH  17  20
ENDBRANCH   1  16
TORSDOF 5
ENDMDL
