MODEL 1
REMARK VINA RESULT:    -7.897      0.000      0.000
REMARK INTER + INTRA:         -12.442
REMARK INTER:                 -11.590
REMARK INTRA:                  -0.851
REMARK UNBOUND:                -0.851
REMARK  Name = 
REMARK  9 active torsions:
REMARK  status: ('A' for Active; 'I' for Inactive)
REMARK    1  A    between atoms: C_1  and  C_2
REMARK    2  A    between atoms: C_2  and  N_3
REMARK    3  A    between atoms: C_2  and  C_19
REMARK    4  A    between atoms: N_3  and  C_4
REMARK    5  A    between atoms: C_4  and  C_5
REMARK    6  A    between atoms: C_8  and  C_9
REMARK    7  A    between atoms: C_9  and  N_10
REMARK    8  A    between atoms: N_10  and  C_11
REMARK    9  A    between atoms: C_11  and  C_12
REMARK                            x       y       z     vdW  Elec       q    Type
REMARK                         _______ _______ _______ _____ _____    ______ ____
ROOT
ATOM      1  C   UNL     1      47.924   5.809  14.335  0.00  0.00    +0.000 C 
ENDROOT
BRANCH   1   2
ATOM      2  C   UNL     1      46.798   5.595  13.354  0.00  0.00    +0.000 A 
ATOM      3  C   UNL     1      46.754   6.272  12.130  0.00  0.00    +0.000 A 
ATOM      4  C   UNL     1      45.698   6.052  11.248  0.00  0.00    +0.000 A 
ATOM      5  C   UNL     1      44.696   5.154  11.605  0.00  0.00    +0.000 A 
ATOM      6  N   UNL     1      44.705   4.492  12.789  0.00  0.00    +0.000 NA
ATOM      7  C   UNL     1      45.745   4.727  13.626  0.00  0.00    +0.000 A 
BRANCH   5   8
ATOM      8  C   UNL     1      43.521   4.905  10.678  0.00  0.00    +0.000 C 
BRANCH   8   9
ATOM      9  N   UNL     1      43.903   4.590   9.293  0.00  0.00    +0.000 NA
ATOM     10  H   UNL     1      44.660   5.235   9.044  0.00  0.00    +0.000 HD
BRANCH   9  11
ATOM     11  C   UNL     1      44.447   3.230   9.180  0.00  0.00    +0.000 C 
BRANCH  11  12
ATOM     12  C   UNL     1      45.641   3.252   8.272  0.00  0.00    +0.000 A 
ATOM     13  C   UNL     1      46.395   2.150   7.798  0.00  0.00    +0.000 A 
ATOM     14  C   UNL     1      47.374   2.695   7.007  0.00  0.00    +0.000 A 
ATOM     15  N   UNL     1      47.168   4.044   7.042  0.00  0.00    +0.000 N 
ATOM     16  N   UNL     1      46.134   4.414   7.808  0.00  0.00    +0.000 NA
ATOM     17  H   UNL     1      47.697   4.770   6.569  0.00  0.00    +0.000 HD
ENDBRANCH  11  12
ENDBRANCH   9  11
ENDBRANCH   8   9
ENDBRANCH   5   8
ENDBRANCH   1   2
BRANCH   1  18
ATOM     18  N   UNL     1      47.506   5.510  15.703  0.00  0.00    +0.000 NA
ATOM     19  H   UNL     1      47.820   6.262  16.316  0.00  0.00    +0.000 HD
BRANCH  18  21
ATOM     20  C   UNL     1      46.952   3.421  16.966  0.00  0.00    +0.000 C 
ATOM     21  C   UNL     1      48.027   4.244  16.245  0.00  0.00    +0.000 C 
BRANCH  21  22
ATOM     22  C   UNL     1      49.138   4.639  17.206  0.00  0.00    +0.000 A 
ATOM     23  C   UNL     1      49.194   5.876  17.833  0.00  0.00    +0.000 A 
ATOM     24  S   UNL     1      50.587   6.102  18.787  0.00  0.00    +0.000 S 
ATOM     25  C   UNL     1      51.168   4.551  18.399  0.00  0.00    +0.000 A 
ATOM     26  N   UNL     1      52.371   4.123  18.867  0.00  0.00    +0.000 NA
ATOM     27  C   UNL     1      52.689   2.927  18.494  0.00  0.00    +0.000 A 
ATOM     28  N   UNL     1      51.905   2.114  17.715  0.00  0.00    +0.000 N 
ATOM     29  C   UNL     1      50.659   2.492  17.249  0.00  0.00    +0.000 A 
ATOM     30  O   UNL     1      49.950   1.712  16.622  0.00  0.00    +0.000 OA
ATOM     31  C   UNL     1      50.287   3.854  17.592  0.00  0.00    +0.000 A 
ATOM     32  H   UNL     1      52.200   1.176  17.493  0.00  0.00    +0.000 HD
ENDBRANCH  21  22
ENDBRANCH  18  21
ENDBRANCH   1  18
TORSDOF 8
ENDMDL
MODEL 2
REMARK VINA RESULT:    -7.828      1.304      1.516
REMARK INTER + INTRA:         -12.340
REMARK INTER:                 -11.495
REMARK INTRA:                  -0.845
REMARK UNBOUND:                -0.851
REMARK  Name = 
REMARK  9 active torsions:
REMARK  status: ('A' for Active; 'I' for Inactive)
REMARK    1  A    between atoms: C_1  and  C_2
REMARK    2  A    between atoms: C_2  and  N_3
REMARK    3  A    between atoms: C_2  and  C_19
REMARK    4  A    between atoms: N_3  and  C_4
REMARK    5  A    between atoms: C_4  and  C_5
REMARK    6  A    between atoms: C_8  and  C_9
REMARK    7  A    between atoms: C_9  and  N_10
REMARK    8  A    between atoms: N_10  and  C_11
REMARK    9  A    between atoms: C_11  and  C_12
REMARK                            x       y       z     vdW  Elec       q    Type
REMARK                         _______ _______ _______ _____ _____    ______ ____
ROOT
ATOM      1  C   UNL     1      48.011   6.205  14.680  0.00  0.00    +0.000 C 
ENDROOT
BRANCH   1   2
ATOM      2  C   UNL     1      47.063   5.551  13.706  0.00  0.00    +0.000 A 
ATOM      3  C   UNL     1      46.538   6.249  12.613  0.00  0.00    +0.000 A 
ATOM      4  C   UNL     1      45.663   5.614  11.734  0.00  0.00    +0.000 A 
ATOM      5  C   UNL     1      45.324   4.284  11.962  0.00  0.00    +0.000 A 
ATOM      6  N   UNL     1      45.807   3.584  13.019  0.00  0.00    +0.000 NA
ATOM      7  C   UNL     1      46.655   4.228  13.856  0.00  0.00    +0.000 A 
BRANCH   5   8
ATOM      8  C   UNL     1      44.359   3.567  11.037  0.00  0.00    +0.000 C 
BRANCH   8   9
ATOM      9  N   UNL     1      44.971   2.486  10.249  0.00  0.00    +0.000 NA
ATOM     10  H   UNL     1      44.571   1.608  10.597  0.00  0.00    +0.000 HD
BRANCH   9  11
ATOM     11  C   UNL     1      44.611   2.585   8.828  0.00  0.00    +0.000 C 
BRANCH  11  12
ATOM     12  C   UNL     1      45.864   2.716   8.012  0.00  0.00    +0.000 A 
ATOM     13  C   UNL     1      46.760   1.690   7.624  0.00  0.00    +0.000 A 
ATOM     14  C   UNL     1      47.738   2.321   6.896  0.00  0.00    +0.000 A 
ATOM     15  N   UNL     1      47.393   3.641   6.885  0.00  0.00    +0.000 N 
ATOM     16  N   UNL     1      46.270   3.915   7.560  0.00  0.00    +0.000 NA
ATOM     17  H   UNL     1      47.881   4.411   6.435  0.00  0.00    +0.000 HD
ENDBRANCH  11  12
ENDBRANCH   9  11
ENDBRANCH   8   9
ENDBRANCH   5   8
ENDBRANCH   1   2
BRANCH   1  18
ATOM     18  N   UNL     1      48.599   5.227  15.593  0.00  0.00    +0.000 NA
ATOM     19  H   UNL     1      48.019   4.389  15.598  0.00  0.00    +0.000 HD
BRANCH  18  21
ATOM     20  C   UNL     1      48.721   7.215  17.109  0.00  0.00    +0.000 C 
ATOM     21  C   UNL     1      48.733   5.686  16.986  0.00  0.00    +0.000 C 
BRANCH  21  22
ATOM     22  C   UNL     1      50.054   5.116  17.478  0.00  0.00    +0.000 A 
ATOM     23  C   UNL     1      51.074   5.903  17.994  0.00  0.00    +0.000 A 
ATOM     24  S   UNL     1      52.484   5.032  18.388  0.00  0.00    +0.000 S 
ATOM     25  C   UNL     1      51.782   3.566  17.885  0.00  0.00    +0.000 A 
ATOM     26  N   UNL     1      52.494   2.408  17.917  0.00  0.00    +0.000 NA
ATOM     27  C   UNL     1      51.839   1.372  17.507  0.00  0.00    +0.000 A 
ATOM     28  N   UNL     1      50.533   1.387  17.087  0.00  0.00    +0.000 N 
ATOM     29  C   UNL     1      49.759   2.532  17.073  0.00  0.00    +0.000 A 
ATOM     30  O   UNL     1      48.572   2.495  16.768  0.00  0.00    +0.000 OA
ATOM     31  C   UNL     1      50.474   3.734  17.468  0.00  0.00    +0.000 A 
ATOM     32  H   UNL     1      50.072   0.532  16.814  0.00  0.00    +0.000 HD
ENDBRANCH  21  22
ENDBRANCH  18  21
ENDBRANCH   1  18
TORSDOF 8
ENDMDL
MODEL 3
REMARK VINA RESULT:    -7.307      2.375      2.835
REMARK INTER + INTRA:         -11.575
REMARK INTER:                 -10.679
REMARK INTRA:                  -0.896
REMARK UNBOUND:                -0.851
REMARK  Name = 
REMARK  9 active torsions:
REMARK  status: ('A' for Active; 'I' for Inactive)
REMARK    1  A    between atoms: C_1  and  C_2
REMARK    2  A    between atoms: C_2  and  N_3
REMARK    3  A    between atoms: C_2  and  C_19
REMARK    4  A    between atoms: N_3  and  C_4
REMARK    5  A    between atoms: C_4  and  C_5
REMARK    6  A    between atoms: C_8  and  C_9
REMARK    7  A    between atoms: C_9  and  N_10
REMARK    8  A    between atoms: N_10  and  C_11
REMARK    9  A    between atoms: C_11  and  C_12
REMARK                            x       y       z     vdW  Elec       q    Type
REMARK                         _______ _______ _______ _____ _____    ______ ____
ROOT
ATOM      1  C   UNL     1      47.513   5.376  14.369  0.00  0.00    +0.000 C 
ENDROOT
BRANCH   1   2
ATOM      2  C   UNL     1      46.509   5.143  13.267  0.00  0.00    +0.000 A 
ATOM      3  C   UNL     1      45.634   4.052  13.291  0.00  0.00    +0.000 A 
ATOM      4  C   UNL     1      44.720   3.866  12.255  0.00  0.00    +0.000 A 
ATOM      5  C   UNL     1      44.696   4.778  11.205  0.00  0.00    +0.000 A 
ATOM      6  N   UNL     1      45.540   5.839  11.147  0.00  0.00    +0.000 NA
ATOM      7  C   UNL     1      46.417   5.993  12.168  0.00  0.00    +0.000 A 
BRANCH   5   8
ATOM      8  C   UNL     1      43.729   4.596  10.050  0.00  0.00    +0.000 C 
BRANCH   8   9
ATOM      9  N   UNL     1      44.379   4.363   8.751  0.00  0.00    +0.000 NA
ATOM     10  H   UNL     1      45.266   4.875   8.772  0.00  0.00    +0.000 HD
BRANCH   9  11
ATOM     11  C   UNL     1      44.709   2.944   8.562  0.00  0.00    +0.000 C 
BRANCH  11  12
ATOM     12  C   UNL     1      46.003   2.837   7.810  0.00  0.00    +0.000 A 
ATOM     13  C   UNL     1      46.791   1.679   7.595  0.00  0.00    +0.000 A 
ATOM     14  C   UNL     1      47.866   2.106   6.857  0.00  0.00    +0.000 A 
ATOM     15  N   UNL     1      47.678   3.445   6.673  0.00  0.00    +0.000 N 
ATOM     16  N   UNL     1      46.565   3.921   7.247  0.00  0.00    +0.000 NA
ATOM     17  H   UNL     1      48.271   4.096   6.167  0.00  0.00    +0.000 HD
ENDBRANCH  11  12
ENDBRANCH   9  11
ENDBRANCH   8   9
ENDBRANCH   5   8
ENDBRANCH   1   2
BRANCH   1  18
ATOM     18  N   UNL     1      47.026   4.872  15.651  0.00  0.00    +0.000 NA
ATOM     19  H   UNL     1      46.509   5.614  16.122  0.00  0.00    +0.000 HD
BRANCH  18  21
ATOM     20  C   UNL     1      47.766   3.037  17.185  0.00  0.00    +0.000 C 
ATOM     21  C   UNL     1      48.078   4.408  16.571  0.00  0.00    +0.000 C 
BRANCH  21  22
ATOM     22  C   UNL     1      48.174   5.474  17.652  0.00  0.00    +0.000 A 
ATOM     23  C   UNL     1      47.357   5.492  18.773  0.00  0.00    +0.000 A 
ATOM     24  S   UNL     1      47.602   6.842  19.783  0.00  0.00    +0.000 S 
ATOM     25  C   UNL     1      48.815   7.453  18.758  0.00  0.00    +0.000 A 
ATOM     26  N   UNL     1      49.422   8.640  19.031  0.00  0.00    +0.000 NA
ATOM     27  C   UNL     1      50.322   8.984  18.170  0.00  0.00    +0.000 A 
ATOM     28  N   UNL     1      50.685   8.241  17.075  0.00  0.00    +0.000 N 
ATOM     29  C   UNL     1      50.124   7.012  16.780  0.00  0.00    +0.000 A 
ATOM     30  O   UNL     1      50.528   6.337  15.839  0.00  0.00    +0.000 OA
ATOM     31  C   UNL     1      49.061   6.613  17.687  0.00  0.00    +0.000 A 
ATOM     32  H   UNL     1      51.424   8.553  16.465  0.00  0.00    +0.000 HD
ENDBRANCH  21  22
ENDBRANCH  18  21
ENDBRANCH   1  18
TORSDOF 8
ENDMDL
MODEL 4
REMARK VINA RESULT:    -7.285      1.812      2.378
REMARK INTER + INTRA:         -11.544
REMARK INTER:                 -10.751
REMARK INTRA:                  -0.793
REMARK UNBOUND:                -0.851
REMARK  Name = 
REMARK  9 active torsions:
REMARK  status: ('A' for Active; 'I' for Inactive)
REMARK    1  A    between atoms: C_1  and  C_2
REMARK    2  A    between atoms: C_2  and  N_3
REMARK    3  A    between atoms: C_2  and  C_19
REMARK    4  A    between atoms: N_3  and  C_4
REMARK    5  A    between atoms: C_4  and  C_5
REMARK    6  A    between atoms: C_8  and  C_9
REMARK    7  A    between atoms: C_9  and  N_10
REMARK    8  A    between atoms: N_10  and  C_11
REMARK    9  A    between atoms: C_11  and  C_12
REMARK                            x       y       z     vdW  Elec       q    Type
REMARK                         _______ _______ _______ _____ _____    ______ ____
ROOT
ATOM      1  C   UNL     1      48.431   6.539  13.670  0.00  0.00    +0.000 C 
ENDROOT
BRANCH   1   2
ATOM      2  C   UNL     1      47.214   6.098  12.894  0.00  0.00    +0.000 A 
ATOM      3  C   UNL     1      46.902   6.648  11.646  0.00  0.00    +0.000 A 
ATOM      4  C   UNL     1      45.769   6.219  10.957  0.00  0.00    +0.000 A 
ATOM      5  C   UNL     1      44.961   5.241  11.530  0.00  0.00    +0.000 A 
ATOM      6  N   UNL     1      45.231   4.696  12.743  0.00  0.00    +0.000 NA
ATOM      7  C   UNL     1      46.339   5.135  13.389  0.00  0.00    +0.000 A 
BRANCH   5   8
ATOM      8  C   UNL     1      43.710   4.764  10.818  0.00  0.00    +0.000 C 
BRANCH   8   9
ATOM      9  N   UNL     1      43.922   4.393   9.410  0.00  0.00    +0.000 NA
ATOM     10  H   UNL     1      44.604   5.058   9.032  0.00  0.00    +0.000 HD
BRANCH   9  11
ATOM     11  C   UNL     1      44.519   3.056   9.290  0.00  0.00    +0.000 C 
BRANCH  11  12
ATOM     12  C   UNL     1      45.671   3.117   8.330  0.00  0.00    +0.000 A 
ATOM     13  C   UNL     1      46.445   2.040   7.831  0.00  0.00    +0.000 A 
ATOM     14  C   UNL     1      47.368   2.616   6.995  0.00  0.00    +0.000 A 
ATOM     15  N   UNL     1      47.112   3.956   7.032  0.00  0.00    +0.000 N 
ATOM     16  N   UNL     1      46.099   4.293   7.839  0.00  0.00    +0.000 NA
ATOM     17  H   UNL     1      47.592   4.699   6.531  0.00  0.00    +0.000 HD
ENDBRANCH  11  12
ENDBRANCH   9  11
ENDBRANCH   8   9
ENDBRANCH   5   8
ENDBRANCH   1   2
BRANCH   1  18
ATOM     18  N   UNL     1      48.180   6.528  15.110  0.00  0.00    +0.000 NA
ATOM     19  H   UNL     1      47.213   6.802  15.278  0.00  0.00    +0.000 HD
BRANCH  18  21
ATOM     20  C   UNL     1      50.534   7.110  15.730  0.00  0.00    +0.000 C 
ATOM     21  C   UNL     1      49.042   7.429  15.893  0.00  0.00    +0.000 C 
BRANCH  21  22
ATOM     22  C   UNL     1      48.608   7.252  17.340  0.00  0.00    +0.000 A 
ATOM     23  C   UNL     1      48.118   8.292  18.116  0.00  0.00    +0.000 A 
ATOM     24  S   UNL     1      47.791   7.853  19.730  0.00  0.00    +0.000 S 
ATOM     25  C   UNL     1      48.292   6.251  19.449  0.00  0.00    +0.000 A 
ATOM     26  N   UNL     1      48.305   5.340  20.460  0.00  0.00    +0.000 NA
ATOM     27  C   UNL     1      48.708   4.164  20.107  0.00  0.00    +0.000 A 
ATOM     28  N   UNL     1      49.079   3.812  18.835  0.00  0.00    +0.000 N 
ATOM     29  C   UNL     1      49.045   4.692  17.769  0.00  0.00    +0.000 A 
ATOM     30  O   UNL     1      49.307   4.323  16.629  0.00  0.00    +0.000 OA
ATOM     31  C   UNL     1      48.657   6.045  18.131  0.00  0.00    +0.000 A 
ATOM     32  H   UNL     1      49.348   2.864  18.623  0.00  0.00    +0.000 HD
ENDBRANCH  21  22
ENDBRANCH  18  21
ENDBRANCH   1  18
TORSDOF 8
ENDMDL
MODEL 5
REMARK VINA RESULT:    -7.197      2.153      2.769
REMARK INTER + INTRA:         -11.414
REMARK INTER:                 -10.722
REMARK INTRA:                  -0.692
REMARK UNBOUND:                -0.851
REMARK  Name = 
REMARK  9 active torsions:
REMARK  status: ('A' for Active; 'I' for Inactive)
REMARK    1  A    between atoms: C_1  and  C_2
REMARK    2  A    between atoms: C_2  and  N_3
REMARK    3  A    between atoms: C_2  and  C_19
REMARK    4  A    between atoms: N_3  and  C_4
REMARK    5  A    between atoms: C_4  and  C_5
REMARK    6  A    between atoms: C_8  and  C_9
REMARK    7  A    between atoms: C_9  and  N_10
REMARK    8  A    between atoms: N_10  and  C_11
REMARK    9  A    between atoms: C_11  and  C_12
REMARK                            x       y       z     vdW  Elec       q    Type
REMARK                         _______ _______ _______ _____ _____    ______ ____
ROOT
ATOM      1  C   UNL     1      47.674   5.503  14.713  0.00  0.00    +0.000 C 
ENDROOT
BRANCH   1   2
ATOM      2  C   UNL     1      46.731   5.072  13.618  0.00  0.00    +0.000 A 
ATOM      3  C   UNL     1      46.327   5.953  12.609  0.00  0.00    +0.000 A 
ATOM      4  C   UNL     1      45.452   5.521  11.614  0.00  0.00    +0.000 A 
ATOM      5  C   UNL     1      44.991   4.208  11.643  0.00  0.00    +0.000 A 
ATOM      6  N   UNL     1      45.355   3.334  12.615  0.00  0.00    +0.000 NA
ATOM      7  C   UNL     1      46.206   3.783  13.569  0.00  0.00    +0.000 A 
BRANCH   5   8
ATOM      8  C   UNL     1      44.023   3.710  10.588  0.00  0.00    +0.000 C 
BRANCH   8   9
ATOM      9  N   UNL     1      44.628   3.510   9.262  0.00  0.00    +0.000 NA
ATOM     10  H   UNL     1      45.501   4.047   9.255  0.00  0.00    +0.000 HD
BRANCH   9  11
ATOM     11  C   UNL     1      44.989   2.103   9.041  0.00  0.00    +0.000 C 
BRANCH  11  12
ATOM     12  C   UNL     1      46.162   2.038   8.107  0.00  0.00    +0.000 A 
ATOM     13  C   UNL     1      46.718   3.087   7.335  0.00  0.00    +0.000 A 
ATOM     14  C   UNL     1      47.765   2.519   6.654  0.00  0.00    +0.000 A 
ATOM     15  N   UNL     1      47.785   1.209   7.038  0.00  0.00    +0.000 N 
ATOM     16  N   UNL     1      46.821   0.884   7.908  0.00  0.00    +0.000 NA
ATOM     17  H   UNL     1      48.430   0.481   6.743  0.00  0.00    +0.000 HD
ENDBRANCH  11  12
ENDBRANCH   9  11
ENDBRANCH   8   9
ENDBRANCH   5   8
ENDBRANCH   1   2
BRANCH   1  18
ATOM     18  N   UNL     1      47.267   4.971  16.012  0.00  0.00    +0.000 NA
ATOM     19  H   UNL     1      47.158   5.745  16.666  0.00  0.00    +0.000 HD
BRANCH  18  21
ATOM     20  C   UNL     1      47.504   2.896  17.392  0.00  0.00    +0.000 C 
ATOM     21  C   UNL     1      48.210   4.010  16.608  0.00  0.00    +0.000 C 
BRANCH  21  22
ATOM     22  C   UNL     1      49.104   4.832  17.525  0.00  0.00    +0.000 A 
ATOM     23  C   UNL     1      50.479   4.917  17.365  0.00  0.00    +0.000 A 
ATOM     24  S   UNL     1      51.259   5.825  18.578  0.00  0.00    +0.000 S 
ATOM     25  C   UNL     1      49.782   6.142  19.362  0.00  0.00    +0.000 A 
ATOM     26  N   UNL     1      49.750   6.850  20.523  0.00  0.00    +0.000 NA
ATOM     27  C   UNL     1      48.565   7.015  21.010  0.00  0.00    +0.000 A 
ATOM     28  N   UNL     1      47.409   6.555  20.432  0.00  0.00    +0.000 N 
ATOM     29  C   UNL     1      47.389   5.866  19.233  0.00  0.00    +0.000 A 
ATOM     30  O   UNL     1      46.332   5.540  18.703  0.00  0.00    +0.000 OA
ATOM     31  C   UNL     1      48.707   5.602  18.680  0.00  0.00    +0.000 A 
ATOM     32  H   UNL     1      46.513   6.753  20.848  0.00  0.00    +0.000 HD
ENDBRANCH  21  22
ENDBRANCH  18  21
ENDBRANCH   1  18
TORSDOF 8
ENDMDL
MODEL 6
REMARK VINA RESULT:    -7.078      2.012      2.686
REMARK INTER + INTRA:         -11.240
REMARK INTER:                 -10.306
REMARK INTRA:                  -0.934
REMARK UNBOUND:                -0.851
REMARK  Name = 
REMARK  9 active torsions:
REMARK  status: ('A' for Active; 'I' for Inactive)
REMARK    1  A    between atoms: C_1  and  C_2
REMARK    2  A    between atoms: C_2  and  N_3
REMARK    3  A    between atoms: C_2  and  C_19
REMARK    4  A    between atoms: N_3  and  C_4
REMARK    5  A    between atoms: C_4  and  C_5
REMARK    6  A    between atoms: C_8  and  C_9
REMARK    7  A    between atoms: C_9  and  N_10
REMARK    8  A    between atoms: N_10  and  C_11
REMARK    9  A    between atoms: C_11  and  C_12
REMARK                            x       y       z     vdW  Elec       q    Type
REMARK                         _______ _______ _______ _____ _____    ______ ____
ROOT
ATOM      1  C   UNL     1      49.360   6.842  15.079  0.00  0.00    +0.000 C 
ENDROOT
BRANCH   1   2
ATOM      2  C   UNL     1      48.115   6.843  14.227  0.00  0.00    +0.000 A 
ATOM      3  C   UNL     1      47.600   5.662  13.680  0.00  0.00    +0.000 A 
ATOM      4  C   UNL     1      46.449   5.700  12.895  0.00  0.00    +0.000 A 
ATOM      5  C   UNL     1      45.827   6.924  12.667  0.00  0.00    +0.000 A 
ATOM      6  N   UNL     1      46.308   8.087  13.174  0.00  0.00    +0.000 NA
ATOM      7  C   UNL     1      47.429   8.018  13.932  0.00  0.00    +0.000 A 
BRANCH   5   8
ATOM      8  C   UNL     1      44.584   7.005  11.802  0.00  0.00    +0.000 C 
BRANCH   8   9
ATOM      9  N   UNL     1      43.409   6.326  12.370  0.00  0.00    +0.000 NA
ATOM     10  H   UNL     1      42.786   7.061  12.718  0.00  0.00    +0.000 HD
BRANCH   9  11
ATOM     11  C   UNL     1      42.665   5.587  11.341  0.00  0.00    +0.000 C 
BRANCH  11  12
ATOM     12  C   UNL     1      43.465   4.388  10.922  0.00  0.00    +0.000 A 
ATOM     13  C   UNL     1      44.112   4.165   9.681  0.00  0.00    +0.000 A 
ATOM     14  C   UNL     1      44.700   2.931   9.798  0.00  0.00    +0.000 A 
ATOM     15  N   UNL     1      44.390   2.492  11.052  0.00  0.00    +0.000 N 
ATOM     16  N   UNL     1      43.635   3.346  11.754  0.00  0.00    +0.000 NA
ATOM     17  H   UNL     1      44.660   1.618  11.493  0.00  0.00    +0.000 HD
ENDBRANCH  11  12
ENDBRANCH   9  11
ENDBRANCH   8   9
ENDBRANCH   5   8
ENDBRANCH   1   2
BRANCH   1  18
ATOM     18  N   UNL     1      49.064   6.459  16.458  0.00  0.00    +0.000 NA
ATOM     19  H   UNL     1      49.821   6.780  17.060  0.00  0.00    +0.000 HD
BRANCH  18  21
ATOM     20  C   UNL     1      47.603   4.662  17.409  0.00  0.00    +0.000 C 
ATOM     21  C   UNL     1      48.904   5.011  16.676  0.00  0.00    +0.000 C 
BRANCH  21  22
ATOM     22  C   UNL     1      50.115   4.586  17.493  0.00  0.00    +0.000 A 
ATOM     23  C   UNL     1      50.810   5.453  18.323  0.00  0.00    +0.000 A 
ATOM     24  S   UNL     1      52.181   4.754  19.055  0.00  0.00    +0.000 S 
ATOM     25  C   UNL     1      51.894   3.262  18.290  0.00  0.00    +0.000 A 
ATOM     26  N   UNL     1      52.749   2.218  18.459  0.00  0.00    +0.000 NA
ATOM     27  C   UNL     1      52.410   1.148  17.820  0.00  0.00    +0.000 A 
ATOM     28  N   UNL     1      51.286   1.020  17.044  0.00  0.00    +0.000 N 
ATOM     29  C   UNL     1      50.369   2.041  16.874  0.00  0.00    +0.000 A 
ATOM     30  O   UNL     1      49.333   1.868  16.240  0.00  0.00    +0.000 OA
ATOM     31  C   UNL     1      50.741   3.285  17.525  0.00  0.00    +0.000 A 
ATOM     32  H   UNL     1      51.063   0.141  16.603  0.00  0.00    +0.000 HD
ENDBRANCH  21  22
ENDBRANCH  18  21
ENDBRANCH   1  18
TORSDOF 8
ENDMDL
MODEL 7
REMARK VINA RESULT:    -6.956      4.216      5.638
REMARK INTER + INTRA:         -11.061
REMARK INTER:                 -10.060
REMARK INTRA:                  -1.001
REMARK UNBOUND:                -0.851
REMARK  Name = 
REMARK  9 active torsions:
REMARK  status: ('A' for Active; 'I' for Inactive)
REMARK    1  A    between atoms: C_1  and  C_2
REMARK    2  A    between atoms: C_2  and  N_3
REMARK    3  A    between atoms: C_2  and  C_19
REMARK    4  A    between atoms: N_3  and  C_4
REMARK    5  A    between atoms: C_4  and  C_5
REMARK    6  A    between atoms: C_8  and  C_9
REMARK    7  A    between atoms: C_9  and  N_10
REMARK    8  A    between atoms: N_10  and  C_11
REMARK    9  A    between atoms: C_11  and  C_12
REMARK                            x       y       z     vdW  Elec       q    Type
REMARK                         _______ _______ _______ _____ _____    ______ ____
ROOT
ATOM      1  C   UNL     1      47.889   6.408  13.902  0.00  0.00    +0.000 C 
ENDROOT
BRANCH   1   2
ATOM      2  C   UNL     1      46.825   5.946  12.936  0.00  0.00    +0.000 A 
ATOM      3  C   UNL     1      46.655   6.554  11.688  0.00  0.00    +0.000 A 
ATOM      4  C   UNL     1      45.661   6.103  10.821  0.00  0.00    +0.000 A 
ATOM      5  C   UNL     1      44.847   5.047  11.219  0.00  0.00    +0.000 A 
ATOM      6  N   UNL     1      44.980   4.445  12.427  0.00  0.00    +0.000 NA
ATOM      7  C   UNL     1      45.955   4.906  13.248  0.00  0.00    +0.000 A 
BRANCH   5   8
ATOM      8  C   UNL     1      43.743   4.543  10.310  0.00  0.00    +0.000 C 
BRANCH   8   9
ATOM      9  N   UNL     1      44.160   4.329   8.916  0.00  0.00    +0.000 NA
ATOM     10  H   UNL     1      44.988   4.915   8.765  0.00  0.00    +0.000 HD
BRANCH   9  11
ATOM     11  C   UNL     1      44.575   2.938   8.686  0.00  0.00    +0.000 C 
BRANCH  11  12
ATOM     12  C   UNL     1      45.866   2.931   7.922  0.00  0.00    +0.000 A 
ATOM     13  C   UNL     1      46.684   1.817   7.607  0.00  0.00    +0.000 A 
ATOM     14  C   UNL     1      47.742   2.334   6.903  0.00  0.00    +0.000 A 
ATOM     15  N   UNL     1      47.516   3.678   6.833  0.00  0.00    +0.000 N 
ATOM     16  N   UNL     1      46.395   4.073   7.449  0.00  0.00    +0.000 NA
ATOM     17  H   UNL     1      48.088   4.386   6.381  0.00  0.00    +0.000 HD
ENDBRANCH  11  12
ENDBRANCH   9  11
ENDBRANCH   8   9
ENDBRANCH   5   8
ENDBRANCH   1   2
BRANCH   1  18
ATOM     18  N   UNL     1      49.170   6.614  13.228  0.00  0.00    +0.000 NA
ATOM     19  H   UNL     1      49.719   5.758  13.295  0.00  0.00    +0.000 HD
BRANCH  18  21
ATOM     20  C   UNL     1      49.532   8.144  15.177  0.00  0.00    +0.000 C 
ATOM     21  C   UNL     1      49.985   7.712  13.776  0.00  0.00    +0.000 C 
BRANCH  21  22
ATOM     22  C   UNL     1      49.842   8.858  12.786  0.00  0.00    +0.000 A 
ATOM     23  C   UNL     1      48.666   9.576  12.623  0.00  0.00    +0.000 A 
ATOM     24  S   UNL     1      48.740  10.747  11.387  0.00  0.00    +0.000 S 
ATOM     25  C   UNL     1      50.351  10.337  11.023  0.00  0.00    +0.000 A 
ATOM     26  N   UNL     1      51.010  10.949  10.004  0.00  0.00    +0.000 NA
ATOM     27  C   UNL     1      52.225  10.541   9.838  0.00  0.00    +0.000 A 
ATOM     28  N   UNL     1      52.846   9.593  10.611  0.00  0.00    +0.000 N 
ATOM     29  C   UNL     1      52.228   8.972  11.682  0.00  0.00    +0.000 A 
ATOM     30  O   UNL     1      52.837   8.188  12.402  0.00  0.00    +0.000 OA
ATOM     31  C   UNL     1      50.839   9.355  11.866  0.00  0.00    +0.000 A 
ATOM     32  H   UNL     1      53.810   9.349  10.449  0.00  0.00    +0.000 HD
ENDBRANCH  21  22
ENDBRANCH  18  21
ENDBRANCH   1  18
TORSDOF 8
ENDMDL
MODEL 8
REMARK VINA RESULT:    -6.668      2.556      3.828
REMARK INTER + INTRA:         -10.638
REMARK INTER:                  -9.684
REMARK INTRA:                  -0.953
REMARK UNBOUND:                -0.851
REMARK  Name = 
REMARK  9 active torsions:
REMARK  status: ('A' for Active; 'I' for Inactive)
REMARK    1  A    between atoms: C_1  and  C_2
REMARK    2  A    between atoms: C_2  and  N_3
REMARK    3  A    between atoms: C_2  and  C_19
REMARK    4  A    between atoms: N_3  and  C_4
REMARK    5  A    between atoms: C_4  and  C_5
REMARK    6  A    between atoms: C_8  and  C_9
REMARK    7  A    between atoms: C_9  and  N_10
REMARK    8  A    between atoms: N_10  and  C_11
REMARK    9  A    between atoms: C_11  and  C_12
REMARK                            x       y       z     vdW  Elec       q    Type
REMARK                         _______ _______ _______ _____ _____    ______ ____
ROOT
ATOM      1  C   UNL     1      47.574   4.348  15.335  0.00  0.00    +0.000 C 
ENDROOT
BRANCH   1   2
ATOM      2  C   UNL     1      46.923   4.794  14.049  0.00  0.00    +0.000 A 
ATOM      3  C   UNL     1      47.471   5.816  13.266  0.00  0.00    +0.000 A 
ATOM      4  C   UNL     1      46.841   6.205  12.085  0.00  0.00    +0.000 A 
ATOM      5  C   UNL     1      45.667   5.563  11.703  0.00  0.00    +0.000 A 
ATOM      6  N   UNL     1      45.105   4.577  12.446  0.00  0.00    +0.000 NA
ATOM      7  C   UNL     1      45.740   4.221  13.590  0.00  0.00    +0.000 A 
BRANCH   5   8
ATOM      8  C   UNL     1      44.945   5.973  10.434  0.00  0.00    +0.000 C 
BRANCH   8   9
ATOM      9  N   UNL     1      45.560   5.463   9.199  0.00  0.00    +0.000 NA
ATOM     10  H   UNL     1      46.539   5.259   9.422  0.00  0.00    +0.000 HD
BRANCH   9  11
ATOM     11  C   UNL     1      44.947   4.197   8.775  0.00  0.00    +0.000 C 
BRANCH  11  12
ATOM     12  C   UNL     1      45.929   3.431   7.938  0.00  0.00    +0.000 A 
ATOM     13  C   UNL     1      46.262   2.057   8.026  0.00  0.00    +0.000 A 
ATOM     14  C   UNL     1      47.203   1.850   7.049  0.00  0.00    +0.000 A 
ATOM     15  N   UNL     1      47.382   3.062   6.448  0.00  0.00    +0.000 N 
ATOM     16  N   UNL     1      46.634   4.042   6.969  0.00  0.00    +0.000 NA
ATOM     17  H   UNL     1      48.000   3.291   5.675  0.00  0.00    +0.000 HD
ENDBRANCH  11  12
ENDBRANCH   9  11
ENDBRANCH   8   9
ENDBRANCH   5   8
ENDBRANCH   1   2
BRANCH   1  18
ATOM     18  N   UNL     1      47.485   5.380  16.366  0.00  0.00    +0.000 NA
ATOM     19  H   UNL     1      47.450   6.294  15.916  0.00  0.00    +0.000 HD
BRANCH  18  21
ATOM     20  C   UNL     1      48.747   4.072  18.087  0.00  0.00    +0.000 C 
ATOM     21  C   UNL     1      48.605   5.394  17.322  0.00  0.00    +0.000 C 
BRANCH  21  22
ATOM     22  C   UNL     1      48.311   6.541  18.277  0.00  0.00    +0.000 A 
ATOM     23  C   UNL     1      48.050   6.355  19.627  0.00  0.00    +0.000 A 
ATOM     24  S   UNL     1      47.660   7.790  20.457  0.00  0.00    +0.000 S 
ATOM     25  C   UNL     1      47.828   8.717  19.040  0.00  0.00    +0.000 A 
ATOM     26  N   UNL     1      47.580  10.055  19.052  0.00  0.00    +0.000 NA
ATOM     27  C   UNL     1      47.745  10.633  17.908  0.00  0.00    +0.000 A 
ATOM     28  N   UNL     1      48.154  10.001  16.761  0.00  0.00    +0.000 N 
ATOM     29  C   UNL     1      48.454   8.652  16.711  0.00  0.00    +0.000 A 
ATOM     30  O   UNL     1      48.895   8.134  15.690  0.00  0.00    +0.000 OA
ATOM     31  C   UNL     1      48.223   7.947  17.961  0.00  0.00    +0.000 A 
ATOM     32  H   UNL     1      48.299  10.523  15.911  0.00  0.00    +0.000 HD
ENDBRANCH  21  22
ENDBRANCH  18  21
ENDBRANCH   1  18
TORSDOF 8
ENDMDL
MODEL 9
REMARK VINA RESULT:    -6.505      2.149      2.837
REMARK INTER + INTRA:         -10.399
REMARK INTER:                  -9.120
REMARK INTRA:                  -1.279
REMARK UNBOUND:                -0.851
REMARK  Name = 
REMARK  9 active torsions:
REMARK  status: ('A' for Active; 'I' for Inactive)
REMARK    1  A    between atoms: C_1  and  C_2
REMARK    2  A    between atoms: C_2  and  N_3
REMARK    3  A    between atoms: C_2  and  C_19
REMARK    4  A    between atoms: N_3  and  C_4
REMARK    5  A    between atoms: C_4  and  C_5
REMARK    6  A    between atoms: C_8  and  C_9
REMARK    7  A    between atoms: C_9  and  N_10
REMARK    8  A    between atoms: N_10  and  C_11
REMARK    9  A    between atoms: C_11  and  C_12
REMARK                            x       y       z     vdW  Elec       q    Type
REMARK                         _______ _______ _______ _____ _____    ______ ____
ROOT
ATOM      1  C   UNL     1      48.948   7.019  13.365  0.00  0.00    +0.000 C 
ENDROOT
BRANCH   1   2
ATOM      2  C   UNL     1      47.625   6.295  13.306  0.00  0.00    +0.000 A 
ATOM      3  C   UNL     1      46.461   6.930  12.860  0.00  0.00    +0.000 A 
ATOM      4  C   UNL     1      45.255   6.232  12.820  0.00  0.00    +0.000 A 
ATOM      5  C   UNL     1      45.232   4.902  13.230  0.00  0.00    +0.000 A 
ATOM      6  N   UNL     1      46.341   4.262  13.678  0.00  0.00    +0.000 NA
ATOM      7  C   UNL     1      47.498   4.968  13.706  0.00  0.00    +0.000 A 
BRANCH   5   8
ATOM      8  C   UNL     1      43.934   4.117  13.219  0.00  0.00    +0.000 C 
BRANCH   8   9
ATOM      9  N   UNL     1      44.022   2.819  12.533  0.00  0.00    +0.000 NA
ATOM     10  H   UNL     1      43.593   2.128  13.158  0.00  0.00    +0.000 HD
BRANCH   9  11
ATOM     11  C   UNL     1      43.239   2.813  11.290  0.00  0.00    +0.000 C 
BRANCH  11  12
ATOM     12  C   UNL     1      44.159   3.055  10.130  0.00  0.00    +0.000 A 
ATOM     13  C   UNL     1      44.552   4.299   9.576  0.00  0.00    +0.000 A 
ATOM     14  C   UNL     1      45.394   3.983   8.540  0.00  0.00    +0.000 A 
ATOM     15  N   UNL     1      45.462   2.620   8.523  0.00  0.00    +0.000 N 
ATOM     16  N   UNL     1      44.718   2.028   9.466  0.00  0.00    +0.000 NA
ATOM     17  H   UNL     1      45.997   2.028   7.894  0.00  0.00    +0.000 HD
ENDBRANCH  11  12
ENDBRANCH   9  11
ENDBRANCH   8   9
ENDBRANCH   5   8
ENDBRANCH   1   2
BRANCH   1  18
ATOM     18  N   UNL     1      48.873   8.200  14.223  0.00  0.00    +0.000 NA
ATOM     19  H   UNL     1      49.751   8.714  14.152  0.00  0.00    +0.000 HD
BRANCH  18  21
ATOM     20  C   UNL     1      48.330   9.177  16.463  0.00  0.00    +0.000 C 
ATOM     21  C   UNL     1      48.637   7.913  15.648  0.00  0.00    +0.000 C 
BRANCH  21  22
ATOM     22  C   UNL     1      49.909   7.246  16.146  0.00  0.00    +0.000 A 
ATOM     23  C   UNL     1      51.165   7.823  16.023  0.00  0.00    +0.000 A 
ATOM     24  S   UNL     1      52.436   6.832  16.577  0.00  0.00    +0.000 S 
ATOM     25  C   UNL     1      51.351   5.593  17.005  0.00  0.00    +0.000 A 
ATOM     26  N   UNL     1      51.807   4.414  17.509  0.00  0.00    +0.000 NA
ATOM     27  C   UNL     1      50.876   3.563  17.790  0.00  0.00    +0.000 A 
ATOM     28  N   UNL     1      49.532   3.791  17.632  0.00  0.00    +0.000 N 
ATOM     29  C   UNL     1      49.021   4.986  17.161  0.00  0.00    +0.000 A 
ATOM     30  O   UNL     1      47.812   5.186  17.108  0.00  0.00    +0.000 OA
ATOM     31  C   UNL     1      50.036   5.951  16.773  0.00  0.00    +0.000 A 
ATOM     32  H   UNL     1      48.858   3.094  17.908  0.00  0.00    +0.000 HD
ENDBRANCH  21  22
ENDBRANCH  18  21
ENDBRANCH   1  18
TORSDOF 8
ENDMDL
