MODEL 1
REMARK VINA RESULT:    -8.548      0.000      0.000
REMARK INTER + INTRA:         -12.810
REMARK INTER:                 -12.046
REMARK INTRA:                  -0.764
REMARK UNBOUND:                -0.764
REMARK  Name = 
REMARK  8 active torsions:
REMARK  status: ('A' for Active; 'I' for Inactive)
REMARK    1  A    between atoms: C_1  and  C_2
REMARK    2  A    between atoms: C_2  and  N_3
REMARK    3  A    between atoms: C_2  and  C_25
REMARK    4  A    between atoms: N_3  and  C_4
REMARK    5  A    between atoms: C_4  and  C_5
REMARK    6  A    between atoms: C_8  and  C_9
REMARK    7  A    between atoms: C_9  and  N_10
REMARK    8  A    between atoms: C_11  and  C_13
REMARK                            x       y       z     vdW  Elec       q    Type
REMARK                         _______ _______ _______ _____ _____    ______ ____
ROOT
ATOM      1  C   UNL     1      45.259   4.354  12.374  0.00  0.00    +0.000 A 
ATOM      2  C   UNL     1      45.258   5.700  12.014  0.00  0.00    +0.000 A 
ATOM      3  C   UNL     1      46.253   6.537  12.520  0.00  0.00    +0.000 A 
ATOM      4  C   UNL     1      47.231   6.018  13.369  0.00  0.00    +0.000 A 
ATOM      5  C   UNL     1      47.133   4.673  13.702  0.00  0.00    +0.000 A 
ATOM      6  N   UNL     1      46.186   3.837  13.219  0.00  0.00    +0.000 NA
ENDROOT
BRANCH   1   7
ATOM      7  C   UNL     1      44.256   3.391  11.757  0.00  0.00    +0.000 C 
BRANCH   7   8
ATOM      8  N   UNL     1      44.852   2.496  10.761  0.00  0.00    +0.000 NA
ATOM      9  H   UNL     1      44.571   1.539  10.972  0.00  0.00    +0.000 HD
BRANCH   8  11
ATOM     10  C   UNL     1      44.062   4.271   9.157  0.00  0.00    +0.000 C 
ATOM     11  C   UNL     1      44.445   2.800   9.376  0.00  0.00    +0.000 C 
BRANCH  11  12
ATOM     12  C   UNL     1      45.549   2.397   8.395  0.00  0.00    +0.000 A 
ATOM     13  C   UNL     1      46.124   3.338   7.537  0.00  0.00    +0.000 A 
ATOM     14  C   UNL     1      47.162   2.946   6.696  0.00  0.00    +0.000 A 
ATOM     15  C   UNL     1      47.599   1.628   6.727  0.00  0.00    +0.000 A 
ATOM     16  C   UNL     1      46.973   0.753   7.598  0.00  0.00    +0.000 A 
ATOM     17  N   UNL     1      45.965   1.104   8.429  0.00  0.00    +0.000 NA
ENDBRANCH  11  12
ENDBRANCH   8  11
ENDBRANCH   7   8
ENDBRANCH   1   7
BRANCH   4  18
ATOM     18  C   UNL     1      48.316   6.873  13.950  0.00  0.00    +0.000 C 
BRANCH  18  19
ATOM     19  N   UNL     1      48.169   6.990  15.376  0.00  0.00    +0.000 N 
ATOM     20  C   UNL     1      49.179   6.640  16.232  0.00  0.00    +0.000 C 
ATOM     21  O   UNL     1      50.269   6.249  15.825  0.00  0.00    +0.000 OA
ATOM     22  H   UNL     1      47.224   7.085  15.737  0.00  0.00    +0.000 HD
BRANCH  20  23
ATOM     23  C   UNL     1      48.912   6.823  17.663  0.00  0.00    +0.000 A 
ATOM     24  C   UNL     1      48.743   8.104  18.172  0.00  0.00    +0.000 A 
ATOM     25  S   UNL     1      48.381   8.134  19.838  0.00  0.00    +0.000 S 
ATOM     26  C   UNL     1      48.494   6.441  19.951  0.00  0.00    +0.000 A 
ATOM     27  N   UNL     1      48.312   5.805  21.139  0.00  0.00    +0.000 NA
ATOM     28  C   UNL     1      48.453   4.524  21.084  0.00  0.00    +0.000 A 
ATOM     29  N   UNL     1      48.748   3.815  19.949  0.00  0.00    +0.000 N 
ATOM     30  C   UNL     1      48.911   4.412  18.721  0.00  0.00    +0.000 A 
ATOM     31  O   UNL     1      49.131   3.751  17.713  0.00  0.00    +0.000 OA
ATOM     32  C   UNL     1      48.780   5.857  18.730  0.00  0.00    +0.000 A 
ATOM     33  H   UNL     1      48.834   2.812  19.971  0.00  0.00    +0.000 HD
ENDBRANCH  20  23
ENDBRANCH  18  19
ENDBRANCH   4  18
TORSDOF 7
ENDMDL
MODEL 2
REMARK VINA RESULT:    -8.516      1.912      2.249
REMARK INTER + INTRA:         -12.765
REMARK INTER:                 -11.827
REMARK INTRA:                  -0.938
REMARK UNBOUND:                -0.764
REMARK  Name = 
REMARK  8 active torsions:
REMARK  status: ('A' for Active; 'I' for Inactive)
REMARK    1  A    between atoms: C_1  and  C_2
REMARK    2  A    between atoms: C_2  and  N_3
REMARK    3  A    between atoms: C_2  and  C_25
REMARK    4  A    between atoms: N_3  and  C_4
REMARK    5  A    between atoms: C_4  and  C_5
REMARK    6  A    between atoms: C_8  and  C_9
REMARK    7  A    between atoms: C_9  and  N_10
REMARK    8  A    between atoms: C_11  and  C_13
REMARK                            x       y       z     vdW  Elec       q    Type
REMARK                         _______ _______ _______ _____ _____    ______ ____
ROOT
ATOM      1  C   UNL     1      44.532   5.765  11.031  0.00  0.00    +0.000 A 
ATOM      2  C   UNL     1      45.832   5.958  10.567  0.00  0.00    +0.000 A 
ATOM      3  C   UNL     1      46.693   6.784  11.290  0.00  0.00    +0.000 A 
ATOM      4  C   UNL     1      46.247   7.396  12.462  0.00  0.00    +0.000 A 
ATOM      5  C   UNL     1      44.926   7.175  12.829  0.00  0.00    +0.000 A 
ATOM      6  N   UNL     1      44.072   6.373  12.154  0.00  0.00    +0.000 NA
ENDROOT
BRANCH   1   7
ATOM      7  C   UNL     1      43.600   4.788  10.330  0.00  0.00    +0.000 C 
BRANCH   7   8
ATOM      8  N   UNL     1      44.192   4.185   9.132  0.00  0.00    +0.000 NA
ATOM      9  H   UNL     1      44.820   4.863   8.701  0.00  0.00    +0.000 HD
BRANCH   8  11
ATOM     10  C   UNL     1      44.086   1.757   9.795  0.00  0.00    +0.000 C 
ATOM     11  C   UNL     1      44.962   2.957   9.409  0.00  0.00    +0.000 C 
BRANCH  11  12
ATOM     12  C   UNL     1      45.842   2.597   8.209  0.00  0.00    +0.000 A 
ATOM     13  C   UNL     1      46.082   3.526   7.193  0.00  0.00    +0.000 A 
ATOM     14  C   UNL     1      46.929   3.181   6.143  0.00  0.00    +0.000 A 
ATOM     15  C   UNL     1      47.514   1.922   6.130  0.00  0.00    +0.000 A 
ATOM     16  C   UNL     1      47.220   1.054   7.168  0.00  0.00    +0.000 A 
ATOM     17  N   UNL     1      46.404   1.361   8.203  0.00  0.00    +0.000 NA
ENDBRANCH  11  12
ENDBRANCH   8  11
ENDBRANCH   7   8
ENDBRANCH   1   7
BRANCH   4  18
ATOM     18  C   UNL     1      47.125   8.300  13.271  0.00  0.00    +0.000 C 
BRANCH  18  19
ATOM     19  N   UNL     1      47.504   7.675  14.511  0.00  0.00    +0.000 N 
ATOM     20  C   UNL     1      48.597   6.853  14.593  0.00  0.00    +0.000 C 
ATOM     21  O   UNL     1      49.327   6.643  13.630  0.00  0.00    +0.000 OA
ATOM     22  H   UNL     1      46.803   7.644  15.246  0.00  0.00    +0.000 HD
BRANCH  20  23
ATOM     23  C   UNL     1      48.887   6.290  15.918  0.00  0.00    +0.000 A 
ATOM     24  C   UNL     1      49.815   6.914  16.740  0.00  0.00    +0.000 A 
ATOM     25  S   UNL     1      49.990   6.165  18.263  0.00  0.00    +0.000 S 
ATOM     26  C   UNL     1      48.873   4.949  17.855  0.00  0.00    +0.000 A 
ATOM     27  N   UNL     1      48.575   3.952  18.730  0.00  0.00    +0.000 NA
ATOM     28  C   UNL     1      47.734   3.083  18.281  0.00  0.00    +0.000 A 
ATOM     29  N   UNL     1      47.153   3.123  17.039  0.00  0.00    +0.000 N 
ATOM     30  C   UNL     1      47.402   4.127  16.134  0.00  0.00    +0.000 A 
ATOM     31  O   UNL     1      46.836   4.163  15.048  0.00  0.00    +0.000 OA
ATOM     32  C   UNL     1      48.356   5.123  16.584  0.00  0.00    +0.000 A 
ATOM     33  H   UNL     1      46.493   2.418  16.753  0.00  0.00    +0.000 HD
ENDBRANCH  20  23
ENDBRANCH  18  19
ENDBRANCH   4  18
TORSDOF 7
ENDMDL
MODEL 3
REMARK VINA RESULT:    -8.492      1.453      2.148
REMARK INTER + INTRA:         -12.732
REMARK INTER:                 -11.854
REMARK INTRA:                  -0.878
REMARK UNBOUND:                -0.764
REMARK  Name = 
REMARK  8 active torsions:
REMARK  status: ('A' for Active; 'I' for Inactive)
REMARK    1  A    between atoms: C_1  and  C_2
REMARK    2  A    between atoms: C_2  and  N_3
REMARK    3  A    between atoms: C_2  and  C_25
REMARK    4  A    between atoms: N_3  and  C_4
REMARK    5  A    between atoms: C_4  and  C_5
REMARK    6  A    between atoms: C_8  and  C_9
REMARK    7  A    between atoms: C_9  and  N_10
REMARK    8  A    between atoms: C_11  and  C_13
REMARK                            x       y       z     vdW  Elec       q    Type
REMARK                         _______ _______ _______ _____ _____    ______ ____
ROOT
ATOM      1  C   UNL     1      45.330   4.369  12.377  0.00  0.00    +0.000 A 
ATOM      2  C   UNL     1      45.806   5.514  11.740  0.00  0.00    +0.000 A 
ATOM      3  C   UNL     1      46.801   6.270  12.361  0.00  0.00    +0.000 A 
ATOM      4  C   UNL     1      47.306   5.870  13.598  0.00  0.00    +0.000 A 
ATOM      5  C   UNL     1      46.748   4.736  14.175  0.00  0.00    +0.000 A 
ATOM      6  N   UNL     1      45.791   3.979  13.593  0.00  0.00    +0.000 NA
ENDROOT
BRANCH   1   7
ATOM      7  C   UNL     1      44.325   3.463  11.683  0.00  0.00    +0.000 C 
BRANCH   7   8
ATOM      8  N   UNL     1      44.935   2.587  10.678  0.00  0.00    +0.000 NA
ATOM      9  H   UNL     1      44.680   1.622  10.887  0.00  0.00    +0.000 HD
BRANCH   8  11
ATOM     10  C   UNL     1      44.147   4.362   9.073  0.00  0.00    +0.000 C 
ATOM     11  C   UNL     1      44.509   2.887   9.298  0.00  0.00    +0.000 C 
BRANCH  11  12
ATOM     12  C   UNL     1      45.589   2.457   8.301  0.00  0.00    +0.000 A 
ATOM     13  C   UNL     1      46.107   3.362   7.371  0.00  0.00    +0.000 A 
ATOM     14  C   UNL     1      47.125   2.950   6.516  0.00  0.00    +0.000 A 
ATOM     15  C   UNL     1      47.601   1.648   6.606  0.00  0.00    +0.000 A 
ATOM     16  C   UNL     1      47.030   0.808   7.547  0.00  0.00    +0.000 A 
ATOM     17  N   UNL     1      46.043   1.179   8.394  0.00  0.00    +0.000 NA
ENDBRANCH  11  12
ENDBRANCH   8  11
ENDBRANCH   7   8
ENDBRANCH   1   7
BRANCH   4  18
ATOM     18  C   UNL     1      48.367   6.649  14.314  0.00  0.00    +0.000 C 
BRANCH  18  19
ATOM     19  N   UNL     1      48.123   6.666  15.733  0.00  0.00    +0.000 N 
ATOM     20  C   UNL     1      49.079   6.269  16.628  0.00  0.00    +0.000 C 
ATOM     21  O   UNL     1      50.200   5.919  16.271  0.00  0.00    +0.000 OA
ATOM     22  H   UNL     1      47.154   6.725  16.034  0.00  0.00    +0.000 HD
BRANCH  20  23
ATOM     23  C   UNL     1      48.714   6.349  18.048  0.00  0.00    +0.000 A 
ATOM     24  C   UNL     1      48.864   5.233  18.860  0.00  0.00    +0.000 A 
ATOM     25  S   UNL     1      48.450   5.515  20.490  0.00  0.00    +0.000 S 
ATOM     26  C   UNL     1      48.001   7.121  20.157  0.00  0.00    +0.000 A 
ATOM     27  N   UNL     1      47.523   7.932  21.139  0.00  0.00    +0.000 NA
ATOM     28  C   UNL     1      47.197   9.115  20.741  0.00  0.00    +0.000 A 
ATOM     29  N   UNL     1      47.314   9.569  19.452  0.00  0.00    +0.000 N 
ATOM     30  C   UNL     1      47.820   8.795  18.434  0.00  0.00    +0.000 A 
ATOM     31  O   UNL     1      47.955   9.240  17.301  0.00  0.00    +0.000 OA
ATOM     32  C   UNL     1      48.187   7.447  18.826  0.00  0.00    +0.000 A 
ATOM     33  H   UNL     1      47.052  10.510  19.209  0.00  0.00    +0.000 HD
ENDBRANCH  20  23
ENDBRANCH  18  19
ENDBRANCH   4  18
TORSDOF 7
ENDMDL
MODEL 4
REMARK VINA RESULT:    -8.294      2.285      2.693
REMARK INTER + INTRA:         -12.452
REMARK INTER:                 -11.567
REMARK INTRA:                  -0.885
REMARK UNBOUND:                -0.764
REMARK  Name = 
REMARK  8 active torsions:
REMARK  status: ('A' for Active; 'I' for Inactive)
REMARK    1  A    between atoms: C_1  and  C_2
REMARK    2  A    between atoms: C_2  and  N_3
REMARK    3  A    between atoms: C_2  and  C_25
REMARK    4  A    between atoms: N_3  and  C_4
REMARK    5  A    between atoms: C_4  and  C_5
REMARK    6  A    between atoms: C_8  and  C_9
REMARK    7  A    between atoms: C_9  and  N_10
REMARK    8  A    between atoms: C_11  and  C_13
REMARK                            x       y       z     vdW  Elec       q    Type
REMARK                         _______ _______ _______ _____ _____    ______ ____
ROOT
ATOM      1  C   UNL     1      45.679   4.371  12.918  0.00  0.00    +0.000 A 
ATOM      2  C   UNL     1      45.873   5.662  12.431  0.00  0.00    +0.000 A 
ATOM      3  C   UNL     1      46.752   6.514  13.101  0.00  0.00    +0.000 A 
ATOM      4  C   UNL     1      47.423   6.063  14.238  0.00  0.00    +0.000 A 
ATOM      5  C   UNL     1      47.141   4.774  14.672  0.00  0.00    +0.000 A 
ATOM      6  N   UNL     1      46.302   3.924  14.038  0.00  0.00    +0.000 NA
ENDROOT
BRANCH   1   7
ATOM      7  C   UNL     1      44.812   3.381  12.154  0.00  0.00    +0.000 C 
BRANCH   7   8
ATOM      8  N   UNL     1      45.498   2.781  11.005  0.00  0.00    +0.000 NA
ATOM      9  H   UNL     1      45.668   1.796  11.205  0.00  0.00    +0.000 HD
BRANCH   8  11
ATOM     10  C   UNL     1      44.091   4.246   9.515  0.00  0.00    +0.000 C 
ATOM     11  C   UNL     1      44.731   2.871   9.748  0.00  0.00    +0.000 C 
BRANCH  11  12
ATOM     12  C   UNL     1      45.616   2.498   8.556  0.00  0.00    +0.000 A 
ATOM     13  C   UNL     1      45.967   3.453   7.598  0.00  0.00    +0.000 A 
ATOM     14  C   UNL     1      46.816   3.090   6.556  0.00  0.00    +0.000 A 
ATOM     15  C   UNL     1      47.293   1.787   6.492  0.00  0.00    +0.000 A 
ATOM     16  C   UNL     1      46.893   0.897   7.474  0.00  0.00    +0.000 A 
ATOM     17  N   UNL     1      46.072   1.219   8.500  0.00  0.00    +0.000 NA
ENDBRANCH  11  12
ENDBRANCH   8  11
ENDBRANCH   7   8
ENDBRANCH   1   7
BRANCH   4  18
ATOM     18  C   UNL     1      48.370   6.937  15.003  0.00  0.00    +0.000 C 
BRANCH  18  19
ATOM     19  N   UNL     1      49.459   6.167  15.542  0.00  0.00    +0.000 N 
ATOM     20  C   UNL     1      49.567   5.922  16.886  0.00  0.00    +0.000 C 
ATOM     21  O   UNL     1      48.722   6.311  17.687  0.00  0.00    +0.000 OA
ATOM     22  H   UNL     1      50.272   6.037  14.948  0.00  0.00    +0.000 HD
BRANCH  20  23
ATOM     23  C   UNL     1      50.714   5.109  17.308  0.00  0.00    +0.000 A 
ATOM     24  C   UNL     1      51.870   5.733  17.755  0.00  0.00    +0.000 A 
ATOM     25  S   UNL     1      53.081   4.644  18.262  0.00  0.00    +0.000 S 
ATOM     26  C   UNL     1      52.124   3.301  17.850  0.00  0.00    +0.000 A 
ATOM     27  N   UNL     1      52.588   2.033  18.015  0.00  0.00    +0.000 NA
ATOM     28  C   UNL     1      51.769   1.112  17.637  0.00  0.00    +0.000 A 
ATOM     29  N   UNL     1      50.521   1.338  17.116  0.00  0.00    +0.000 N 
ATOM     30  C   UNL     1      49.999   2.600  16.958  0.00  0.00    +0.000 A 
ATOM     31  O   UNL     1      48.863   2.772  16.531  0.00  0.00    +0.000 OA
ATOM     32  C   UNL     1      50.888   3.676  17.354  0.00  0.00    +0.000 A 
ATOM     33  H   UNL     1      49.924   0.572  16.849  0.00  0.00    +0.000 HD
ENDBRANCH  20  23
ENDBRANCH  18  19
ENDBRANCH   4  18
TORSDOF 7
ENDMDL
MODEL 5
REMARK VINA RESULT:    -7.484      3.250      9.069
REMARK INTER + INTRA:         -11.311
REMARK INTER:                  -9.916
REMARK INTRA:                  -1.395
REMARK UNBOUND:                -0.764
REMARK  Name = 
REMARK  8 active torsions:
REMARK  status: ('A' for Active; 'I' for Inactive)
REMARK    1  A    between atoms: C_1  and  C_2
REMARK    2  A    between atoms: C_2  and  N_3
REMARK    3  A    between atoms: C_2  and  C_25
REMARK    4  A    between atoms: N_3  and  C_4
REMARK    5  A    between atoms: C_4  and  C_5
REMARK    6  A    between atoms: C_8  and  C_9
REMARK    7  A    between atoms: C_9  and  N_10
REMARK    8  A    between atoms: C_11  and  C_13
REMARK                            x       y       z     vdW  Elec       q    Type
REMARK                         _______ _______ _______ _____ _____    ______ ____
ROOT
ATOM      1  C   UNL     1      49.084   7.681  15.925  0.00  0.00    +0.000 A 
ATOM      2  C   UNL     1      48.330   8.785  15.532  0.00  0.00    +0.000 A 
ATOM      3  C   UNL     1      47.793   8.815  14.245  0.00  0.00    +0.000 A 
ATOM      4  C   UNL     1      48.012   7.745  13.377  0.00  0.00    +0.000 A 
ATOM      5  C   UNL     1      48.806   6.704  13.841  0.00  0.00    +0.000 A 
ATOM      6  N   UNL     1      49.331   6.644  15.086  0.00  0.00    +0.000 NA
ENDROOT
BRANCH   1   7
ATOM      7  C   UNL     1      49.594   7.566  17.354  0.00  0.00    +0.000 C 
BRANCH   7   8
ATOM      8  N   UNL     1      48.524   7.350  18.332  0.00  0.00    +0.000 NA
ATOM      9  H   UNL     1      47.646   7.216  17.832  0.00  0.00    +0.000 HD
BRANCH   8  11
ATOM     10  C   UNL     1      47.804   6.120  20.410  0.00  0.00    +0.000 C 
ATOM     11  C   UNL     1      48.744   6.175  19.197  0.00  0.00    +0.000 C 
BRANCH  11  12
ATOM     12  C   UNL     1      48.622   4.884  18.384  0.00  0.00    +0.000 A 
ATOM     13  C   UNL     1      47.412   4.528  17.782  0.00  0.00    +0.000 A 
ATOM     14  C   UNL     1      47.353   3.374  17.006  0.00  0.00    +0.000 A 
ATOM     15  C   UNL     1      48.497   2.602  16.851  0.00  0.00    +0.000 A 
ATOM     16  C   UNL     1      49.655   3.015  17.486  0.00  0.00    +0.000 A 
ATOM     17  N   UNL     1      49.746   4.133  18.243  0.00  0.00    +0.000 NA
ENDBRANCH  11  12
ENDBRANCH   8  11
ENDBRANCH   7   8
ENDBRANCH   1   7
BRANCH   4  18
ATOM     18  C   UNL     1      47.469   7.728  11.980  0.00  0.00    +0.000 C 
BRANCH  18  19
ATOM     19  N   UNL     1      46.795   6.486  11.706  0.00  0.00    +0.000 N 
ATOM     20  C   UNL     1      45.436   6.369  11.822  0.00  0.00    +0.000 C 
ATOM     21  O   UNL     1      44.724   7.322  12.124  0.00  0.00    +0.000 OA
ATOM     22  H   UNL     1      47.366   5.646  11.683  0.00  0.00    +0.000 HD
BRANCH  20  23
ATOM     23  C   UNL     1      44.867   5.055  11.497  0.00  0.00    +0.000 A 
ATOM     24  C   UNL     1      44.139   4.366  12.457  0.00  0.00    +0.000 A 
ATOM     25  S   UNL     1      43.501   2.887  11.897  0.00  0.00    +0.000 S 
ATOM     26  C   UNL     1      44.222   3.089  10.370  0.00  0.00    +0.000 A 
ATOM     27  N   UNL     1      44.084   2.145   9.401  0.00  0.00    +0.000 NA
ATOM     28  C   UNL     1      44.705   2.414   8.303  0.00  0.00    +0.000 A 
ATOM     29  N   UNL     1      45.445   3.546   8.078  0.00  0.00    +0.000 N 
ATOM     30  C   UNL     1      45.587   4.541   9.018  0.00  0.00    +0.000 A 
ATOM     31  O   UNL     1      46.217   5.563   8.775  0.00  0.00    +0.000 OA
ATOM     32  C   UNL     1      44.921   4.279  10.279  0.00  0.00    +0.000 A 
ATOM     33  H   UNL     1      45.897   3.703   7.192  0.00  0.00    +0.000 HD
ENDBRANCH  20  23
ENDBRANCH  18  19
ENDBRANCH   4  18
TORSDOF 7
ENDMDL
MODEL 6
REMARK VINA RESULT:    -7.125      1.912      3.166
REMARK INTER + INTRA:         -10.806
REMARK INTER:                  -9.910
REMARK INTRA:                  -0.896
REMARK UNBOUND:                -0.764
REMARK  Name = 
REMARK  8 active torsions:
REMARK  status: ('A' for Active; 'I' for Inactive)
REMARK    1  A    between atoms: C_1  and  C_2
REMARK    2  A    between atoms: C_2  and  N_3
REMARK    3  A    between atoms: C_2  and  C_25
REMARK    4  A    between atoms: N_3  and  C_4
REMARK    5  A    between atoms: C_4  and  C_5
REMARK    6  A    between atoms: C_8  and  C_9
REMARK    7  A    between atoms: C_9  and  N_10
REMARK    8  A    between atoms: C_11  and  C_13
REMARK                            x       y       z     vdW  Elec       q    Type
REMARK                         _______ _______ _______ _____ _____    ______ ____
ROOT
ATOM      1  C   UNL     1      45.048   4.841  11.623  0.00  0.00    +0.000 A 
ATOM      2  C   UNL     1      45.916   5.858  12.018  0.00  0.00    +0.000 A 
ATOM      3  C   UNL     1      46.729   5.660  13.134  0.00  0.00    +0.000 A 
ATOM      4  C   UNL     1      46.667   4.452  13.831  0.00  0.00    +0.000 A 
ATOM      5  C   UNL     1      45.749   3.510  13.387  0.00  0.00    +0.000 A 
ATOM      6  N   UNL     1      44.956   3.671  12.304  0.00  0.00    +0.000 NA
ENDROOT
BRANCH   1   7
ATOM      7  C   UNL     1      44.227   4.981  10.350  0.00  0.00    +0.000 C 
BRANCH   7   8
ATOM      8  N   UNL     1      44.960   4.586   9.144  0.00  0.00    +0.000 NA
ATOM      9  H   UNL     1      45.794   5.168   9.063  0.00  0.00    +0.000 HD
BRANCH   8  11
ATOM     10  C   UNL     1      44.222   2.182   9.297  0.00  0.00    +0.000 C 
ATOM     11  C   UNL     1      45.385   3.173   9.148  0.00  0.00    +0.000 C 
BRANCH  11  12
ATOM     12  C   UNL     1      46.184   2.853   7.882  0.00  0.00    +0.000 A 
ATOM     13  C   UNL     1      46.792   1.606   7.714  0.00  0.00    +0.000 A 
ATOM     14  C   UNL     1      47.465   1.333   6.527  0.00  0.00    +0.000 A 
ATOM     15  C   UNL     1      47.520   2.306   5.538  0.00  0.00    +0.000 A 
ATOM     16  C   UNL     1      46.901   3.520   5.783  0.00  0.00    +0.000 A 
ATOM     17  N   UNL     1      46.236   3.815   6.923  0.00  0.00    +0.000 NA
ENDBRANCH  11  12
ENDBRANCH   8  11
ENDBRANCH   7   8
ENDBRANCH   1   7
BRANCH   4  18
ATOM     18  C   UNL     1      47.509   4.189  15.042  0.00  0.00    +0.000 C 
BRANCH  18  19
ATOM     19  N   UNL     1      47.574   5.353  15.886  0.00  0.00    +0.000 N 
ATOM     20  C   UNL     1      48.658   5.597  16.687  0.00  0.00    +0.000 C 
ATOM     21  O   UNL     1      49.641   4.862  16.694  0.00  0.00    +0.000 OA
ATOM     22  H   UNL     1      46.701   5.839  16.071  0.00  0.00    +0.000 HD
BRANCH  20  23
ATOM     23  C   UNL     1      48.610   6.827  17.487  0.00  0.00    +0.000 A 
ATOM     24  C   UNL     1      48.577   6.744  18.872  0.00  0.00    +0.000 A 
ATOM     25  S   UNL     1      48.584   8.263  19.648  0.00  0.00    +0.000 S 
ATOM     26  C   UNL     1      48.574   9.085  18.159  0.00  0.00    +0.000 A 
ATOM     27  N   UNL     1      48.552  10.444  18.111  0.00  0.00    +0.000 NA
ATOM     28  C   UNL     1      48.519  10.935  16.918  0.00  0.00    +0.000 A 
ATOM     29  N   UNL     1      48.516  10.192  15.765  0.00  0.00    +0.000 N 
ATOM     30  C   UNL     1      48.567   8.818  15.765  0.00  0.00    +0.000 A 
ATOM     31  O   UNL     1      48.608   8.181  14.720  0.00  0.00    +0.000 OA
ATOM     32  C   UNL     1      48.589   8.215  17.084  0.00  0.00    +0.000 A 
ATOM     33  H   UNL     1      48.501  10.638  14.862  0.00  0.00    +0.000 HD
ENDBRANCH  20  23
ENDBRANCH  18  19
ENDBRANCH   4  18
TORSDOF 7
ENDMDL
MODEL 7
REMARK VINA RESULT:    -7.057      3.592      5.102
REMARK INTER + INTRA:         -10.709
REMARK INTER:                  -9.820
REMARK INTRA:                  -0.889
REMARK UNBOUND:                -0.764
REMARK  Name = 
REMARK  8 active torsions:
REMARK  status: ('A' for Active; 'I' for Inactive)
REMARK    1  A    between atoms: C_1  and  C_2
REMARK    2  A    between atoms: C_2  and  N_3
REMARK    3  A    between atoms: C_2  and  C_25
REMARK    4  A    between atoms: N_3  and  C_4
REMARK    5  A    between atoms: C_4  and  C_5
REMARK    6  A    between atoms: C_8  and  C_9
REMARK    7  A    between atoms: C_9  and  N_10
REMARK    8  A    between atoms: C_11  and  C_13
REMARK                            x       y       z     vdW  Elec       q    Type
REMARK                         _______ _______ _______ _____ _____    ______ ____
ROOT
ATOM      1  C   UNL     1      47.657   5.833  14.533  0.00  0.00    +0.000 A 
ATOM      2  C   UNL     1      48.350   6.305  15.646  0.00  0.00    +0.000 A 
ATOM      3  C   UNL     1      48.574   5.443  16.720  0.00  0.00    +0.000 A 
ATOM      4  C   UNL     1      48.110   4.128  16.663  0.00  0.00    +0.000 A 
ATOM      5  C   UNL     1      47.399   3.755  15.529  0.00  0.00    +0.000 A 
ATOM      6  N   UNL     1      47.176   4.566  14.470  0.00  0.00    +0.000 NA
ENDROOT
BRANCH   1   7
ATOM      7  C   UNL     1      47.489   6.710  13.301  0.00  0.00    +0.000 C 
BRANCH   7   8
ATOM      8  N   UNL     1      47.070   5.962  12.113  0.00  0.00    +0.000 NA
ATOM      9  H   UNL     1      47.356   4.989  12.222  0.00  0.00    +0.000 HD
BRANCH   8  11
ATOM     10  C   UNL     1      45.079   7.374  11.488  0.00  0.00    +0.000 C 
ATOM     11  C   UNL     1      45.613   5.990  11.882  0.00  0.00    +0.000 C 
BRANCH  11  12
ATOM     12  C   UNL     1      45.222   4.959  10.819  0.00  0.00    +0.000 A 
ATOM     13  C   UNL     1      45.619   5.115   9.489  0.00  0.00    +0.000 A 
ATOM     14  C   UNL     1      45.289   4.131   8.561  0.00  0.00    +0.000 A 
ATOM     15  C   UNL     1      44.572   3.018   8.979  0.00  0.00    +0.000 A 
ATOM     16  C   UNL     1      44.207   2.939  10.312  0.00  0.00    +0.000 A 
ATOM     17  N   UNL     1      44.514   3.877  11.238  0.00  0.00    +0.000 NA
ENDBRANCH  11  12
ENDBRANCH   8  11
ENDBRANCH   7   8
ENDBRANCH   1   7
BRANCH   4  18
ATOM     18  C   UNL     1      48.313   3.163  17.790  0.00  0.00    +0.000 C 
BRANCH  18  19
ATOM     19  N   UNL     1      49.715   2.945  18.034  0.00  0.00    +0.000 N 
ATOM     20  C   UNL     1      50.467   2.144  17.217  0.00  0.00    +0.000 C 
ATOM     21  O   UNL     1      49.996   1.608  16.218  0.00  0.00    +0.000 OA
ATOM     22  H   UNL     1      50.065   3.179  18.958  0.00  0.00    +0.000 HD
BRANCH  20  23
ATOM     23  C   UNL     1      51.888   2.016  17.562  0.00  0.00    +0.000 A 
ATOM     24  C   UNL     1      52.444   0.754  17.725  0.00  0.00    +0.000 A 
ATOM     25  S   UNL     1      54.115   0.784  18.065  0.00  0.00    +0.000 S 
ATOM     26  C   UNL     1      54.143   2.484  18.062  0.00  0.00    +0.000 A 
ATOM     27  N   UNL     1      55.292   3.166  18.315  0.00  0.00    +0.000 NA
ATOM     28  C   UNL     1      55.163   4.449  18.308  0.00  0.00    +0.000 A 
ATOM     29  N   UNL     1      53.992   5.118  18.060  0.00  0.00    +0.000 N 
ATOM     30  C   UNL     1      52.813   4.472  17.770  0.00  0.00    +0.000 A 
ATOM     31  O   UNL     1      51.791   5.095  17.509  0.00  0.00    +0.000 OA
ATOM     32  C   UNL     1      52.900   3.024  17.782  0.00  0.00    +0.000 A 
ATOM     33  H   UNL     1      53.961   6.125  18.058  0.00  0.00    +0.000 HD
ENDBRANCH  20  23
ENDBRANCH  18  19
ENDBRANCH   4  18
TORSDOF 7
ENDMDL
MODEL 8
REMARK VINA RESULT:    -6.939      5.583      8.186
REMARK INTER + INTRA:         -10.542
REMARK INTER:                  -9.445
REMARK INTRA:                  -1.098
REMARK UNBOUND:                -0.764
REMARK  Name = 
REMARK  8 active torsions:
REMARK  status: ('A' for Active; 'I' for Inactive)
REMARK    1  A    between atoms: C_1  and  C_2
REMARK    2  A    between atoms: C_2  and  N_3
REMARK    3  A    between atoms: C_2  and  C_25
REMARK    4  A    between atoms: N_3  and  C_4
REMARK    5  A    between atoms: C_4  and  C_5
REMARK    6  A    between atoms: C_8  and  C_9
REMARK    7  A    between atoms: C_9  and  N_10
REMARK    8  A    between atoms: C_11  and  C_13
REMARK                            x       y       z     vdW  Elec       q    Type
REMARK                         _______ _______ _______ _____ _____    ______ ____
ROOT
ATOM      1  C   UNL     1      47.677   6.504  13.230  0.00  0.00    +0.000 A 
ATOM      2  C   UNL     1      47.696   7.028  11.939  0.00  0.00    +0.000 A 
ATOM      3  C   UNL     1      48.837   7.700  11.498  0.00  0.00    +0.000 A 
ATOM      4  C   UNL     1      49.937   7.830  12.347  0.00  0.00    +0.000 A 
ATOM      5  C   UNL     1      49.815   7.307  13.628  0.00  0.00    +0.000 A 
ATOM      6  N   UNL     1      48.726   6.644  14.079  0.00  0.00    +0.000 NA
ENDROOT
BRANCH   1   7
ATOM      7  C   UNL     1      46.494   5.674  13.707  0.00  0.00    +0.000 C 
BRANCH   7   8
ATOM      8  N   UNL     1      45.267   5.929  12.947  0.00  0.00    +0.000 NA
ATOM      9  H   UNL     1      45.516   6.361  12.058  0.00  0.00    +0.000 HD
BRANCH   8  11
ATOM     10  C   UNL     1      42.988   4.854  12.972  0.00  0.00    +0.000 C 
ATOM     11  C   UNL     1      44.485   4.710  12.663  0.00  0.00    +0.000 C 
BRANCH  11  12
ATOM     12  C   UNL     1      44.679   4.280  11.207  0.00  0.00    +0.000 A 
ATOM     13  C   UNL     1      45.264   5.143  10.277  0.00  0.00    +0.000 A 
ATOM     14  C   UNL     1      45.472   4.699   8.974  0.00  0.00    +0.000 A 
ATOM     15  C   UNL     1      45.091   3.409   8.629  0.00  0.00    +0.000 A 
ATOM     16  C   UNL     1      44.509   2.617   9.604  0.00  0.00    +0.000 A 
ATOM     17  N   UNL     1      44.297   3.018  10.878  0.00  0.00    +0.000 NA
ENDBRANCH  11  12
ENDBRANCH   8  11
ENDBRANCH   7   8
ENDBRANCH   1   7
BRANCH   4  18
ATOM     18  C   UNL     1      51.183   8.550  11.929  0.00  0.00    +0.000 C 
BRANCH  18  19
ATOM     19  N   UNL     1      51.551   8.200  10.583  0.00  0.00    +0.000 N 
ATOM     20  C   UNL     1      52.677   8.711   9.993  0.00  0.00    +0.000 C 
ATOM     21  O   UNL     1      53.445   9.457  10.593  0.00  0.00    +0.000 OA
ATOM     22  H   UNL     1      50.832   7.783  10.000  0.00  0.00    +0.000 HD
BRANCH  20  23
ATOM     23  C   UNL     1      52.953   8.263   8.622  0.00  0.00    +0.000 A 
ATOM     24  C   UNL     1      52.879   9.172   7.575  0.00  0.00    +0.000 A 
ATOM     25  S   UNL     1      53.285   8.502   6.060  0.00  0.00    +0.000 S 
ATOM     26  C   UNL     1      53.520   6.961   6.742  0.00  0.00    +0.000 A 
ATOM     27  N   UNL     1      53.868   5.899   5.967  0.00  0.00    +0.000 NA
ATOM     28  C   UNL     1      53.986   4.787   6.610  0.00  0.00    +0.000 A 
ATOM     29  N   UNL     1      53.799   4.638   7.960  0.00  0.00    +0.000 N 
ATOM     30  C   UNL     1      53.475   5.689   8.787  0.00  0.00    +0.000 A 
ATOM     31  O   UNL     1      53.358   5.536   9.996  0.00  0.00    +0.000 OA
ATOM     32  C   UNL     1      53.314   6.962   8.110  0.00  0.00    +0.000 A 
ATOM     33  H   UNL     1      53.918   3.742   8.404  0.00  0.00    +0.000 HD
ENDBRANCH  20  23
ENDBRANCH  18  19
ENDBRANCH   4  18
TORSDOF 7
ENDMDL
MODEL 9
REMARK VINA RESULT:    -6.928      2.627      3.280
REMARK INTER + INTRA:         -10.528
REMARK INTER:                  -9.269
REMARK INTRA:                  -1.259
REMARK UNBOUND:                -0.764
REMARK  Name = 
REMARK  8 active torsions:
REMARK  status: ('A' for Active; 'I' for Inactive)
REMARK    1  A    between atoms: C_1  and  C_2
REMARK    2  A    between atoms: C_2  and  N_3
REMARK    3  A    between atoms: C_2  and  C_25
REMARK    4  A    between atoms: N_3  and  C_4
REMARK    5  A    between atoms: C_4  and  C_5
REMARK    6  A    between atoms: C_8  and  C_9
REMARK    7  A    between atoms: C_9  and  N_10
REMARK    8  A    between atoms: C_11  and  C_13
REMARK                            x       y       z     vdW  Elec       q    Type
REMARK                         _______ _______ _______ _____ _____    ______ ____
ROOT
ATOM      1  C   UNL     1      45.660   5.296  13.183  0.00  0.00    +0.000 A 
ATOM      2  C   UNL     1      45.425   6.629  12.850  0.00  0.00    +0.000 A 
ATOM      3  C   UNL     1      46.509   7.499  12.730  0.00  0.00    +0.000 A 
ATOM      4  C   UNL     1      47.805   7.024  12.936  0.00  0.00    +0.000 A 
ATOM      5  C   UNL     1      47.942   5.690  13.299  0.00  0.00    +0.000 A 
ATOM      6  N   UNL     1      46.911   4.823  13.413  0.00  0.00    +0.000 NA
ENDROOT
BRANCH   1   7
ATOM      7  C   UNL     1      44.514   4.296  13.217  0.00  0.00    +0.000 C 
BRANCH   7   8
ATOM      8  N   UNL     1      44.713   3.159  12.314  0.00  0.00    +0.000 NA
ATOM      9  H   UNL     1      44.472   2.302  12.811  0.00  0.00    +0.000 HD
BRANCH   8  11
ATOM     10  C   UNL     1      42.939   4.430  11.055  0.00  0.00    +0.000 C 
ATOM     11  C   UNL     1      43.893   3.227  11.090  0.00  0.00    +0.000 C 
BRANCH  11  12
ATOM     12  C   UNL     1      44.788   3.235   9.848  0.00  0.00    +0.000 A 
ATOM     13  C   UNL     1      45.177   2.040   9.238  0.00  0.00    +0.000 A 
ATOM     14  C   UNL     1      45.948   2.088   8.080  0.00  0.00    +0.000 A 
ATOM     15  C   UNL     1      46.316   3.322   7.560  0.00  0.00    +0.000 A 
ATOM     16  C   UNL     1      45.900   4.462   8.228  0.00  0.00    +0.000 A 
ATOM     17  N   UNL     1      45.147   4.448   9.352  0.00  0.00    +0.000 NA
ENDBRANCH  11  12
ENDBRANCH   8  11
ENDBRANCH   7   8
ENDBRANCH   1   7
BRANCH   4  18
ATOM     18  C   UNL     1      49.004   7.916  12.831  0.00  0.00    +0.000 C 
BRANCH  18  19
ATOM     19  N   UNL     1      50.084   7.423  13.646  0.00  0.00    +0.000 N 
ATOM     20  C   UNL     1      50.759   8.243  14.510  0.00  0.00    +0.000 C 
ATOM     21  O   UNL     1      50.454   9.422  14.662  0.00  0.00    +0.000 OA
ATOM     22  H   UNL     1      50.499   6.536  13.377  0.00  0.00    +0.000 HD
BRANCH  20  23
ATOM     23  C   UNL     1      51.828   7.617  15.298  0.00  0.00    +0.000 A 
ATOM     24  C   UNL     1      53.138   8.049  15.144  0.00  0.00    +0.000 A 
ATOM     25  S   UNL     1      54.243   7.259  16.175  0.00  0.00    +0.000 S 
ATOM     26  C   UNL     1      53.019   6.273  16.824  0.00  0.00    +0.000 A 
ATOM     27  N   UNL     1      53.303   5.334  17.765  0.00  0.00    +0.000 NA
ATOM     28  C   UNL     1      52.285   4.640  18.149  0.00  0.00    +0.000 A 
ATOM     29  N   UNL     1      51.005   4.803  17.686  0.00  0.00    +0.000 N 
ATOM     30  C   UNL     1      50.667   5.759  16.757  0.00  0.00    +0.000 A 
ATOM     31  O   UNL     1      49.507   5.913  16.393  0.00  0.00    +0.000 OA
ATOM     32  C   UNL     1      51.780   6.558  16.279  0.00  0.00    +0.000 A 
ATOM     33  H   UNL     1      50.251   4.235  18.036  0.00  0.00    +0.000 HD
ENDBRANCH  20  23
ENDBRANCH  18  19
ENDBRANCH   4  18
TORSDOF 7
ENDMDL
