MODEL 1
REMARK VINA RESULT:    -9.280      0.000      0.000
REMARK INTER + INTRA:         -12.696
REMARK INTER:                 -11.451
REMARK INTRA:                  -1.246
REMARK UNBOUND:                -1.246
REMARK  Name = 
REMARK  4 active torsions:
REMARK  status: ('A' for Active; 'I' for Inactive)
REMARK    1  A    between atoms: C_2  and  C_4
REMARK    2  A    between atoms: N_8  and  C_9
REMARK    3  A    between atoms: C_9  and  C_10
REMARK    4  A    between atoms: C_14  and  C_15
REMARK                            x       y       z     vdW  Elec       q    Type
REMARK                         _______ _______ _______ _____ _____    ______ ____
ROOT
ATOM      1  C   UNL     1      43.836   4.858  11.361  0.00  0.00    +0.000 C 
ATOM      2  C   UNL     1      42.497   5.125  12.034  0.00  0.00    +0.000 C 
ATOM      3  C   UNL     1      43.038   6.112  11.055  0.00  0.00    +0.000 C 
ENDROOT
BRANCH   1   8
ATOM      4  C   UNL     1      46.590   2.752   7.485  0.00  0.00    +0.000 A 
ATOM      5  C   UNL     1      46.252   4.087   7.678  0.00  0.00    +0.000 A 
ATOM      6  C   UNL     1      45.363   4.425   8.699  0.00  0.00    +0.000 A 
ATOM      7  C   UNL     1      44.823   3.428   9.503  0.00  0.00    +0.000 A 
ATOM      8  N   UNL     1      43.854   3.675  10.481  0.00  0.00    +0.000 N 
ATOM      9  N   UNL     1      45.137   2.127   9.318  0.00  0.00    +0.000 NA
ATOM     10  C   UNL     1      46.004   1.814   8.321  0.00  0.00    +0.000 A 
ATOM     11  H   UNL     1      43.716   2.781  10.951  0.00  0.00    +0.000 HD
BRANCH   4  13
ATOM     12  N   UNL     1      47.461   2.974   5.227  0.00  0.00    +0.000 N 
ATOM     13  C   UNL     1      47.503   2.298   6.415  0.00  0.00    +0.000 C 
ATOM     14  O   UNL     1      48.273   1.366   6.586  0.00  0.00    +0.000 OA
ATOM     15  H   UNL     1      48.154   2.711   4.539  0.00  0.00    +0.000 HD
ATOM     16  H   UNL     1      47.034   3.885   5.135  0.00  0.00    +0.000 HD
ENDBRANCH   4  13
ENDBRANCH   1   8
BRANCH   1  17
ATOM     17  C   UNL     1      45.118   5.020  12.174  0.00  0.00    +0.000 A 
ATOM     18  C   UNL     1      45.611   4.007  13.007  0.00  0.00    +0.000 A 
ATOM     19  C   UNL     1      46.824   4.152  13.681  0.00  0.00    +0.000 A 
ATOM     20  C   UNL     1      47.586   5.310  13.507  0.00  0.00    +0.000 A 
ATOM     21  C   UNL     1      47.155   6.342  12.659  0.00  0.00    +0.000 A 
ATOM     22  C   UNL     1      45.901   6.183  12.038  0.00  0.00    +0.000 A 
BRANCH  21  23
ATOM     23  C   UNL     1      48.018   7.499  12.326  0.00  0.00    +0.000 A 
ATOM     24  C   UNL     1      49.377   7.314  12.013  0.00  0.00    +0.000 A 
ATOM     25  C   UNL     1      50.180   8.372  11.581  0.00  0.00    +0.000 A 
ATOM     26  C   UNL     1      49.638   9.646  11.447  0.00  0.00    +0.000 A 
ATOM     27  C   UNL     1      48.302   9.864  11.769  0.00  0.00    +0.000 A 
ATOM     28  C   UNL     1      47.505   8.804  12.215  0.00  0.00    +0.000 A 
ENDBRANCH  21  23
ENDBRANCH   1  17
TORSDOF 4
ENDMDL
MODEL 2
REMARK VINA RESULT:    -8.780      1.545      3.323
REMARK INTER + INTRA:         -12.079
REMARK INTER:                 -11.430
REMARK INTRA:                  -0.649
REMARK UNBOUND:                -1.246
REMARK  Name = 
REMARK  4 active torsions:
REMARK  status: ('A' for Active; 'I' for Inactive)
REMARK    1  A    between atoms: C_2  and  C_4
REMARK    2  A    between atoms: N_8  and  C_9
REMARK    3  A    between atoms: C_9  and  C_10
REMARK    4  A    between atoms: C_14  and  C_15
REMARK                            x       y       z     vdW  Elec       q    Type
REMARK                         _______ _______ _______ _____ _____    ______ ____
ROOT
ATOM      1  C   UNL     1      43.918   4.881  11.509  0.00  0.00    +0.000 C 
ATOM      2  C   UNL     1      42.759   4.944  12.494  0.00  0.00    +0.000 C 
ATOM      3  C   UNL     1      42.836   5.937  11.384  0.00  0.00    +0.000 C 
ENDROOT
BRANCH   1   8
ATOM      4  C   UNL     1      46.506   2.782   7.516  0.00  0.00    +0.000 A 
ATOM      5  C   UNL     1      46.083   4.098   7.676  0.00  0.00    +0.000 A 
ATOM      6  C   UNL     1      45.256   4.423   8.752  0.00  0.00    +0.000 A 
ATOM      7  C   UNL     1      44.859   3.432   9.642  0.00  0.00    +0.000 A 
ATOM      8  N   UNL     1      43.955   3.659  10.685  0.00  0.00    +0.000 N 
ATOM      9  N   UNL     1      45.256   2.149   9.491  0.00  0.00    +0.000 NA
ATOM     10  C   UNL     1      46.062   1.849   8.440  0.00  0.00    +0.000 A 
ATOM     11  H   UNL     1      43.924   2.782  11.205  0.00  0.00    +0.000 HD
BRANCH   4  13
ATOM     12  N   UNL     1      47.233   3.008   5.208  0.00  0.00    +0.000 N 
ATOM     13  C   UNL     1      47.362   2.342   6.396  0.00  0.00    +0.000 C 
ATOM     14  O   UNL     1      48.163   1.428   6.525  0.00  0.00    +0.000 OA
ATOM     15  H   UNL     1      47.889   2.755   4.481  0.00  0.00    +0.000 HD
ATOM     16  H   UNL     1      46.780   3.908   5.137  0.00  0.00    +0.000 HD
ENDBRANCH   4  13
ENDBRANCH   1   8
BRANCH   1  17
ATOM     17  C   UNL     1      45.301   5.340  11.965  0.00  0.00    +0.000 A 
ATOM     18  C   UNL     1      46.016   6.343  11.297  0.00  0.00    +0.000 A 
ATOM     19  C   UNL     1      47.245   6.796  11.779  0.00  0.00    +0.000 A 
ATOM     20  C   UNL     1      47.768   6.272  12.963  0.00  0.00    +0.000 A 
ATOM     21  C   UNL     1      47.078   5.288  13.689  0.00  0.00    +0.000 A 
ATOM     22  C   UNL     1      45.868   4.818  13.144  0.00  0.00    +0.000 A 
BRANCH  21  23
ATOM     23  C   UNL     1      47.524   4.840  15.028  0.00  0.00    +0.000 A 
ATOM     24  C   UNL     1      47.345   3.505  15.435  0.00  0.00    +0.000 A 
ATOM     25  C   UNL     1      47.863   3.032  16.643  0.00  0.00    +0.000 A 
ATOM     26  C   UNL     1      48.578   3.886  17.475  0.00  0.00    +0.000 A 
ATOM     27  C   UNL     1      48.753   5.217  17.110  0.00  0.00    +0.000 A 
ATOM     28  C   UNL     1      48.221   5.691  15.905  0.00  0.00    +0.000 A 
ENDBRANCH  21  23
ENDBRANCH   1  17
TORSDOF 4
ENDMDL
MODEL 3
REMARK VINA RESULT:    -6.835      4.669      8.238
REMARK INTER + INTRA:          -9.679
REMARK INTER:                  -8.578
REMARK INTRA:                  -1.101
REMARK UNBOUND:                -1.246
REMARK  Name = 
REMARK  4 active torsions:
REMARK  status: ('A' for Active; 'I' for Inactive)
REMARK    1  A    between atoms: C_2  and  C_4
REMARK    2  A    between atoms: N_8  and  C_9
REMARK    3  A    between atoms: C_9  and  C_10
REMARK    4  A    between atoms: C_14  and  C_15
REMARK                            x       y       z     vdW  Elec       q    Type
REMARK                         _______ _______ _______ _____ _____    ______ ____
ROOT
ATOM      1  C   UNL     1      48.993   7.890  12.614  0.00  0.00    +0.000 C 
ATOM      2  C   UNL     1      49.984   8.099  11.478  0.00  0.00    +0.000 C 
ATOM      3  C   UNL     1      49.638   9.241  12.371  0.00  0.00    +0.000 C 
ENDROOT
BRANCH   1   8
ATOM      4  C   UNL     1      48.344   6.851  17.668  0.00  0.00    +0.000 A 
ATOM      5  C   UNL     1      48.460   8.092  17.050  0.00  0.00    +0.000 A 
ATOM      6  C   UNL     1      48.794   8.150  15.696  0.00  0.00    +0.000 A 
ATOM      7  C   UNL     1      49.015   6.974  14.988  0.00  0.00    +0.000 A 
ATOM      8  N   UNL     1      49.448   6.953  13.658  0.00  0.00    +0.000 N 
ATOM      9  N   UNL     1      48.915   5.765  15.582  0.00  0.00    +0.000 NA
ATOM     10  C   UNL     1      48.586   5.724  16.899  0.00  0.00    +0.000 A 
ATOM     11  H   UNL     1      49.441   5.968  13.392  0.00  0.00    +0.000 HD
BRANCH   4  13
ATOM     12  N   UNL     1      47.101   5.732  19.432  0.00  0.00    +0.000 N 
ATOM     13  C   UNL     1      48.016   6.693  19.101  0.00  0.00    +0.000 C 
ATOM     14  O   UNL     1      48.548   7.383  19.957  0.00  0.00    +0.000 OA
ATOM     15  H   UNL     1      46.957   5.574  20.421  0.00  0.00    +0.000 HD
ATOM     16  H   UNL     1      46.838   4.991  18.798  0.00  0.00    +0.000 HD
ENDBRANCH   4  13
ENDBRANCH   1   8
BRANCH   1  17
ATOM     17  C   UNL     1      47.509   7.747  12.286  0.00  0.00    +0.000 A 
ATOM     18  C   UNL     1      46.596   8.792  12.474  0.00  0.00    +0.000 A 
ATOM     19  C   UNL     1      45.259   8.660  12.095  0.00  0.00    +0.000 A 
ATOM     20  C   UNL     1      44.818   7.483  11.487  0.00  0.00    +0.000 A 
ATOM     21  C   UNL     1      45.699   6.417  11.245  0.00  0.00    +0.000 A 
ATOM     22  C   UNL     1      47.026   6.566  11.689  0.00  0.00    +0.000 A 
BRANCH  21  23
ATOM     23  C   UNL     1      45.300   5.230  10.453  0.00  0.00    +0.000 A 
ATOM     24  C   UNL     1      45.712   5.089   9.115  0.00  0.00    +0.000 A 
ATOM     25  C   UNL     1      45.449   3.926   8.387  0.00  0.00    +0.000 A 
ATOM     26  C   UNL     1      44.766   2.872   8.983  0.00  0.00    +0.000 A 
ATOM     27  C   UNL     1      44.327   2.991  10.298  0.00  0.00    +0.000 A 
ATOM     28  C   UNL     1      44.581   4.162  11.020  0.00  0.00    +0.000 A 
ENDBRANCH  21  23
ENDBRANCH   1  17
TORSDOF 4
ENDMDL
MODEL 4
REMARK VINA RESULT:    -6.684      4.050      7.500
REMARK INTER + INTRA:          -9.493
REMARK INTER:                  -9.368
REMARK INTRA:                  -0.125
REMARK UNBOUND:                -1.246
REMARK  Name = 
REMARK  4 active torsions:
REMARK  status: ('A' for Active; 'I' for Inactive)
REMARK    1  A    between atoms: C_2  and  C_4
REMARK    2  A    between atoms: N_8  and  C_9
REMARK    3  A    between atoms: C_9  and  C_10
REMARK    4  A    between atoms: C_14  and  C_15
REMARK                            x       y       z     vdW  Elec       q    Type
REMARK                         _______ _______ _______ _____ _____    ______ ____
ROOT
ATOM      1  C   UNL     1      48.664   7.783  12.718  0.00  0.00    +0.000 C 
ATOM      2  C   UNL     1      49.761   7.143  11.879  0.00  0.00    +0.000 C 
ATOM      3  C   UNL     1      49.559   8.619  11.824  0.00  0.00    +0.000 C 
ENDROOT
BRANCH   1   8
ATOM      4  C   UNL     1      48.086   4.373  16.602  0.00  0.00    +0.000 A 
ATOM      5  C   UNL     1      47.231   4.616  15.532  0.00  0.00    +0.000 A 
ATOM      6  C   UNL     1      47.491   5.693  14.683  0.00  0.00    +0.000 A 
ATOM      7  C   UNL     1      48.589   6.511  14.920  0.00  0.00    +0.000 A 
ATOM      8  N   UNL     1      48.860   7.663  14.175  0.00  0.00    +0.000 N 
ATOM      9  N   UNL     1      49.420   6.289  15.962  0.00  0.00    +0.000 NA
ATOM     10  C   UNL     1      49.156   5.236  16.778  0.00  0.00    +0.000 A 
ATOM     11  H   UNL     1      49.757   7.999  14.522  0.00  0.00    +0.000 HD
BRANCH   4  13
ATOM     12  N   UNL     1      48.922   2.955  18.391  0.00  0.00    +0.000 N 
ATOM     13  C   UNL     1      47.878   3.272  17.565  0.00  0.00    +0.000 C 
ATOM     14  O   UNL     1      46.815   2.674  17.632  0.00  0.00    +0.000 OA
ATOM     15  H   UNL     1      48.733   2.263  19.104  0.00  0.00    +0.000 HD
ATOM     16  H   UNL     1      49.706   3.576  18.537  0.00  0.00    +0.000 HD
ENDBRANCH   4  13
ENDBRANCH   1   8
BRANCH   1  17
ATOM     17  C   UNL     1      47.209   7.606  12.292  0.00  0.00    +0.000 A 
ATOM     18  C   UNL     1      46.262   8.631  12.414  0.00  0.00    +0.000 A 
ATOM     19  C   UNL     1      44.957   8.468  11.947  0.00  0.00    +0.000 A 
ATOM     20  C   UNL     1      44.583   7.279  11.317  0.00  0.00    +0.000 A 
ATOM     21  C   UNL     1      45.501   6.232  11.139  0.00  0.00    +0.000 A 
ATOM     22  C   UNL     1      46.792   6.412  11.670  0.00  0.00    +0.000 A 
BRANCH  21  23
ATOM     23  C   UNL     1      45.182   5.035  10.328  0.00  0.00    +0.000 A 
ATOM     24  C   UNL     1      45.649   4.918   9.006  0.00  0.00    +0.000 A 
ATOM     25  C   UNL     1      45.462   3.750   8.263  0.00  0.00    +0.000 A 
ATOM     26  C   UNL     1      44.803   2.665   8.829  0.00  0.00    +0.000 A 
ATOM     27  C   UNL     1      44.311   2.758  10.127  0.00  0.00    +0.000 A 
ATOM     28  C   UNL     1      44.488   3.934  10.863  0.00  0.00    +0.000 A 
ENDBRANCH  21  23
ENDBRANCH   1  17
TORSDOF 4
ENDMDL
MODEL 5
REMARK VINA RESULT:    -6.461      3.487      5.927
REMARK INTER + INTRA:          -9.217
REMARK INTER:                  -8.694
REMARK INTRA:                  -0.524
REMARK UNBOUND:                -1.246
REMARK  Name = 
REMARK  4 active torsions:
REMARK  status: ('A' for Active; 'I' for Inactive)
REMARK    1  A    between atoms: C_2  and  C_4
REMARK    2  A    between atoms: N_8  and  C_9
REMARK    3  A    between atoms: C_9  and  C_10
REMARK    4  A    between atoms: C_14  and  C_15
REMARK                            x       y       z     vdW  Elec       q    Type
REMARK                         _______ _______ _______ _____ _____    ______ ____
ROOT
ATOM      1  C   UNL     1      47.361   8.285  13.216  0.00  0.00    +0.000 C 
ATOM      2  C   UNL     1      47.553   9.573  12.427  0.00  0.00    +0.000 C 
ATOM      3  C   UNL     1      48.230   8.325  11.972  0.00  0.00    +0.000 C 
ENDROOT
BRANCH   1   8
ATOM      4  C   UNL     1      44.567   4.205  11.606  0.00  0.00    +0.000 A 
ATOM      5  C   UNL     1      45.586   4.873  10.935  0.00  0.00    +0.000 A 
ATOM      6  C   UNL     1      46.100   6.052  11.476  0.00  0.00    +0.000 A 
ATOM      7  C   UNL     1      45.585   6.548  12.668  0.00  0.00    +0.000 A 
ATOM      8  N   UNL     1      45.980   7.770  13.221  0.00  0.00    +0.000 N 
ATOM      9  N   UNL     1      44.590   5.912  13.323  0.00  0.00    +0.000 NA
ATOM     10  C   UNL     1      44.101   4.764  12.786  0.00  0.00    +0.000 A 
ATOM     11  H   UNL     1      45.500   7.822  14.119  0.00  0.00    +0.000 HD
BRANCH   4  13
ATOM     12  N   UNL     1      44.535   2.365  10.019  0.00  0.00    +0.000 N 
ATOM     13  C   UNL     1      43.946   2.964  11.098  0.00  0.00    +0.000 C 
ATOM     14  O   UNL     1      42.954   2.484  11.626  0.00  0.00    +0.000 OA
ATOM     15  H   UNL     1      44.153   1.470   9.742  0.00  0.00    +0.000 HD
ATOM     16  H   UNL     1      45.476   2.584   9.723  0.00  0.00    +0.000 HD
ENDBRANCH   4  13
ENDBRANCH   1   8
BRANCH   1  17
ATOM     17  C   UNL     1      48.065   8.131  14.562  0.00  0.00    +0.000 A 
ATOM     18  C   UNL     1      48.258   9.209  15.435  0.00  0.00    +0.000 A 
ATOM     19  C   UNL     1      48.837   9.026  16.691  0.00  0.00    +0.000 A 
ATOM     20  C   UNL     1      49.206   7.746  17.112  0.00  0.00    +0.000 A 
ATOM     21  C   UNL     1      49.005   6.627  16.289  0.00  0.00    +0.000 A 
ATOM     22  C   UNL     1      48.468   6.857  15.009  0.00  0.00    +0.000 A 
BRANCH  21  23
ATOM     23  C   UNL     1      49.228   5.244  16.774  0.00  0.00    +0.000 A 
ATOM     24  C   UNL     1      48.237   4.259  16.613  0.00  0.00    +0.000 A 
ATOM     25  C   UNL     1      48.470   2.924  16.953  0.00  0.00    +0.000 A 
ATOM     26  C   UNL     1      49.706   2.541  17.462  0.00  0.00    +0.000 A 
ATOM     27  C   UNL     1      50.698   3.497  17.652  0.00  0.00    +0.000 A 
ATOM     28  C   UNL     1      50.457   4.836  17.322  0.00  0.00    +0.000 A 
ENDBRANCH  21  23
ENDBRANCH   1  17
TORSDOF 4
ENDMDL
