MODEL 1
REMARK VINA RESULT:    -8.155      0.000      0.000
REMARK INTER + INTRA:         -10.694
REMARK INTER:                 -10.062
REMARK INTRA:                  -0.632
REMARK UNBOUND:                -0.632
REMARK  Name = 
REMARK  4 active torsions:
REMARK  status: ('A' for Active; 'I' for Inactive)
REMARK    1  A    between atoms: C_2  and  C_4
REMARK    2  A    between atoms: C_7  and  N_8
REMARK    3  A    between atoms: N_8  and  C_9
REMARK    4  A    between atoms: C_9  and  C_10
REMARK                            x       y       z     vdW  Elec       q    Type
REMARK                         _______ _______ _______ _____ _____    ______ ____
ROOT
ATOM      1  C   UNL     1      46.543   2.722   7.516  0.00  0.00    +0.000 A 
ATOM      2  C   UNL     1      46.137   4.049   7.679  0.00  0.00    +0.000 A 
ATOM      3  C   UNL     1      45.190   4.377   8.658  0.00  0.00    +0.000 A 
ATOM      4  C   UNL     1      44.649   3.392   9.487  0.00  0.00    +0.000 A 
ATOM      5  C   UNL     1      45.084   2.068   9.330  0.00  0.00    +0.000 A 
ATOM      6  C   UNL     1      46.007   1.729   8.343  0.00  0.00    +0.000 A 
ENDROOT
BRANCH   1   8
ATOM      7  N   UNL     1      47.521   3.020   5.301  0.00  0.00    +0.000 N 
ATOM      8  C   UNL     1      47.515   2.310   6.468  0.00  0.00    +0.000 C 
ATOM      9  O   UNL     1      48.308   1.394   6.651  0.00  0.00    +0.000 OA
ATOM     10  H   UNL     1      48.255   2.787   4.644  0.00  0.00    +0.000 HD
ATOM     11  H   UNL     1      47.073   3.920   5.209  0.00  0.00    +0.000 HD
ENDBRANCH   1   8
BRANCH   4  12
ATOM     12  N   UNL     1      43.730   3.654  10.527  0.00  0.00    +0.000 N 
ATOM     13  H   UNL     1      43.544   2.786  11.025  0.00  0.00    +0.000 HD
BRANCH  12  14
ATOM     14  C   UNL     1      43.842   4.846  11.409  0.00  0.00    +0.000 C 
ATOM     15  C   UNL     1      42.557   5.209  12.143  0.00  0.00    +0.000 C 
ATOM     16  C   UNL     1      43.080   6.116  11.074  0.00  0.00    +0.000 C 
BRANCH  14  17
ATOM     17  C   UNL     1      45.173   4.984  12.166  0.00  0.00    +0.000 A 
ATOM     18  C   UNL     1      46.033   6.054  11.901  0.00  0.00    +0.000 A 
ATOM     19  C   UNL     1      47.187   6.225  12.663  0.00  0.00    +0.000 A 
ATOM     20  C   UNL     1      47.478   5.313  13.667  0.00  0.00    +0.000 A 
ATOM     21  C   UNL     1      46.605   4.260  13.857  0.00  0.00    +0.000 A 
ATOM     22  N   UNL     1      45.474   4.081  13.141  0.00  0.00    +0.000 NA
ENDBRANCH  14  17
ENDBRANCH  12  14
ENDBRANCH   4  12
TORSDOF 4
ENDMDL
MODEL 2
REMARK VINA RESULT:    -6.460      3.198      6.410
REMARK INTER + INTRA:          -8.603
REMARK INTER:                  -8.253
REMARK INTRA:                  -0.350
REMARK UNBOUND:                -0.632
REMARK  Name = 
REMARK  4 active torsions:
REMARK  status: ('A' for Active; 'I' for Inactive)
REMARK    1  A    between atoms: C_2  and  C_4
REMARK    2  A    between atoms: C_7  and  N_8
REMARK    3  A    between atoms: N_8  and  C_9
REMARK    4  A    between atoms: C_9  and  C_10
REMARK                            x       y       z     vdW  Elec       q    Type
REMARK                         _______ _______ _______ _____ _____    ______ ____
ROOT
ATOM      1  C   UNL     1      47.289   7.993  13.517  0.00  0.00    +0.000 A 
ATOM      2  C   UNL     1      47.634   6.740  13.004  0.00  0.00    +0.000 A 
ATOM      3  C   UNL     1      46.765   6.076  12.129  0.00  0.00    +0.000 A 
ATOM      4  C   UNL     1      45.553   6.658  11.749  0.00  0.00    +0.000 A 
ATOM      5  C   UNL     1      45.230   7.926  12.251  0.00  0.00    +0.000 A 
ATOM      6  C   UNL     1      46.077   8.583  13.141  0.00  0.00    +0.000 A 
ENDROOT
BRANCH   1   8
ATOM      7  N   UNL     1      47.565   9.202  15.618  0.00  0.00    +0.000 N 
ATOM      8  C   UNL     1      48.154   8.725  14.481  0.00  0.00    +0.000 C 
ATOM      9  O   UNL     1      49.355   8.866  14.288  0.00  0.00    +0.000 OA
ATOM     10  H   UNL     1      48.191   9.608  16.303  0.00  0.00    +0.000 HD
ATOM     11  H   UNL     1      46.657   8.894  15.931  0.00  0.00    +0.000 HD
ENDBRANCH   1   8
BRANCH   4  12
ATOM     12  N   UNL     1      44.651   6.074  10.833  0.00  0.00    +0.000 N 
ATOM     13  H   UNL     1      44.804   6.487   9.915  0.00  0.00    +0.000 HD
BRANCH  12  14
ATOM     14  C   UNL     1      44.381   4.611  10.801  0.00  0.00    +0.000 C 
ATOM     15  C   UNL     1      42.976   4.220  11.242  0.00  0.00    +0.000 C 
ATOM     16  C   UNL     1      44.149   3.851  12.094  0.00  0.00    +0.000 C 
BRANCH  14  17
ATOM     17  C   UNL     1      45.009   3.851   9.622  0.00  0.00    +0.000 A 
ATOM     18  C   UNL     1      45.626   4.546   8.577  0.00  0.00    +0.000 A 
ATOM     19  C   UNL     1      46.280   3.844   7.566  0.00  0.00    +0.000 A 
ATOM     20  C   UNL     1      46.293   2.458   7.601  0.00  0.00    +0.000 A 
ATOM     21  C   UNL     1      45.639   1.831   8.643  0.00  0.00    +0.000 A 
ATOM     22  N   UNL     1      45.010   2.489   9.641  0.00  0.00    +0.000 NA
ENDBRANCH  14  17
ENDBRANCH  12  14
ENDBRANCH   4  12
TORSDOF 4
ENDMDL
MODEL 3
REMARK VINA RESULT:    -6.174      3.317      6.147
REMARK INTER + INTRA:          -8.250
REMARK INTER:                  -7.771
REMARK INTRA:                  -0.479
REMARK UNBOUND:                -0.632
REMARK  Name = 
REMARK  4 active torsions:
REMARK  status: ('A' for Active; 'I' for Inactive)
REMARK    1  A    between atoms: C_2  and  C_4
REMARK    2  A    between atoms: C_7  and  N_8
REMARK    3  A    between atoms: N_8  and  C_9
REMARK    4  A    between atoms: C_9  and  C_10
REMARK                            x       y       z     vdW  Elec       q    Type
REMARK                         _______ _______ _______ _____ _____    ______ ____
ROOT
ATOM      1  C   UNL     1      47.903   7.865  13.424  0.00  0.00    +0.000 A 
ATOM      2  C   UNL     1      46.713   8.597  13.481  0.00  0.00    +0.000 A 
ATOM      3  C   UNL     1      45.625   8.230  12.679  0.00  0.00    +0.000 A 
ATOM      4  C   UNL     1      45.708   7.129  11.823  0.00  0.00    +0.000 A 
ATOM      5  C   UNL     1      46.898   6.388  11.794  0.00  0.00    +0.000 A 
ATOM      6  C   UNL     1      47.994   6.760  12.570  0.00  0.00    +0.000 A 
ENDROOT
BRANCH   1   8
ATOM      7  N   UNL     1      50.179   7.392  14.165  0.00  0.00    +0.000 N 
ATOM      8  C   UNL     1      49.102   8.232  14.223  0.00  0.00    +0.000 C 
ATOM      9  O   UNL     1      49.146   9.265  14.880  0.00  0.00    +0.000 OA
ATOM     10  H   UNL     1      51.016   7.712  14.635  0.00  0.00    +0.000 HD
ATOM     11  H   UNL     1      50.278   6.683  13.454  0.00  0.00    +0.000 HD
ENDBRANCH   1   8
BRANCH   4  12
ATOM     12  N   UNL     1      44.638   6.670  11.024  0.00  0.00    +0.000 N 
ATOM     13  H   UNL     1      44.786   6.985  10.067  0.00  0.00    +0.000 HD
BRANCH  12  14
ATOM     14  C   UNL     1      44.099   5.287  11.129  0.00  0.00    +0.000 C 
ATOM     15  C   UNL     1      42.639   5.211  11.558  0.00  0.00    +0.000 C 
ATOM     16  C   UNL     1      43.709   4.723  12.483  0.00  0.00    +0.000 C 
BRANCH  14  17
ATOM     17  C   UNL     1      44.592   4.304  10.055  0.00  0.00    +0.000 A 
ATOM     18  C   UNL     1      45.311   4.765   8.948  0.00  0.00    +0.000 A 
ATOM     19  C   UNL     1      45.840   3.855   8.034  0.00  0.00    +0.000 A 
ATOM     20  C   UNL     1      45.627   2.498   8.227  0.00  0.00    +0.000 A 
ATOM     21  C   UNL     1      44.882   2.110   9.323  0.00  0.00    +0.000 A 
ATOM     22  N   UNL     1      44.371   2.971  10.230  0.00  0.00    +0.000 NA
ENDBRANCH  14  17
ENDBRANCH  12  14
ENDBRANCH   4  12
TORSDOF 4
ENDMDL
MODEL 4
REMARK VINA RESULT:    -6.018      2.942      6.442
REMARK INTER + INTRA:          -8.057
REMARK INTER:                  -7.963
REMARK INTRA:                  -0.095
REMARK UNBOUND:                -0.632
REMARK  Name = 
REMARK  4 active torsions:
REMARK  status: ('A' for Active; 'I' for Inactive)
REMARK    1  A    between atoms: C_2  and  C_4
REMARK    2  A    between atoms: C_7  and  N_8
REMARK    3  A    between atoms: N_8  and  C_9
REMARK    4  A    between atoms: C_9  and  C_10
REMARK                            x       y       z     vdW  Elec       q    Type
REMARK                         _______ _______ _______ _____ _____    ______ ____
ROOT
ATOM      1  C   UNL     1      47.672   5.315  15.085  0.00  0.00    +0.000 A 
ATOM      2  C   UNL     1      46.830   4.291  14.642  0.00  0.00    +0.000 A 
ATOM      3  C   UNL     1      46.127   4.434  13.439  0.00  0.00    +0.000 A 
ATOM      4  C   UNL     1      46.262   5.589  12.665  0.00  0.00    +0.000 A 
ATOM      5  C   UNL     1      47.129   6.597  13.108  0.00  0.00    +0.000 A 
ATOM      6  C   UNL     1      47.814   6.474  14.315  0.00  0.00    +0.000 A 
ENDROOT
BRANCH   1   8
ATOM      7  N   UNL     1      48.062   6.117  17.356  0.00  0.00    +0.000 N 
ATOM      8  C   UNL     1      48.412   5.235  16.373  0.00  0.00    +0.000 C 
ATOM      9  O   UNL     1      49.278   4.390  16.566  0.00  0.00    +0.000 OA
ATOM     10  H   UNL     1      48.509   5.980  18.254  0.00  0.00    +0.000 HD
ATOM     11  H   UNL     1      47.203   6.646  17.332  0.00  0.00    +0.000 HD
ENDBRANCH   1   8
BRANCH   4  12
ATOM     12  N   UNL     1      45.626   5.781  11.419  0.00  0.00    +0.000 N 
ATOM     13  H   UNL     1      46.319   6.095  10.743  0.00  0.00    +0.000 HD
BRANCH  12  14
ATOM     14  C   UNL     1      44.638   4.815  10.869  0.00  0.00    +0.000 C 
ATOM     15  C   UNL     1      43.207   5.339  10.815  0.00  0.00    +0.000 C 
ATOM     16  C   UNL     1      43.557   4.237  11.765  0.00  0.00    +0.000 C 
BRANCH  14  17
ATOM     17  C   UNL     1      45.140   3.953   9.700  0.00  0.00    +0.000 A 
ATOM     18  C   UNL     1      45.727   4.548   8.579  0.00  0.00    +0.000 A 
ATOM     19  C   UNL     1      46.269   3.752   7.573  0.00  0.00    +0.000 A 
ATOM     20  C   UNL     1      46.202   2.372   7.688  0.00  0.00    +0.000 A 
ATOM     21  C   UNL     1      45.582   1.846   8.804  0.00  0.00    +0.000 A 
ATOM     22  N   UNL     1      45.060   2.596   9.799  0.00  0.00    +0.000 NA
ENDBRANCH  14  17
ENDBRANCH  12  14
ENDBRANCH   4  12
TORSDOF 4
ENDMDL
MODEL 5
REMARK VINA RESULT:    -5.762      2.522      4.349
REMARK INTER + INTRA:          -7.742
REMARK INTER:                  -7.576
REMARK INTRA:                  -0.165
REMARK UNBOUND:                -0.632
REMARK  Name = 
REMARK  4 active torsions:
REMARK  status: ('A' for Active; 'I' for Inactive)
REMARK    1  A    between atoms: C_2  and  C_4
REMARK    2  A    between atoms: C_7  and  N_8
REMARK    3  A    between atoms: N_8  and  C_9
REMARK    4  A    between atoms: C_9  and  C_10
REMARK                            x       y       z     vdW  Elec       q    Type
REMARK                         _______ _______ _______ _____ _____    ______ ____
ROOT
ATOM      1  C   UNL     1      45.002   3.821  10.223  0.00  0.00    +0.000 A 
ATOM      2  C   UNL     1      45.373   5.155  10.035  0.00  0.00    +0.000 A 
ATOM      3  C   UNL     1      45.726   5.946  11.137  0.00  0.00    +0.000 A 
ATOM      4  C   UNL     1      45.721   5.414  12.429  0.00  0.00    +0.000 A 
ATOM      5  C   UNL     1      45.371   4.068  12.600  0.00  0.00    +0.000 A 
ATOM      6  C   UNL     1      44.996   3.280  11.513  0.00  0.00    +0.000 A 
ENDROOT
BRANCH   1   8
ATOM      7  N   UNL     1      44.268   3.552   7.911  0.00  0.00    +0.000 N 
ATOM      8  C   UNL     1      44.580   2.946   9.096  0.00  0.00    +0.000 C 
ATOM      9  O   UNL     1      44.548   1.726   9.206  0.00  0.00    +0.000 OA
ATOM     10  H   UNL     1      44.081   2.933   7.133  0.00  0.00    +0.000 HD
ATOM     11  H   UNL     1      44.521   4.507   7.706  0.00  0.00    +0.000 HD
ENDBRANCH   1   8
BRANCH   4  12
ATOM     12  N   UNL     1      46.112   6.134  13.578  0.00  0.00    +0.000 N 
ATOM     13  H   UNL     1      45.477   5.904  14.340  0.00  0.00    +0.000 HD
BRANCH  12  14
ATOM     14  C   UNL     1      47.534   6.262  13.995  0.00  0.00    +0.000 C 
ATOM     15  C   UNL     1      48.114   7.663  13.835  0.00  0.00    +0.000 C 
ATOM     16  C   UNL     1      48.608   6.553  12.961  0.00  0.00    +0.000 C 
BRANCH  14  17
ATOM     17  C   UNL     1      47.933   5.449  15.237  0.00  0.00    +0.000 A 
ATOM     18  C   UNL     1      47.193   4.326  15.618  0.00  0.00    +0.000 A 
ATOM     19  C   UNL     1      47.623   3.539  16.684  0.00  0.00    +0.000 A 
ATOM     20  C   UNL     1      48.775   3.894  17.369  0.00  0.00    +0.000 A 
ATOM     21  C   UNL     1      49.445   5.031  16.962  0.00  0.00    +0.000 A 
ATOM     22  N   UNL     1      49.055   5.803  15.924  0.00  0.00    +0.000 NA
ENDBRANCH  14  17
ENDBRANCH  12  14
ENDBRANCH   4  12
TORSDOF 4
ENDMDL
MODEL 6
REMARK VINA RESULT:    -5.659      3.353      5.159
REMARK INTER + INTRA:          -7.615
REMARK INTER:                  -7.129
REMARK INTRA:                  -0.487
REMARK UNBOUND:                -0.632
REMARK  Name = 
REMARK  4 active torsions:
REMARK  status: ('A' for Active; 'I' for Inactive)
REMARK    1  A    between atoms: C_2  and  C_4
REMARK    2  A    between atoms: C_7  and  N_8
REMARK    3  A    between atoms: N_8  and  C_9
REMARK    4  A    between atoms: C_9  and  C_10
REMARK                            x       y       z     vdW  Elec       q    Type
REMARK                         _______ _______ _______ _____ _____    ______ ____
ROOT
ATOM      1  C   UNL     1      44.529   4.102  11.542  0.00  0.00    +0.000 A 
ATOM      2  C   UNL     1      44.423   5.307  10.841  0.00  0.00    +0.000 A 
ATOM      3  C   UNL     1      44.970   6.480  11.376  0.00  0.00    +0.000 A 
ATOM      4  C   UNL     1      45.635   6.463  12.605  0.00  0.00    +0.000 A 
ATOM      5  C   UNL     1      45.757   5.244  13.286  0.00  0.00    +0.000 A 
ATOM      6  C   UNL     1      45.194   4.076  12.773  0.00  0.00    +0.000 A 
ENDROOT
BRANCH   1   8
ATOM      7  N   UNL     1      44.490   2.275   9.926  0.00  0.00    +0.000 N 
ATOM      8  C   UNL     1      43.934   2.835  11.042  0.00  0.00    +0.000 C 
ATOM      9  O   UNL     1      43.004   2.287  11.623  0.00  0.00    +0.000 OA
ATOM     10  H   UNL     1      44.134   1.365   9.663  0.00  0.00    +0.000 HD
ATOM     11  H   UNL     1      45.395   2.548   9.574  0.00  0.00    +0.000 HD
ENDBRANCH   1   8
BRANCH   4  12
ATOM     12  N   UNL     1      46.254   7.593  13.181  0.00  0.00    +0.000 N 
ATOM     13  H   UNL     1      45.801   7.797  14.070  0.00  0.00    +0.000 HD
BRANCH  12  14
ATOM     14  C   UNL     1      47.731   7.770  13.201  0.00  0.00    +0.000 C 
ATOM     15  C   UNL     1      48.249   8.847  12.255  0.00  0.00    +0.000 C 
ATOM     16  C   UNL     1      48.558   7.409  11.981  0.00  0.00    +0.000 C 
BRANCH  14  17
ATOM     17  C   UNL     1      48.392   7.639  14.583  0.00  0.00    +0.000 A 
ATOM     18  C   UNL     1      48.342   8.696  15.497  0.00  0.00    +0.000 A 
ATOM     19  C   UNL     1      48.855   8.529  16.782  0.00  0.00    +0.000 A 
ATOM     20  C   UNL     1      49.429   7.317  17.131  0.00  0.00    +0.000 A 
ATOM     21  C   UNL     1      49.476   6.323  16.173  0.00  0.00    +0.000 A 
ATOM     22  N   UNL     1      48.973   6.456  14.926  0.00  0.00    +0.000 NA
ENDBRANCH  14  17
ENDBRANCH  12  14
ENDBRANCH   4  12
TORSDOF 4
ENDMDL
MODEL 7
REMARK VINA RESULT:    -5.184      4.580      7.860
REMARK INTER + INTRA:          -7.029
REMARK INTER:                  -6.373
REMARK INTRA:                  -0.656
REMARK UNBOUND:                -0.632
REMARK  Name = 
REMARK  4 active torsions:
REMARK  status: ('A' for Active; 'I' for Inactive)
REMARK    1  A    between atoms: C_2  and  C_4
REMARK    2  A    between atoms: C_7  and  N_8
REMARK    3  A    between atoms: N_8  and  C_9
REMARK    4  A    between atoms: C_9  and  C_10
REMARK                            x       y       z     vdW  Elec       q    Type
REMARK                         _______ _______ _______ _____ _____    ______ ____
ROOT
ATOM      1  C   UNL     1      48.051   5.086  17.661  0.00  0.00    +0.000 A 
ATOM      2  C   UNL     1      47.286   4.178  16.923  0.00  0.00    +0.000 A 
ATOM      3  C   UNL     1      47.148   4.341  15.539  0.00  0.00    +0.000 A 
ATOM      4  C   UNL     1      47.778   5.398  14.877  0.00  0.00    +0.000 A 
ATOM      5  C   UNL     1      48.564   6.285  15.625  0.00  0.00    +0.000 A 
ATOM      6  C   UNL     1      48.687   6.146  17.006  0.00  0.00    +0.000 A 
ENDROOT
BRANCH   1   8
ATOM      7  N   UNL     1      47.210   5.529  19.908  0.00  0.00    +0.000 N 
ATOM      8  C   UNL     1      48.200   4.986  19.137  0.00  0.00    +0.000 C 
ATOM      9  O   UNL     1      49.150   4.408  19.651  0.00  0.00    +0.000 OA
ATOM     10  H   UNL     1      47.282   5.362  20.904  0.00  0.00    +0.000 HD
ATOM     11  H   UNL     1      46.307   5.781  19.535  0.00  0.00    +0.000 HD
ENDBRANCH   1   8
BRANCH   4  12
ATOM     12  N   UNL     1      47.727   5.595  13.480  0.00  0.00    +0.000 N 
ATOM     13  H   UNL     1      48.048   4.747  13.018  0.00  0.00    +0.000 HD
BRANCH  12  14
ATOM     14  C   UNL     1      46.573   6.250  12.808  0.00  0.00    +0.000 C 
ATOM     15  C   UNL     1      46.959   7.297  11.770  0.00  0.00    +0.000 C 
ATOM     16  C   UNL     1      46.293   7.724  13.039  0.00  0.00    +0.000 C 
BRANCH  14  17
ATOM     17  C   UNL     1      45.380   5.330  12.501  0.00  0.00    +0.000 A 
ATOM     18  C   UNL     1      45.586   4.055  11.967  0.00  0.00    +0.000 A 
ATOM     19  C   UNL     1      44.506   3.193  11.788  0.00  0.00    +0.000 A 
ATOM     20  C   UNL     1      43.232   3.622  12.126  0.00  0.00    +0.000 A 
ATOM     21  C   UNL     1      43.091   4.904  12.620  0.00  0.00    +0.000 A 
ATOM     22  N   UNL     1      44.124   5.753  12.815  0.00  0.00    +0.000 NA
ENDBRANCH  14  17
ENDBRANCH  12  14
ENDBRANCH   4  12
TORSDOF 4
ENDMDL
