MODEL 1
REMARK VINA RESULT:    -7.124      0.000      0.000
REMARK INTER + INTRA:         -11.161
REMARK INTER:                 -10.039
REMARK INTRA:                  -1.122
REMARK UNBOUND:                -1.122
REMARK  Name = 
REMARK  8 active torsions:
REMARK  status: ('A' for Active; 'I' for Inactive)
REMARK    1  A    between atoms: C_1  and  O_2
REMARK    2  A    between atoms: O_2  and  C_3
REMARK    3  A    between atoms: C_8  and  C_9
REMARK    4  A    between atoms: N_11  and  C_12
REMARK    5  A    between atoms: C_12  and  C_13
REMARK    6  A    between atoms: C_16  and  C_17
REMARK    7  A    between atoms: C_17  and  N_18
REMARK    8  A    between atoms: C_19  and  C_21
REMARK                            x       y       z     vdW  Elec       q    Type
REMARK                         _______ _______ _______ _____ _____    ______ ____
ROOT
ATOM      1  C   UNL     1      51.506   2.889  17.719  0.00  0.00    +0.000 A 
ATOM      2  C   UNL     1      50.919   4.115  18.057  0.00  0.00    +0.000 A 
ATOM      3  C   UNL     1      49.554   4.343  17.838  0.00  0.00    +0.000 A 
ATOM      4  C   UNL     1      48.740   3.340  17.295  0.00  0.00    +0.000 A 
ATOM      5  C   UNL     1      49.327   2.113  16.957  0.00  0.00    +0.000 A 
ATOM      6  C   UNL     1      50.692   1.886  17.176  0.00  0.00    +0.000 A 
ENDROOT
BRANCH   1   7
ATOM      7  C   UNL     1      52.989   2.670  17.893  0.00  0.00    +0.000 C 
BRANCH   7  10
ATOM      8  C   UNL     1      54.575   0.902  17.233  0.00  0.00    +0.000 C 
ATOM      9  O   UNL     1      55.329   1.720  16.720  0.00  0.00    +0.000 OA
ATOM     10  N   UNL     1      53.383   1.284  17.837  0.00  0.00    +0.000 N 
ATOM     11  H   UNL     1      52.800   0.550  18.229  0.00  0.00    +0.000 HD
BRANCH   8  17
ATOM     12  C   UNL     1      54.855  -1.339  18.444  0.00  0.00    +0.000 A 
ATOM     13  C   UNL     1      55.109  -2.711  18.327  0.00  0.00    +0.000 A 
ATOM     14  C   UNL     1      55.368  -3.273  17.081  0.00  0.00    +0.000 A 
ATOM     15  C   UNL     1      55.360  -2.449  15.970  0.00  0.00    +0.000 A 
ATOM     16  N   UNL     1      55.106  -1.125  16.022  0.00  0.00    +0.000 NA
ATOM     17  C   UNL     1      54.850  -0.588  17.261  0.00  0.00    +0.000 A 
BRANCH  12  19
ATOM     18  C   UNL     1      55.507  -0.931  20.695  0.00  0.00    +0.000 C 
ATOM     19  O   UNL     1      54.570  -0.739  19.638  0.00  0.00    +0.000 OA
ENDBRANCH  12  19
ENDBRANCH   8  17
ENDBRANCH   7  10
ENDBRANCH   1   7
BRANCH   4  20
ATOM     20  C   UNL     1      47.273   3.582  17.039  0.00  0.00    +0.000 C 
BRANCH  20  21
ATOM     21  N   UNL     1      47.068   4.590  16.028  0.00  0.00    +0.000 N 
ATOM     22  C   UNL     1      47.113   4.277  14.692  0.00  0.00    +0.000 C 
ATOM     23  O   UNL     1      47.287   3.125  14.300  0.00  0.00    +0.000 OA
ATOM     24  H   UNL     1      47.152   5.559  16.318  0.00  0.00    +0.000 HD
BRANCH  22  25
ATOM     25  C   UNL     1      46.883   5.379  13.746  0.00  0.00    +0.000 A 
ATOM     26  C   UNL     1      47.908   6.277  13.477  0.00  0.00    +0.000 A 
ATOM     27  S   UNL     1      47.497   7.459  12.317  0.00  0.00    +0.000 S 
ATOM     28  C   UNL     1      45.917   6.846  12.171  0.00  0.00    +0.000 A 
ATOM     29  N   UNL     1      45.014   7.428  11.336  0.00  0.00    +0.000 NA
ATOM     30  C   UNL     1      43.844   6.883  11.351  0.00  0.00    +0.000 A 
ATOM     31  N   UNL     1      43.497   5.804  12.121  0.00  0.00    +0.000 N 
ATOM     32  C   UNL     1      44.381   5.166  12.959  0.00  0.00    +0.000 A 
ATOM     33  O   UNL     1      44.046   4.181  13.608  0.00  0.00    +0.000 OA
ATOM     34  C   UNL     1      45.710   5.746  12.987  0.00  0.00    +0.000 A 
ATOM     35  H   UNL     1      42.564   5.420  12.082  0.00  0.00    +0.000 HD
ENDBRANCH  22  25
ENDBRANCH  20  21
ENDBRANCH   4  20
TORSDOF 7
ENDMDL
MODEL 2
REMARK VINA RESULT:    -7.109      3.402      5.511
REMARK INTER + INTRA:         -11.140
REMARK INTER:                  -9.916
REMARK INTRA:                  -1.223
REMARK UNBOUND:                -1.122
REMARK  Name = 
REMARK  8 active torsions:
REMARK  status: ('A' for Active; 'I' for Inactive)
REMARK    1  A    between atoms: C_1  and  O_2
REMARK    2  A    between atoms: O_2  and  C_3
REMARK    3  A    between atoms: C_8  and  C_9
REMARK    4  A    between atoms: N_11  and  C_12
REMARK    5  A    between atoms: C_12  and  C_13
REMARK    6  A    between atoms: C_16  and  C_17
REMARK    7  A    between atoms: C_17  and  N_18
REMARK    8  A    between atoms: C_19  and  C_21
REMARK                            x       y       z     vdW  Elec       q    Type
REMARK                         _______ _______ _______ _____ _____    ______ ____
ROOT
ATOM      1  C   UNL     1      50.476   7.543  15.119  0.00  0.00    +0.000 A 
ATOM      2  C   UNL     1      50.779   8.244  13.944  0.00  0.00    +0.000 A 
ATOM      3  C   UNL     1      49.845   8.342  12.904  0.00  0.00    +0.000 A 
ATOM      4  C   UNL     1      48.576   7.760  13.026  0.00  0.00    +0.000 A 
ATOM      5  C   UNL     1      48.272   7.060  14.202  0.00  0.00    +0.000 A 
ATOM      6  C   UNL     1      49.207   6.961  15.240  0.00  0.00    +0.000 A 
ENDROOT
BRANCH   1   7
ATOM      7  C   UNL     1      51.507   7.380  16.208  0.00  0.00    +0.000 C 
BRANCH   7  10
ATOM      8  C   UNL     1      51.387   5.357  17.611  0.00  0.00    +0.000 C 
ATOM      9  O   UNL     1      50.669   5.922  18.427  0.00  0.00    +0.000 OA
ATOM     10  N   UNL     1      51.858   6.007  16.477  0.00  0.00    +0.000 N 
ATOM     11  H   UNL     1      52.460   5.481  15.851  0.00  0.00    +0.000 HD
BRANCH   8  17
ATOM     12  C   UNL     1      51.042   2.830  17.361  0.00  0.00    +0.000 A 
ATOM     13  C   UNL     1      51.586   1.551  17.528  0.00  0.00    +0.000 A 
ATOM     14  C   UNL     1      52.853   1.393  18.081  0.00  0.00    +0.000 A 
ATOM     15  C   UNL     1      53.558   2.525  18.450  0.00  0.00    +0.000 A 
ATOM     16  N   UNL     1      53.090   3.780  18.298  0.00  0.00    +0.000 NA
ATOM     17  C   UNL     1      51.837   3.917  17.748  0.00  0.00    +0.000 A 
BRANCH  12  19
ATOM     18  C   UNL     1      48.679   2.833  17.637  0.00  0.00    +0.000 C 
ATOM     19  O   UNL     1      49.814   3.045  16.801  0.00  0.00    +0.000 OA
ENDBRANCH  12  19
ENDBRANCH   8  17
ENDBRANCH   7  10
ENDBRANCH   1   7
BRANCH   4  20
ATOM     20  C   UNL     1      47.570   7.847  11.906  0.00  0.00    +0.000 C 
BRANCH  20  21
ATOM     21  N   UNL     1      46.897   6.588  11.697  0.00  0.00    +0.000 N 
ATOM     22  C   UNL     1      45.532   6.484  11.809  0.00  0.00    +0.000 C 
ATOM     23  O   UNL     1      44.824   7.458  12.050  0.00  0.00    +0.000 OA
ATOM     24  H   UNL     1      47.467   5.749  11.725  0.00  0.00    +0.000 HD
BRANCH  22  25
ATOM     25  C   UNL     1      44.949   5.155  11.568  0.00  0.00    +0.000 A 
ATOM     26  C   UNL     1      44.275   4.505  12.594  0.00  0.00    +0.000 A 
ATOM     27  S   UNL     1      43.609   3.004  12.133  0.00  0.00    +0.000 S 
ATOM     28  C   UNL     1      44.242   3.142  10.561  0.00  0.00    +0.000 A 
ATOM     29  N   UNL     1      44.051   2.160   9.639  0.00  0.00    +0.000 NA
ATOM     30  C   UNL     1      44.616   2.379   8.500  0.00  0.00    +0.000 A 
ATOM     31  N   UNL     1      45.350   3.496   8.195  0.00  0.00    +0.000 N 
ATOM     32  C   UNL     1      45.548   4.527   9.084  0.00  0.00    +0.000 A 
ATOM     33  O   UNL     1      46.182   5.528   8.767  0.00  0.00    +0.000 OA
ATOM     34  C   UNL     1      44.941   4.325  10.385  0.00  0.00    +0.000 A 
ATOM     35  H   UNL     1      45.762   3.611   7.280  0.00  0.00    +0.000 HD
ENDBRANCH  22  25
ENDBRANCH  20  21
ENDBRANCH   4  20
TORSDOF 7
ENDMDL
MODEL 3
REMARK VINA RESULT:    -6.991      1.477      2.258
REMARK INTER + INTRA:         -10.973
REMARK INTER:                  -9.533
REMARK INTRA:                  -1.440
REMARK UNBOUND:                -1.122
REMARK  Name = 
REMARK  8 active torsions:
REMARK  status: ('A' for Active; 'I' for Inactive)
REMARK    1  A    between atoms: C_1  and  O_2
REMARK    2  A    between atoms: O_2  and  C_3
REMARK    3  A    between atoms: C_8  and  C_9
REMARK    4  A    between atoms: N_11  and  C_12
REMARK    5  A    between atoms: C_12  and  C_13
REMARK    6  A    between atoms: C_16  and  C_17
REMARK    7  A    between atoms: C_17  and  N_18
REMARK    8  A    between atoms: C_19  and  C_21
REMARK                            x       y       z     vdW  Elec       q    Type
REMARK                         _______ _______ _______ _____ _____    ______ ____
ROOT
ATOM      1  C   UNL     1      51.395   2.873  17.723  0.00  0.00    +0.000 A 
ATOM      2  C   UNL     1      50.831   4.112  18.057  0.00  0.00    +0.000 A 
ATOM      3  C   UNL     1      49.486   4.387  17.779  0.00  0.00    +0.000 A 
ATOM      4  C   UNL     1      48.668   3.421  17.178  0.00  0.00    +0.000 A 
ATOM      5  C   UNL     1      49.231   2.182  16.845  0.00  0.00    +0.000 A 
ATOM      6  C   UNL     1      50.577   1.907  17.123  0.00  0.00    +0.000 A 
ENDROOT
BRANCH   1   7
ATOM      7  C   UNL     1      52.860   2.604  17.962  0.00  0.00    +0.000 C 
BRANCH   7  10
ATOM      8  C   UNL     1      54.391   0.816  17.230  0.00  0.00    +0.000 C 
ATOM      9  O   UNL     1      55.156   1.629  16.724  0.00  0.00    +0.000 OA
ATOM     10  N   UNL     1      53.219   1.211  17.864  0.00  0.00    +0.000 N 
ATOM     11  H   UNL     1      52.625   0.481  18.248  0.00  0.00    +0.000 HD
BRANCH   8  17
ATOM     12  C   UNL     1      54.634  -1.462  18.377  0.00  0.00    +0.000 A 
ATOM     13  C   UNL     1      54.853  -2.836  18.220  0.00  0.00    +0.000 A 
ATOM     14  C   UNL     1      55.079  -3.371  16.956  0.00  0.00    +0.000 A 
ATOM     15  C   UNL     1      55.075  -2.518  15.868  0.00  0.00    +0.000 A 
ATOM     16  N   UNL     1      54.854  -1.191  15.958  0.00  0.00    +0.000 NA
ATOM     17  C   UNL     1      54.630  -0.680  17.215  0.00  0.00    +0.000 A 
BRANCH  12  19
ATOM     18  C   UNL     1      55.501  -0.673  20.447  0.00  0.00    +0.000 C 
ATOM     19  O   UNL     1      54.382  -0.887  19.591  0.00  0.00    +0.000 OA
ENDBRANCH  12  19
ENDBRANCH   8  17
ENDBRANCH   7  10
ENDBRANCH   1   7
BRANCH   4  20
ATOM     20  C   UNL     1      47.223   3.714  16.859  0.00  0.00    +0.000 C 
BRANCH  20  21
ATOM     21  N   UNL     1      47.099   4.697  15.810  0.00  0.00    +0.000 N 
ATOM     22  C   UNL     1      47.135   4.333  14.486  0.00  0.00    +0.000 C 
ATOM     23  O   UNL     1      47.231   3.158  14.138  0.00  0.00    +0.000 OA
ATOM     24  H   UNL     1      47.247   5.667  16.066  0.00  0.00    +0.000 HD
BRANCH  22  25
ATOM     25  C   UNL     1      46.991   5.413  13.499  0.00  0.00    +0.000 A 
ATOM     26  C   UNL     1      45.971   5.351  12.558  0.00  0.00    +0.000 A 
ATOM     27  S   UNL     1      45.907   6.708  11.527  0.00  0.00    +0.000 S 
ATOM     28  C   UNL     1      47.274   7.403  12.264  0.00  0.00    +0.000 A 
ATOM     29  N   UNL     1      47.775   8.592  11.832  0.00  0.00    +0.000 NA
ATOM     30  C   UNL     1      48.834   8.984  12.457  0.00  0.00    +0.000 A 
ATOM     31  N   UNL     1      49.434   8.297  13.480  0.00  0.00    +0.000 N 
ATOM     32  C   UNL     1      48.949   7.107  13.969  0.00  0.00    +0.000 A 
ATOM     33  O   UNL     1      49.492   6.536  14.909  0.00  0.00    +0.000 OA
ATOM     34  C   UNL     1      47.764   6.616  13.293  0.00  0.00    +0.000 A 
ATOM     35  H   UNL     1      50.260   8.662  13.934  0.00  0.00    +0.000 HD
ENDBRANCH  22  25
ENDBRANCH  20  21
ENDBRANCH   4  20
TORSDOF 7
ENDMDL
MODEL 4
REMARK VINA RESULT:    -6.694      7.445      8.574
REMARK INTER + INTRA:         -10.555
REMARK INTER:                  -9.351
REMARK INTRA:                  -1.204
REMARK UNBOUND:                -1.122
REMARK  Name = 
REMARK  8 active torsions:
REMARK  status: ('A' for Active; 'I' for Inactive)
REMARK    1  A    between atoms: C_1  and  O_2
REMARK    2  A    between atoms: O_2  and  C_3
REMARK    3  A    between atoms: C_8  and  C_9
REMARK    4  A    between atoms: N_11  and  C_12
REMARK    5  A    between atoms: C_12  and  C_13
REMARK    6  A    between atoms: C_16  and  C_17
REMARK    7  A    between atoms: C_17  and  N_18
REMARK    8  A    between atoms: C_19  and  C_21
REMARK                            x       y       z     vdW  Elec       q    Type
REMARK                         _______ _______ _______ _____ _____    ______ ____
ROOT
ATOM      1  C   UNL     1      50.484   8.880  11.298  0.00  0.00    +0.000 A 
ATOM      2  C   UNL     1      49.543   9.917  11.361  0.00  0.00    +0.000 A 
ATOM      3  C   UNL     1      48.249   9.684  11.844  0.00  0.00    +0.000 A 
ATOM      4  C   UNL     1      47.873   8.412  12.297  0.00  0.00    +0.000 A 
ATOM      5  C   UNL     1      48.815   7.375  12.235  0.00  0.00    +0.000 A 
ATOM      6  C   UNL     1      50.108   7.609  11.750  0.00  0.00    +0.000 A 
ENDROOT
BRANCH   1   7
ATOM      7  C   UNL     1      51.855   9.118  10.713  0.00  0.00    +0.000 C 
BRANCH   7  10
ATOM      8  C   UNL     1      53.000   7.992   8.844  0.00  0.00    +0.000 C 
ATOM      9  O   UNL     1      53.003   9.020   8.179  0.00  0.00    +0.000 OA
ATOM     10  N   UNL     1      52.444   7.945  10.116  0.00  0.00    +0.000 N 
ATOM     11  H   UNL     1      52.464   7.054  10.604  0.00  0.00    +0.000 HD
BRANCH   8  17
ATOM     12  C   UNL     1      54.792   6.161   8.843  0.00  0.00    +0.000 A 
ATOM     13  C   UNL     1      55.211   4.931   8.321  0.00  0.00    +0.000 A 
ATOM     14  C   UNL     1      54.455   4.287   7.347  0.00  0.00    +0.000 A 
ATOM     15  C   UNL     1      53.284   4.885   6.918  0.00  0.00    +0.000 A 
ATOM     16  N   UNL     1      52.825   6.059   7.396  0.00  0.00    +0.000 NA
ATOM     17  C   UNL     1      53.584   6.680   8.360  0.00  0.00    +0.000 A 
BRANCH  12  19
ATOM     18  C   UNL     1      55.490   6.236  11.116  0.00  0.00    +0.000 C 
ATOM     19  O   UNL     1      55.483   6.824   9.818  0.00  0.00    +0.000 OA
ENDBRANCH  12  19
ENDBRANCH   8  17
ENDBRANCH   7  10
ENDBRANCH   1   7
BRANCH   4  20
ATOM     20  C   UNL     1      46.477   8.147  12.804  0.00  0.00    +0.000 C 
BRANCH  20  21
ATOM     21  N   UNL     1      46.035   6.814  12.474  0.00  0.00    +0.000 N 
ATOM     22  C   UNL     1      44.898   6.604  11.735  0.00  0.00    +0.000 C 
ATOM     23  O   UNL     1      44.233   7.535  11.288  0.00  0.00    +0.000 OA
ATOM     24  H   UNL     1      46.430   6.051  13.013  0.00  0.00    +0.000 HD
BRANCH  22  25
ATOM     25  C   UNL     1      44.543   5.206  11.450  0.00  0.00    +0.000 A 
ATOM     26  C   UNL     1      43.802   4.484  12.376  0.00  0.00    +0.000 A 
ATOM     27  S   UNL     1      43.426   2.899  11.868  0.00  0.00    +0.000 S 
ATOM     28  C   UNL     1      44.286   3.102  10.414  0.00  0.00    +0.000 A 
ATOM     29  N   UNL     1      44.381   2.090   9.509  0.00  0.00    +0.000 NA
ATOM     30  C   UNL     1      45.092   2.369   8.469  0.00  0.00    +0.000 A 
ATOM     31  N   UNL     1      45.711   3.572   8.248  0.00  0.00    +0.000 N 
ATOM     32  C   UNL     1      45.622   4.631   9.119  0.00  0.00    +0.000 A 
ATOM     33  O   UNL     1      46.161   5.705   8.873  0.00  0.00    +0.000 OA
ATOM     34  C   UNL     1      44.840   4.366  10.312  0.00  0.00    +0.000 A 
ATOM     35  H   UNL     1      46.250   3.729   7.408  0.00  0.00    +0.000 HD
ENDBRANCH  22  25
ENDBRANCH  20  21
ENDBRANCH   4  20
TORSDOF 7
ENDMDL
MODEL 5
REMARK VINA RESULT:    -6.209      7.986     11.269
REMARK INTER + INTRA:          -9.872
REMARK INTER:                  -8.845
REMARK INTRA:                  -1.028
REMARK UNBOUND:                -1.122
REMARK  Name = 
REMARK  8 active torsions:
REMARK  status: ('A' for Active; 'I' for Inactive)
REMARK    1  A    between atoms: C_1  and  O_2
REMARK    2  A    between atoms: O_2  and  C_3
REMARK    3  A    between atoms: C_8  and  C_9
REMARK    4  A    between atoms: N_11  and  C_12
REMARK    5  A    between atoms: C_12  and  C_13
REMARK    6  A    between atoms: C_16  and  C_17
REMARK    7  A    between atoms: C_17  and  N_18
REMARK    8  A    between atoms: C_19  and  C_21
REMARK                            x       y       z     vdW  Elec       q    Type
REMARK                         _______ _______ _______ _____ _____    ______ ____
ROOT
ATOM      1  C   UNL     1      48.640   8.320  11.824  0.00  0.00    +0.000 A 
ATOM      2  C   UNL     1      48.844   9.665  11.485  0.00  0.00    +0.000 A 
ATOM      3  C   UNL     1      50.115  10.130  11.122  0.00  0.00    +0.000 A 
ATOM      4  C   UNL     1      51.208   9.254  11.068  0.00  0.00    +0.000 A 
ATOM      5  C   UNL     1      51.004   7.909  11.406  0.00  0.00    +0.000 A 
ATOM      6  C   UNL     1      49.733   7.445  11.770  0.00  0.00    +0.000 A 
ENDROOT
BRANCH   1   7
ATOM      7  C   UNL     1      47.285   7.837  12.280  0.00  0.00    +0.000 C 
BRANCH   7  10
ATOM      8  C   UNL     1      45.584   6.524  11.074  0.00  0.00    +0.000 C 
ATOM      9  O   UNL     1      44.785   7.452  11.117  0.00  0.00    +0.000 OA
ATOM     10  N   UNL     1      46.852   6.624  11.632  0.00  0.00    +0.000 N 
ATOM     11  H   UNL     1      47.456   5.810  11.571  0.00  0.00    +0.000 HD
BRANCH   8  17
ATOM     12  C   UNL     1      44.822   4.079  11.144  0.00  0.00    +0.000 A 
ATOM     13  C   UNL     1      44.567   2.909  10.417  0.00  0.00    +0.000 A 
ATOM     14  C   UNL     1      44.794   2.871   9.045  0.00  0.00    +0.000 A 
ATOM     15  C   UNL     1      45.267   4.012   8.422  0.00  0.00    +0.000 A 
ATOM     16  N   UNL     1      45.514   5.170   9.069  0.00  0.00    +0.000 NA
ATOM     17  C   UNL     1      45.281   5.189  10.424  0.00  0.00    +0.000 A 
BRANCH  12  19
ATOM     18  C   UNL     1      43.261   4.485  12.892  0.00  0.00    +0.000 C 
ATOM     19  O   UNL     1      44.593   4.179  12.487  0.00  0.00    +0.000 OA
ENDBRANCH  12  19
ENDBRANCH   8  17
ENDBRANCH   7  10
ENDBRANCH   1   7
BRANCH   4  20
ATOM     20  C   UNL     1      52.583   9.748  10.695  0.00  0.00    +0.000 C 
BRANCH  20  21
ATOM     21  N   UNL     1      53.203   8.900   9.706  0.00  0.00    +0.000 N 
ATOM     22  C   UNL     1      53.032   9.131   8.363  0.00  0.00    +0.000 C 
ATOM     23  O   UNL     1      52.383  10.087   7.946  0.00  0.00    +0.000 OA
ATOM     24  H   UNL     1      53.542   7.997  10.020  0.00  0.00    +0.000 HD
BRANCH  22  25
ATOM     25  C   UNL     1      53.715   8.211   7.442  0.00  0.00    +0.000 A 
ATOM     26  C   UNL     1      54.232   8.695   6.247  0.00  0.00    +0.000 A 
ATOM     27  S   UNL     1      55.043   7.513   5.323  0.00  0.00    +0.000 S 
ATOM     28  C   UNL     1      54.687   6.299   6.459  0.00  0.00    +0.000 A 
ATOM     29  N   UNL     1      55.085   5.013   6.260  0.00  0.00    +0.000 NA
ATOM     30  C   UNL     1      54.716   4.190   7.183  0.00  0.00    +0.000 A 
ATOM     31  N   UNL     1      53.990   4.538   8.293  0.00  0.00    +0.000 N 
ATOM     32  C   UNL     1      53.589   5.828   8.551  0.00  0.00    +0.000 A 
ATOM     33  O   UNL     1      52.970   6.110   9.572  0.00  0.00    +0.000 OA
ATOM     34  C   UNL     1      53.970   6.792   7.537  0.00  0.00    +0.000 A 
ATOM     35  H   UNL     1      53.738   3.846   8.984  0.00  0.00    +0.000 HD
ENDBRANCH  22  25
ENDBRANCH  20  21
ENDBRANCH   4  20
TORSDOF 7
ENDMDL
MODEL 6
REMARK VINA RESULT:    -6.151      5.430      6.976
REMARK INTER + INTRA:          -9.790
REMARK INTER:                  -8.514
REMARK INTRA:                  -1.276
REMARK UNBOUND:                -1.122
REMARK  Name = 
REMARK  8 active torsions:
REMARK  status: ('A' for Active; 'I' for Inactive)
REMARK    1  A    between atoms: C_1  and  O_2
REMARK    2  A    between atoms: O_2  and  C_3
REMARK    3  A    between atoms: C_8  and  C_9
REMARK    4  A    between atoms: N_11  and  C_12
REMARK    5  A    between atoms: C_12  and  C_13
REMARK    6  A    between atoms: C_16  and  C_17
REMARK    7  A    between atoms: C_17  and  N_18
REMARK    8  A    between atoms: C_19  and  C_21
REMARK                            x       y       z     vdW  Elec       q    Type
REMARK                         _______ _______ _______ _____ _____    ______ ____
ROOT
ATOM      1  C   UNL     1      49.773   8.429  14.743  0.00  0.00    +0.000 A 
ATOM      2  C   UNL     1      49.166   7.203  14.442  0.00  0.00    +0.000 A 
ATOM      3  C   UNL     1      48.177   7.114  13.453  0.00  0.00    +0.000 A 
ATOM      4  C   UNL     1      47.788   8.248  12.727  0.00  0.00    +0.000 A 
ATOM      5  C   UNL     1      48.396   9.475  13.027  0.00  0.00    +0.000 A 
ATOM      6  C   UNL     1      49.384   9.562  14.017  0.00  0.00    +0.000 A 
ENDROOT
BRANCH   1   7
ATOM      7  C   UNL     1      50.788   8.534  15.854  0.00  0.00    +0.000 C 
BRANCH   7  10
ATOM      8  C   UNL     1      51.031   6.603  17.366  0.00  0.00    +0.000 C 
ATOM      9  O   UNL     1      51.890   6.104  16.649  0.00  0.00    +0.000 OA
ATOM     10  N   UNL     1      50.423   7.810  17.047  0.00  0.00    +0.000 N 
ATOM     11  H   UNL     1      49.709   8.158  17.680  0.00  0.00    +0.000 HD
BRANCH   8  17
ATOM     12  C   UNL     1      49.321   5.293  18.753  0.00  0.00    +0.000 A 
ATOM     13  C   UNL     1      48.998   4.740  19.998  0.00  0.00    +0.000 A 
ATOM     14  C   UNL     1      49.860   4.894  21.080  0.00  0.00    +0.000 A 
ATOM     15  C   UNL     1      51.038   5.594  20.890  0.00  0.00    +0.000 A 
ATOM     16  N   UNL     1      51.407   6.133  19.710  0.00  0.00    +0.000 NA
ATOM     17  C   UNL     1      50.544   5.969  18.653  0.00  0.00    +0.000 A 
BRANCH  12  19
ATOM     18  C   UNL     1      47.224   4.605  17.864  0.00  0.00    +0.000 C 
ATOM     19  O   UNL     1      48.524   5.150  17.652  0.00  0.00    +0.000 OA
ENDBRANCH  12  19
ENDBRANCH   8  17
ENDBRANCH   7  10
ENDBRANCH   1   7
BRANCH   4  20
ATOM     20  C   UNL     1      46.713   8.165  11.673  0.00  0.00    +0.000 C 
BRANCH  20  21
ATOM     21  N   UNL     1      46.266   6.808  11.474  0.00  0.00    +0.000 N 
ATOM     22  C   UNL     1      44.929   6.504  11.392  0.00  0.00    +0.000 C 
ATOM     23  O   UNL     1      44.061   7.372  11.442  0.00  0.00    +0.000 OA
ATOM     24  H   UNL     1      46.937   6.070  11.658  0.00  0.00    +0.000 HD
BRANCH  22  25
ATOM     25  C   UNL     1      44.585   5.090  11.181  0.00  0.00    +0.000 A 
ATOM     26  C   UNL     1      43.846   4.413  12.142  0.00  0.00    +0.000 A 
ATOM     27  S   UNL     1      43.481   2.802  11.718  0.00  0.00    +0.000 S 
ATOM     28  C   UNL     1      44.344   2.932  10.258  0.00  0.00    +0.000 A 
ATOM     29  N   UNL     1      44.448   1.875   9.408  0.00  0.00    +0.000 NA
ATOM     30  C   UNL     1      45.161   2.103   8.356  0.00  0.00    +0.000 A 
ATOM     31  N   UNL     1      45.773   3.297   8.073  0.00  0.00    +0.000 N 
ATOM     32  C   UNL     1      45.674   4.400   8.887  0.00  0.00    +0.000 A 
ATOM     33  O   UNL     1      46.206   5.463   8.586  0.00  0.00    +0.000 OA
ATOM     34  C   UNL     1      44.891   4.194  10.090  0.00  0.00    +0.000 A 
ATOM     35  H   UNL     1      46.313   3.413   7.227  0.00  0.00    +0.000 HD
ENDBRANCH  22  25
ENDBRANCH  20  21
ENDBRANCH   4  20
TORSDOF 7
ENDMDL
MODEL 7
REMARK VINA RESULT:    -6.062      7.985     11.374
REMARK INTER + INTRA:          -9.665
REMARK INTER:                  -8.550
REMARK INTRA:                  -1.115
REMARK UNBOUND:                -1.122
REMARK  Name = 
REMARK  8 active torsions:
REMARK  status: ('A' for Active; 'I' for Inactive)
REMARK    1  A    between atoms: C_1  and  O_2
REMARK    2  A    between atoms: O_2  and  C_3
REMARK    3  A    between atoms: C_8  and  C_9
REMARK    4  A    between atoms: N_11  and  C_12
REMARK    5  A    between atoms: C_12  and  C_13
REMARK    6  A    between atoms: C_16  and  C_17
REMARK    7  A    between atoms: C_17  and  N_18
REMARK    8  A    between atoms: C_19  and  C_21
REMARK                            x       y       z     vdW  Elec       q    Type
REMARK                         _______ _______ _______ _____ _____    ______ ____
ROOT
ATOM      1  C   UNL     1      47.859   8.749  12.202  0.00  0.00    +0.000 A 
ATOM      2  C   UNL     1      48.388  10.001  11.860  0.00  0.00    +0.000 A 
ATOM      3  C   UNL     1      49.735  10.137  11.496  0.00  0.00    +0.000 A 
ATOM      4  C   UNL     1      50.578   9.018  11.446  0.00  0.00    +0.000 A 
ATOM      5  C   UNL     1      50.049   7.766  11.788  0.00  0.00    +0.000 A 
ATOM      6  C   UNL     1      48.702   7.632  12.152  0.00  0.00    +0.000 A 
ENDROOT
BRANCH   1   7
ATOM      7  C   UNL     1      46.427   8.616  12.659  0.00  0.00    +0.000 C 
BRANCH   7  10
ATOM      8  C   UNL     1      44.827   6.988  11.730  0.00  0.00    +0.000 C 
ATOM      9  O   UNL     1      44.273   7.856  11.067  0.00  0.00    +0.000 OA
ATOM     10  N   UNL     1      45.906   7.276  12.557  0.00  0.00    +0.000 N 
ATOM     11  H   UNL     1      46.307   6.508  13.088  0.00  0.00    +0.000 HD
BRANCH   8  17
ATOM     12  C   UNL     1      44.583   4.690  10.623  0.00  0.00    +0.000 A 
ATOM     13  C   UNL     1      44.159   3.363  10.759  0.00  0.00    +0.000 A 
ATOM     14  C   UNL     1      43.562   2.934  11.940  0.00  0.00    +0.000 A 
ATOM     15  C   UNL     1      43.408   3.844  12.970  0.00  0.00    +0.000 A 
ATOM     16  N   UNL     1      43.813   5.128  12.901  0.00  0.00    +0.000 NA
ATOM     17  C   UNL     1      44.402   5.534  11.726  0.00  0.00    +0.000 A 
BRANCH  12  19
ATOM     18  C   UNL     1      45.524   4.198   8.494  0.00  0.00    +0.000 C 
ATOM     19  O   UNL     1      45.197   5.158   9.495  0.00  0.00    +0.000 OA
ENDBRANCH  12  19
ENDBRANCH   8  17
ENDBRANCH   7  10
ENDBRANCH   1   7
BRANCH   4  20
ATOM     20  C   UNL     1      52.032   9.157  11.072  0.00  0.00    +0.000 C 
BRANCH  20  21
ATOM     21  N   UNL     1      52.346   8.419   9.873  0.00  0.00    +0.000 N 
ATOM     22  C   UNL     1      53.342   7.474   9.859  0.00  0.00    +0.000 C 
ATOM     23  O   UNL     1      53.978   7.186  10.870  0.00  0.00    +0.000 OA
ATOM     24  H   UNL     1      52.001   8.795   8.996  0.00  0.00    +0.000 HD
BRANCH  22  25
ATOM     25  C   UNL     1      53.573   6.775   8.586  0.00  0.00    +0.000 A 
ATOM     26  C   UNL     1      53.609   5.387   8.562  0.00  0.00    +0.000 A 
ATOM     27  S   UNL     1      53.827   4.734   7.002  0.00  0.00    +0.000 S 
ATOM     28  C   UNL     1      53.936   6.282   6.307  0.00  0.00    +0.000 A 
ATOM     29  N   UNL     1      54.148   6.439   4.972  0.00  0.00    +0.000 NA
ATOM     30  C   UNL     1      54.245   7.667   4.588  0.00  0.00    +0.000 A 
ATOM     31  N   UNL     1      54.142   8.755   5.416  0.00  0.00    +0.000 N 
ATOM     32  C   UNL     1      53.901   8.647   6.765  0.00  0.00    +0.000 A 
ATOM     33  O   UNL     1      53.781   9.642   7.472  0.00  0.00    +0.000 OA
ATOM     34  C   UNL     1      53.793   7.285   7.252  0.00  0.00    +0.000 A 
ATOM     35  H   UNL     1      54.221   9.693   5.050  0.00  0.00    +0.000 HD
ENDBRANCH  22  25
ENDBRANCH  20  21
ENDBRANCH   4  20
TORSDOF 7
ENDMDL
MODEL 8
REMARK VINA RESULT:    -6.036      4.209      6.506
REMARK INTER + INTRA:          -9.629
REMARK INTER:                  -8.796
REMARK INTRA:                  -0.833
REMARK UNBOUND:                -1.122
REMARK  Name = 
REMARK  8 active torsions:
REMARK  status: ('A' for Active; 'I' for Inactive)
REMARK    1  A    between atoms: C_1  and  O_2
REMARK    2  A    between atoms: O_2  and  C_3
REMARK    3  A    between atoms: C_8  and  C_9
REMARK    4  A    between atoms: N_11  and  C_12
REMARK    5  A    between atoms: C_12  and  C_13
REMARK    6  A    between atoms: C_16  and  C_17
REMARK    7  A    between atoms: C_17  and  N_18
REMARK    8  A    between atoms: C_19  and  C_21
REMARK                            x       y       z     vdW  Elec       q    Type
REMARK                         _______ _______ _______ _____ _____    ______ ____
ROOT
ATOM      1  C   UNL     1      49.608   8.396  13.547  0.00  0.00    +0.000 A 
ATOM      2  C   UNL     1      48.567   9.155  14.098  0.00  0.00    +0.000 A 
ATOM      3  C   UNL     1      47.294   9.162  13.511  0.00  0.00    +0.000 A 
ATOM      4  C   UNL     1      47.028   8.391  12.372  0.00  0.00    +0.000 A 
ATOM      5  C   UNL     1      48.069   7.631  11.821  0.00  0.00    +0.000 A 
ATOM      6  C   UNL     1      49.342   7.626  12.408  0.00  0.00    +0.000 A 
ENDROOT
BRANCH   1   7
ATOM      7  C   UNL     1      50.995   8.445  14.140  0.00  0.00    +0.000 C 
BRANCH   7  10
ATOM      8  C   UNL     1      51.058   7.118  16.217  0.00  0.00    +0.000 C 
ATOM      9  O   UNL     1      50.486   8.003  16.842  0.00  0.00    +0.000 OA
ATOM     10  N   UNL     1      51.358   7.253  14.867  0.00  0.00    +0.000 N 
ATOM     11  H   UNL     1      51.847   6.485  14.416  0.00  0.00    +0.000 HD
BRANCH   8  17
ATOM     12  C   UNL     1      52.835   5.523  17.147  0.00  0.00    +0.000 A 
ATOM     13  C   UNL     1      53.103   4.278  17.729  0.00  0.00    +0.000 A 
ATOM     14  C   UNL     1      52.072   3.371  17.952  0.00  0.00    +0.000 A 
ATOM     15  C   UNL     1      50.785   3.732  17.594  0.00  0.00    +0.000 A 
ATOM     16  N   UNL     1      50.468   4.922  17.046  0.00  0.00    +0.000 NA
ATOM     17  C   UNL     1      51.499   5.807  16.835  0.00  0.00    +0.000 A 
BRANCH  12  19
ATOM     18  C   UNL     1      54.835   6.119  16.007  0.00  0.00    +0.000 C 
ATOM     19  O   UNL     1      53.804   6.461  16.929  0.00  0.00    +0.000 OA
ENDBRANCH  12  19
ENDBRANCH   8  17
ENDBRANCH   7  10
ENDBRANCH   1   7
BRANCH   4  20
ATOM     20  C   UNL     1      45.666   8.404  11.724  0.00  0.00    +0.000 C 
BRANCH  20  21
ATOM     21  N   UNL     1      45.288   7.094  11.253  0.00  0.00    +0.000 N 
ATOM     22  C   UNL     1      44.969   6.088  12.130  0.00  0.00    +0.000 C 
ATOM     23  O   UNL     1      44.950   6.267  13.346  0.00  0.00    +0.000 OA
ATOM     24  H   UNL     1      45.515   6.866  10.291  0.00  0.00    +0.000 HD
BRANCH  22  25
ATOM     25  C   UNL     1      44.589   4.794  11.543  0.00  0.00    +0.000 A 
ATOM     26  C   UNL     1      43.822   3.903  12.282  0.00  0.00    +0.000 A 
ATOM     27  S   UNL     1      43.421   2.478  11.436  0.00  0.00    +0.000 S 
ATOM     28  C   UNL     1      44.302   2.974  10.069  0.00  0.00    +0.000 A 
ATOM     29  N   UNL     1      44.388   2.183   8.965  0.00  0.00    +0.000 NA
ATOM     30  C   UNL     1      45.118   2.667   8.017  0.00  0.00    +0.000 A 
ATOM     31  N   UNL     1      45.765   3.875   8.070  0.00  0.00    +0.000 N 
ATOM     32  C   UNL     1      45.686   4.719   9.152  0.00  0.00    +0.000 A 
ATOM     33  O   UNL     1      46.249   5.809   9.152  0.00  0.00    +0.000 OA
ATOM     34  C   UNL     1      44.884   4.217  10.251  0.00  0.00    +0.000 A 
ATOM     35  H   UNL     1      46.317   4.200   7.289  0.00  0.00    +0.000 HD
ENDBRANCH  22  25
ENDBRANCH  20  21
ENDBRANCH   4  20
TORSDOF 7
ENDMDL
MODEL 9
REMARK VINA RESULT:    -5.823      4.781     10.376
REMARK INTER + INTRA:          -9.328
REMARK INTER:                  -8.746
REMARK INTRA:                  -0.583
REMARK UNBOUND:                -1.122
REMARK  Name = 
REMARK  8 active torsions:
REMARK  status: ('A' for Active; 'I' for Inactive)
REMARK    1  A    between atoms: C_1  and  O_2
REMARK    2  A    between atoms: O_2  and  C_3
REMARK    3  A    between atoms: C_8  and  C_9
REMARK    4  A    between atoms: N_11  and  C_12
REMARK    5  A    between atoms: C_12  and  C_13
REMARK    6  A    between atoms: C_16  and  C_17
REMARK    7  A    between atoms: C_17  and  N_18
REMARK    8  A    between atoms: C_19  and  C_21
REMARK                            x       y       z     vdW  Elec       q    Type
REMARK                         _______ _______ _______ _____ _____    ______ ____
ROOT
ATOM      1  C   UNL     1      46.309   8.613  12.013  0.00  0.00    +0.000 A 
ATOM      2  C   UNL     1      46.582   9.980  12.157  0.00  0.00    +0.000 A 
ATOM      3  C   UNL     1      47.821  10.419  12.643  0.00  0.00    +0.000 A 
ATOM      4  C   UNL     1      48.824   9.498  12.976  0.00  0.00    +0.000 A 
ATOM      5  C   UNL     1      48.552   8.131  12.831  0.00  0.00    +0.000 A 
ATOM      6  C   UNL     1      47.313   7.694  12.345  0.00  0.00    +0.000 A 
ENDROOT
BRANCH   1   7
ATOM      7  C   UNL     1      44.951   8.143  11.554  0.00  0.00    +0.000 C 
BRANCH   7  10
ATOM      8  C   UNL     1      44.869   5.730  11.054  0.00  0.00    +0.000 C 
ATOM      9  O   UNL     1      44.716   5.454  12.238  0.00  0.00    +0.000 OA
ATOM     10  N   UNL     1      45.001   7.044  10.621  0.00  0.00    +0.000 N 
ATOM     11  H   UNL     1      45.140   7.198   9.626  0.00  0.00    +0.000 HD
BRANCH   8  17
ATOM     12  C   UNL     1      44.137   3.541   9.942  0.00  0.00    +0.000 A 
ATOM     13  C   UNL     1      44.289   2.669   8.857  0.00  0.00    +0.000 A 
ATOM     14  C   UNL     1      45.220   2.944   7.861  0.00  0.00    +0.000 A 
ATOM     15  C   UNL     1      45.979   4.096   7.966  0.00  0.00    +0.000 A 
ATOM     16  N   UNL     1      45.864   4.978   8.980  0.00  0.00    +0.000 NA
ATOM     17  C   UNL     1      44.937   4.691   9.954  0.00  0.00    +0.000 A 
BRANCH  12  19
ATOM     18  C   UNL     1      43.568   2.389  11.944  0.00  0.00    +0.000 C 
ATOM     19  O   UNL     1      43.220   3.333  10.935  0.00  0.00    +0.000 OA
ENDBRANCH  12  19
ENDBRANCH   8  17
ENDBRANCH   7  10
ENDBRANCH   1   7
BRANCH   4  20
ATOM     20  C   UNL     1      50.155   9.960  13.516  0.00  0.00    +0.000 C 
BRANCH  20  21
ATOM     21  N   UNL     1      50.868   8.886  14.164  0.00  0.00    +0.000 N 
ATOM     22  C   UNL     1      50.727   8.648  15.509  0.00  0.00    +0.000 C 
ATOM     23  O   UNL     1      49.962   9.308  16.208  0.00  0.00    +0.000 OA
ATOM     24  H   UNL     1      51.657   8.489  13.666  0.00  0.00    +0.000 HD
BRANCH  22  25
ATOM     25  C   UNL     1      51.493   7.523  16.066  0.00  0.00    +0.000 A 
ATOM     26  C   UNL     1      52.881   7.573  16.067  0.00  0.00    +0.000 A 
ATOM     27  S   UNL     1      53.614   6.218  16.800  0.00  0.00    +0.000 S 
ATOM     28  C   UNL     1      52.106   5.491  17.094  0.00  0.00    +0.000 A 
ATOM     29  N   UNL     1      52.020   4.271  17.692  0.00  0.00    +0.000 NA
ATOM     30  C   UNL     1      50.817   3.823  17.821  0.00  0.00    +0.000 A 
ATOM     31  N   UNL     1      49.689   4.487  17.412  0.00  0.00    +0.000 N 
ATOM     32  C   UNL     1      49.724   5.731  16.829  0.00  0.00    +0.000 A 
ATOM     33  O   UNL     1      48.693   6.313  16.507  0.00  0.00    +0.000 OA
ATOM     34  C   UNL     1      51.055   6.277  16.652  0.00  0.00    +0.000 A 
ATOM     35  H   UNL     1      48.773   4.083  17.548  0.00  0.00    +0.000 HD
ENDBRANCH  22  25
ENDBRANCH  20  21
ENDBRANCH   4  20
TORSDOF 7
ENDMDL
