MODEL 1
REMARK VINA RESULT:    -7.632      0.000      0.000
REMARK INTER + INTRA:         -10.675
REMARK INTER:                  -9.862
REMARK INTRA:                  -0.813
REMARK UNBOUND:                -0.813
REMARK  Name = 
REMARK  7 active torsions:
REMARK  status: ('A' for Active; 'I' for Inactive)
REMARK    1  A    between atoms: C_1  and  C_2
REMARK    2  A    between atoms: C_2  and  C_3
REMARK    3  A    between atoms: C_2  and  C_4
REMARK    4  A    between atoms: C_2  and  C_18
REMARK    5  A    between atoms: C_4  and  O_5
REMARK    6  A    between atoms: O_5  and  C_6
REMARK    7  A    between atoms: C_10  and  C_11
REMARK                            x       y       z     vdW  Elec       q    Type
REMARK                         _______ _______ _______ _____ _____    ______ ____
ROOT
ATOM      1  O   UNL     1      45.783   5.664  11.563  0.00  0.00    +0.000 OA
ENDROOT
BRANCH   1   2
ATOM      2  C   UNL     1      46.776   6.135  12.386  0.00  0.00    +0.000 A 
ATOM      3  C   UNL     1      47.606   7.222  12.105  0.00  0.00    +0.000 A 
ATOM      4  C   UNL     1      48.581   7.608  13.016  0.00  0.00    +0.000 A 
ATOM      5  C   UNL     1      48.727   6.922  14.221  0.00  0.00    +0.000 A 
ATOM      6  C   UNL     1      47.893   5.840  14.554  0.00  0.00    +0.000 A 
ATOM      7  C   UNL     1      46.930   5.452  13.601  0.00  0.00    +0.000 A 
BRANCH   6   8
ATOM      8  C   UNL     1      48.006   5.176  15.873  0.00  0.00    +0.000 A 
ATOM      9  C   UNL     1      47.242   4.055  16.228  0.00  0.00    +0.000 A 
ATOM     10  C   UNL     1      47.371   3.479  17.495  0.00  0.00    +0.000 A 
ATOM     11  C   UNL     1      48.273   4.035  18.384  0.00  0.00    +0.000 A 
ATOM     12  N   UNL     1      49.036   5.106  18.095  0.00  0.00    +0.000 NA
ATOM     13  C   UNL     1      48.879   5.644  16.860  0.00  0.00    +0.000 A 
ENDBRANCH   6   8
ENDBRANCH   1   2
BRANCH   1  14
ATOM     14  C   UNL     1      45.452   4.278  11.715  0.00  0.00    +0.000 C 
BRANCH  14  16
ATOM     15  C   UNL     1      43.637   2.585  11.179  0.00  0.00    +0.000 C 
ATOM     16  C   UNL     1      44.425   3.800  10.646  0.00  0.00    +0.000 C 
ATOM     17  C   UNL     1      43.404   4.940  10.416  0.00  0.00    +0.000 C 
BRANCH  16  18
ATOM     18  C   UNL     1      45.194   3.396   9.368  0.00  0.00    +0.000 A 
ATOM     19  C   UNL     1      45.638   4.335   8.421  0.00  0.00    +0.000 A 
ATOM     20  C   UNL     1      46.368   3.945   7.291  0.00  0.00    +0.000 A 
ATOM     21  C   UNL     1      46.673   2.604   7.081  0.00  0.00    +0.000 A 
ATOM     22  C   UNL     1      46.236   1.655   7.997  0.00  0.00    +0.000 A 
ATOM     23 CL   UNL     1      46.615  -0.006   7.754  0.00  0.00    +0.000 Cl
ATOM     24  C   UNL     1      45.501   2.040   9.122  0.00  0.00    +0.000 A 
ENDBRANCH  16  18
ENDBRANCH  14  16
ENDBRANCH   1  14
TORSDOF 5
ENDMDL
MODEL 2
REMARK VINA RESULT:    -7.196      3.285      7.839
REMARK INTER + INTRA:         -10.112
REMARK INTER:                  -9.211
REMARK INTRA:                  -0.901
REMARK UNBOUND:                -0.813
REMARK  Name = 
REMARK  7 active torsions:
REMARK  status: ('A' for Active; 'I' for Inactive)
REMARK    1  A    between atoms: C_1  and  C_2
REMARK    2  A    between atoms: C_2  and  C_3
REMARK    3  A    between atoms: C_2  and  C_4
REMARK    4  A    between atoms: C_2  and  C_18
REMARK    5  A    between atoms: C_4  and  O_5
REMARK    6  A    between atoms: O_5  and  C_6
REMARK    7  A    between atoms: C_10  and  C_11
REMARK                            x       y       z     vdW  Elec       q    Type
REMARK                         _______ _______ _______ _____ _____    ______ ____
ROOT
ATOM      1  O   UNL     1      45.198   6.630  11.146  0.00  0.00    +0.000 OA
ENDROOT
BRANCH   1   2
ATOM      2  C   UNL     1      44.839   5.346  10.818  0.00  0.00    +0.000 A 
ATOM      3  C   UNL     1      43.835   4.606  11.443  0.00  0.00    +0.000 A 
ATOM      4  C   UNL     1      43.560   3.310  11.026  0.00  0.00    +0.000 A 
ATOM      5  C   UNL     1      44.276   2.746   9.971  0.00  0.00    +0.000 A 
ATOM      6  C   UNL     1      45.277   3.468   9.296  0.00  0.00    +0.000 A 
ATOM      7  C   UNL     1      45.554   4.770   9.757  0.00  0.00    +0.000 A 
BRANCH   6   8
ATOM      8  C   UNL     1      45.970   2.885   8.124  0.00  0.00    +0.000 A 
ATOM      9  C   UNL     1      46.217   3.608   6.949  0.00  0.00    +0.000 A 
ATOM     10  C   UNL     1      46.856   3.004   5.863  0.00  0.00    +0.000 A 
ATOM     11  C   UNL     1      47.244   1.681   5.978  0.00  0.00    +0.000 A 
ATOM     12  N   UNL     1      47.039   0.940   7.083  0.00  0.00    +0.000 NA
ATOM     13  C   UNL     1      46.409   1.556   8.115  0.00  0.00    +0.000 A 
ENDBRANCH   6   8
ENDBRANCH   1   2
BRANCH   1  14
ATOM     14  C   UNL     1      45.524   6.853  12.524  0.00  0.00    +0.000 C 
BRANCH  14  16
ATOM     15  C   UNL     1      47.798   7.236  11.460  0.00  0.00    +0.000 C 
ATOM     16  C   UNL     1      46.918   7.525  12.695  0.00  0.00    +0.000 C 
ATOM     17  C   UNL     1      46.711   9.057  12.758  0.00  0.00    +0.000 C 
BRANCH  16  18
ATOM     18  C   UNL     1      47.595   6.944  13.957  0.00  0.00    +0.000 A 
ATOM     19  C   UNL     1      48.457   7.699  14.771  0.00  0.00    +0.000 A 
ATOM     20  C   UNL     1      49.025   7.159  15.932  0.00  0.00    +0.000 A 
ATOM     21  C   UNL     1      48.744   5.849  16.308  0.00  0.00    +0.000 A 
ATOM     22  C   UNL     1      47.904   5.080  15.514  0.00  0.00    +0.000 A 
ATOM     23 CL   UNL     1      47.540   3.461  15.973  0.00  0.00    +0.000 Cl
ATOM     24  C   UNL     1      47.340   5.613  14.350  0.00  0.00    +0.000 A 
ENDBRANCH  16  18
ENDBRANCH  14  16
ENDBRANCH   1  14
TORSDOF 5
ENDMDL
MODEL 3
REMARK VINA RESULT:    -6.970      3.595      7.665
REMARK INTER + INTRA:          -9.820
REMARK INTER:                  -8.737
REMARK INTRA:                  -1.084
REMARK UNBOUND:                -0.813
REMARK  Name = 
REMARK  7 active torsions:
REMARK  status: ('A' for Active; 'I' for Inactive)
REMARK    1  A    between atoms: C_1  and  C_2
REMARK    2  A    between atoms: C_2  and  C_3
REMARK    3  A    between atoms: C_2  and  C_4
REMARK    4  A    between atoms: C_2  and  C_18
REMARK    5  A    between atoms: C_4  and  O_5
REMARK    6  A    between atoms: O_5  and  C_6
REMARK    7  A    between atoms: C_10  and  C_11
REMARK                            x       y       z     vdW  Elec       q    Type
REMARK                         _______ _______ _______ _____ _____    ______ ____
ROOT
ATOM      1  O   UNL     1      46.199   7.418  11.663  0.00  0.00    +0.000 OA
ENDROOT
BRANCH   1   2
ATOM      2  C   UNL     1      45.335   6.462  11.192  0.00  0.00    +0.000 A 
ATOM      3  C   UNL     1      43.976   6.383  11.501  0.00  0.00    +0.000 A 
ATOM      4  C   UNL     1      43.196   5.366  10.965  0.00  0.00    +0.000 A 
ATOM      5  C   UNL     1      43.763   4.426  10.105  0.00  0.00    +0.000 A 
ATOM      6  C   UNL     1      45.122   4.487   9.747  0.00  0.00    +0.000 A 
ATOM      7  C   UNL     1      45.896   5.513  10.325  0.00  0.00    +0.000 A 
BRANCH   6   8
ATOM      8  C   UNL     1      45.689   3.532   8.767  0.00  0.00    +0.000 A 
ATOM      9  C   UNL     1      45.642   2.141   8.945  0.00  0.00    +0.000 A 
ATOM     10  C   UNL     1      46.213   1.284   8.000  0.00  0.00    +0.000 A 
ATOM     11  C   UNL     1      46.816   1.838   6.885  0.00  0.00    +0.000 A 
ATOM     12  N   UNL     1      46.885   3.163   6.660  0.00  0.00    +0.000 NA
ATOM     13  C   UNL     1      46.329   3.967   7.601  0.00  0.00    +0.000 A 
ENDBRANCH   6   8
ENDBRANCH   1   2
BRANCH   1  14
ATOM     14  C   UNL     1      46.298   7.522  13.090  0.00  0.00    +0.000 C 
BRANCH  14  16
ATOM     15  C   UNL     1      48.678   6.961  12.403  0.00  0.00    +0.000 C 
ATOM     16  C   UNL     1      47.748   7.266  13.597  0.00  0.00    +0.000 C 
ATOM     17  C   UNL     1      48.265   8.567  14.256  0.00  0.00    +0.000 C 
BRANCH  16  18
ATOM     18  C   UNL     1      47.729   6.056  14.558  0.00  0.00    +0.000 A 
ATOM     19  C   UNL     1      47.045   4.864  14.263  0.00  0.00    +0.000 A 
ATOM     20  C   UNL     1      47.078   3.768  15.135  0.00  0.00    +0.000 A 
ATOM     21  C   UNL     1      47.796   3.838  16.324  0.00  0.00    +0.000 A 
ATOM     22  C   UNL     1      48.470   5.009  16.644  0.00  0.00    +0.000 A 
ATOM     23 CL   UNL     1      49.370   5.105  18.108  0.00  0.00    +0.000 Cl
ATOM     24  C   UNL     1      48.435   6.108  15.779  0.00  0.00    +0.000 A 
ENDBRANCH  16  18
ENDBRANCH  14  16
ENDBRANCH   1  14
TORSDOF 5
ENDMDL
MODEL 4
REMARK VINA RESULT:    -6.907      4.140      7.996
REMARK INTER + INTRA:          -9.738
REMARK INTER:                  -8.882
REMARK INTRA:                  -0.857
REMARK UNBOUND:                -0.813
REMARK  Name = 
REMARK  7 active torsions:
REMARK  status: ('A' for Active; 'I' for Inactive)
REMARK    1  A    between atoms: C_1  and  C_2
REMARK    2  A    between atoms: C_2  and  C_3
REMARK    3  A    between atoms: C_2  and  C_4
REMARK    4  A    between atoms: C_2  and  C_18
REMARK    5  A    between atoms: C_4  and  O_5
REMARK    6  A    between atoms: O_5  and  C_6
REMARK    7  A    between atoms: C_10  and  C_11
REMARK                            x       y       z     vdW  Elec       q    Type
REMARK                         _______ _______ _______ _____ _____    ______ ____
ROOT
ATOM      1  O   UNL     1      45.097   6.173  11.600  0.00  0.00    +0.000 OA
ENDROOT
BRANCH   1   2
ATOM      2  C   UNL     1      44.747   4.936  11.120  0.00  0.00    +0.000 A 
ATOM      3  C   UNL     1      43.730   4.131  11.635  0.00  0.00    +0.000 A 
ATOM      4  C   UNL     1      43.465   2.891  11.067  0.00  0.00    +0.000 A 
ATOM      5  C   UNL     1      44.205   2.450   9.971  0.00  0.00    +0.000 A 
ATOM      6  C   UNL     1      45.220   3.242   9.405  0.00  0.00    +0.000 A 
ATOM      7  C   UNL     1      45.485   4.484  10.017  0.00  0.00    +0.000 A 
BRANCH   6   8
ATOM      8  C   UNL     1      45.939   2.795   8.190  0.00  0.00    +0.000 A 
ATOM      9  C   UNL     1      46.186   3.640   7.098  0.00  0.00    +0.000 A 
ATOM     10  C   UNL     1      46.850   3.161   5.965  0.00  0.00    +0.000 A 
ATOM     11  C   UNL     1      47.265   1.841   5.951  0.00  0.00    +0.000 A 
ATOM     12  N   UNL     1      47.061   0.988   6.972  0.00  0.00    +0.000 NA
ATOM     13  C   UNL     1      46.405   1.483   8.052  0.00  0.00    +0.000 A 
ENDBRANCH   6   8
ENDBRANCH   1   2
BRANCH   1  14
ATOM     14  C   UNL     1      46.462   6.559  11.395  0.00  0.00    +0.000 C 
BRANCH  14  16
ATOM     15  C   UNL     1      46.097   8.330  13.178  0.00  0.00    +0.000 C 
ATOM     16  C   UNL     1      47.069   7.255  12.649  0.00  0.00    +0.000 C 
ATOM     17  C   UNL     1      47.225   6.192  13.762  0.00  0.00    +0.000 C 
BRANCH  16  18
ATOM     18  C   UNL     1      48.404   7.921  12.245  0.00  0.00    +0.000 A 
ATOM     19  C   UNL     1      49.372   7.268  11.463  0.00  0.00    +0.000 A 
ATOM     20  C   UNL     1      50.556   7.910  11.078  0.00  0.00    +0.000 A 
ATOM     21  C   UNL     1      50.801   9.223  11.467  0.00  0.00    +0.000 A 
ATOM     22  C   UNL     1      49.865   9.886  12.249  0.00  0.00    +0.000 A 
ATOM     23 CL   UNL     1      50.152  11.514  12.729  0.00  0.00    +0.000 Cl
ATOM     24  C   UNL     1      48.685   9.246  12.642  0.00  0.00    +0.000 A 
ENDBRANCH  16  18
ENDBRANCH  14  16
ENDBRANCH   1  14
TORSDOF 5
ENDMDL
MODEL 5
REMARK VINA RESULT:    -6.836      3.458      7.404
REMARK INTER + INTRA:          -9.647
REMARK INTER:                  -8.549
REMARK INTRA:                  -1.098
REMARK UNBOUND:                -0.813
REMARK  Name = 
REMARK  7 active torsions:
REMARK  status: ('A' for Active; 'I' for Inactive)
REMARK    1  A    between atoms: C_1  and  C_2
REMARK    2  A    between atoms: C_2  and  C_3
REMARK    3  A    between atoms: C_2  and  C_4
REMARK    4  A    between atoms: C_2  and  C_18
REMARK    5  A    between atoms: C_4  and  O_5
REMARK    6  A    between atoms: O_5  and  C_6
REMARK    7  A    between atoms: C_10  and  C_11
REMARK                            x       y       z     vdW  Elec       q    Type
REMARK                         _______ _______ _______ _____ _____    ______ ____
ROOT
ATOM      1  O   UNL     1      49.327   6.570  15.027  0.00  0.00    +0.000 OA
ENDROOT
BRANCH   1   2
ATOM      2  C   UNL     1      48.676   6.760  13.833  0.00  0.00    +0.000 A 
ATOM      3  C   UNL     1      49.087   7.631  12.823  0.00  0.00    +0.000 A 
ATOM      4  C   UNL     1      48.344   7.742  11.654  0.00  0.00    +0.000 A 
ATOM      5  C   UNL     1      47.193   6.975  11.478  0.00  0.00    +0.000 A 
ATOM      6  C   UNL     1      46.761   6.066  12.460  0.00  0.00    +0.000 A 
ATOM      7  C   UNL     1      47.518   5.992  13.647  0.00  0.00    +0.000 A 
BRANCH   6   8
ATOM      8  C   UNL     1      45.585   5.198  12.223  0.00  0.00    +0.000 A 
ATOM      9  C   UNL     1      45.034   4.995  10.949  0.00  0.00    +0.000 A 
ATOM     10  C   UNL     1      43.909   4.183  10.783  0.00  0.00    +0.000 A 
ATOM     11  C   UNL     1      43.358   3.581  11.899  0.00  0.00    +0.000 A 
ATOM     12  N   UNL     1      43.848   3.735  13.144  0.00  0.00    +0.000 NA
ATOM     13  C   UNL     1      44.936   4.536  13.270  0.00  0.00    +0.000 A 
ENDBRANCH   6   8
ENDBRANCH   1   2
BRANCH   1  14
ATOM     14  C   UNL     1      48.891   7.396  16.114  0.00  0.00    +0.000 C 
BRANCH  14  16
ATOM     15  C   UNL     1      50.659   6.941  17.879  0.00  0.00    +0.000 C 
ATOM     16  C   UNL     1      49.176   6.743  17.498  0.00  0.00    +0.000 C 
ATOM     17  C   UNL     1      48.330   7.480  18.563  0.00  0.00    +0.000 C 
BRANCH  16  18
ATOM     18  C   UNL     1      48.866   5.232  17.404  0.00  0.00    +0.000 A 
ATOM     19  C   UNL     1      47.560   4.734  17.246  0.00  0.00    +0.000 A 
ATOM     20  C   UNL     1      47.311   3.361  17.123  0.00  0.00    +0.000 A 
ATOM     21  C   UNL     1      48.363   2.451  17.155  0.00  0.00    +0.000 A 
ATOM     22  C   UNL     1      49.661   2.917  17.322  0.00  0.00    +0.000 A 
ATOM     23 CL   UNL     1      50.972   1.803  17.354  0.00  0.00    +0.000 Cl
ATOM     24  C   UNL     1      49.913   4.287  17.452  0.00  0.00    +0.000 A 
ENDBRANCH  16  18
ENDBRANCH  14  16
ENDBRANCH   1  14
TORSDOF 5
ENDMDL
MODEL 6
REMARK VINA RESULT:    -6.671      1.176      1.652
REMARK INTER + INTRA:          -9.434
REMARK INTER:                  -8.578
REMARK INTRA:                  -0.856
REMARK UNBOUND:                -0.813
REMARK  Name = 
REMARK  7 active torsions:
REMARK  status: ('A' for Active; 'I' for Inactive)
REMARK    1  A    between atoms: C_1  and  C_2
REMARK    2  A    between atoms: C_2  and  C_3
REMARK    3  A    between atoms: C_2  and  C_4
REMARK    4  A    between atoms: C_2  and  C_18
REMARK    5  A    between atoms: C_4  and  O_5
REMARK    6  A    between atoms: O_5  and  C_6
REMARK    7  A    between atoms: C_10  and  C_11
REMARK                            x       y       z     vdW  Elec       q    Type
REMARK                         _______ _______ _______ _____ _____    ______ ____
ROOT
ATOM      1  O   UNL     1      45.909   4.305  13.054  0.00  0.00    +0.000 OA
ENDROOT
BRANCH   1   2
ATOM      2  C   UNL     1      46.882   5.068  13.651  0.00  0.00    +0.000 A 
ATOM      3  C   UNL     1      47.563   6.123  13.041  0.00  0.00    +0.000 A 
ATOM      4  C   UNL     1      48.534   6.826  13.744  0.00  0.00    +0.000 A 
ATOM      5  C   UNL     1      48.823   6.490  15.066  0.00  0.00    +0.000 A 
ATOM      6  C   UNL     1      48.140   5.452  15.725  0.00  0.00    +0.000 A 
ATOM      7  C   UNL     1      47.180   4.738  14.981  0.00  0.00    +0.000 A 
BRANCH   6   8
ATOM      8  C   UNL     1      48.400   5.163  17.154  0.00  0.00    +0.000 A 
ATOM      9  C   UNL     1      48.815   6.145  18.066  0.00  0.00    +0.000 A 
ATOM     10  C   UNL     1      49.069   5.815  19.399  0.00  0.00    +0.000 A 
ATOM     11  C   UNL     1      48.893   4.503  19.800  0.00  0.00    +0.000 A 
ATOM     12  N   UNL     1      48.491   3.522  18.971  0.00  0.00    +0.000 NA
ATOM     13  C   UNL     1      48.262   3.875  17.682  0.00  0.00    +0.000 A 
ENDBRANCH   6   8
ENDBRANCH   1   2
BRANCH   1  14
ATOM     14  C   UNL     1      44.778   5.023  12.545  0.00  0.00    +0.000 C 
BRANCH  14  16
ATOM     15  C   UNL     1      43.617   2.785  12.239  0.00  0.00    +0.000 C 
ATOM     16  C   UNL     1      43.914   4.152  11.586  0.00  0.00    +0.000 C 
ATOM     17  C   UNL     1      42.556   4.864  11.381  0.00  0.00    +0.000 C 
BRANCH  16  18
ATOM     18  C   UNL     1      44.700   3.937  10.273  0.00  0.00    +0.000 A 
ATOM     19  C   UNL     1      45.207   5.002   9.509  0.00  0.00    +0.000 A 
ATOM     20  C   UNL     1      45.950   4.777   8.343  0.00  0.00    +0.000 A 
ATOM     21  C   UNL     1      46.205   3.478   7.913  0.00  0.00    +0.000 A 
ATOM     22  C   UNL     1      45.705   2.409   8.644  0.00  0.00    +0.000 A 
ATOM     23 CL   UNL     1      46.021   0.798   8.128  0.00  0.00    +0.000 Cl
ATOM     24  C   UNL     1      44.956   2.630   9.804  0.00  0.00    +0.000 A 
ENDBRANCH  16  18
ENDBRANCH  14  16
ENDBRANCH   1  14
TORSDOF 5
ENDMDL
MODEL 7
REMARK VINA RESULT:    -6.657      1.437      2.161
REMARK INTER + INTRA:          -9.416
REMARK INTER:                  -8.763
REMARK INTRA:                  -0.653
REMARK UNBOUND:                -0.813
REMARK  Name = 
REMARK  7 active torsions:
REMARK  status: ('A' for Active; 'I' for Inactive)
REMARK    1  A    between atoms: C_1  and  C_2
REMARK    2  A    between atoms: C_2  and  C_3
REMARK    3  A    between atoms: C_2  and  C_4
REMARK    4  A    between atoms: C_2  and  C_18
REMARK    5  A    between atoms: C_4  and  O_5
REMARK    6  A    between atoms: O_5  and  C_6
REMARK    7  A    between atoms: C_10  and  C_11
REMARK                            x       y       z     vdW  Elec       q    Type
REMARK                         _______ _______ _______ _____ _____    ______ ____
ROOT
ATOM      1  O   UNL     1      46.746   6.067  11.654  0.00  0.00    +0.000 OA
ENDROOT
BRANCH   1   2
ATOM      2  C   UNL     1      47.410   6.503  12.774  0.00  0.00    +0.000 A 
ATOM      3  C   UNL     1      48.007   7.756  12.918  0.00  0.00    +0.000 A 
ATOM      4  C   UNL     1      48.657   8.088  14.100  0.00  0.00    +0.000 A 
ATOM      5  C   UNL     1      48.704   7.176  15.154  0.00  0.00    +0.000 A 
ATOM      6  C   UNL     1      48.092   5.914  15.059  0.00  0.00    +0.000 A 
ATOM      7  C   UNL     1      47.462   5.592  13.840  0.00  0.00    +0.000 A 
BRANCH   6   8
ATOM      8  C   UNL     1      48.079   4.990  16.217  0.00  0.00    +0.000 A 
ATOM      9  C   UNL     1      49.060   5.013  17.219  0.00  0.00    +0.000 A 
ATOM     10  C   UNL     1      49.013   4.104  18.279  0.00  0.00    +0.000 A 
ATOM     11  C   UNL     1      47.976   3.190  18.321  0.00  0.00    +0.000 A 
ATOM     12  N   UNL     1      47.005   3.126  17.391  0.00  0.00    +0.000 NA
ATOM     13  C   UNL     1      47.085   4.018  16.371  0.00  0.00    +0.000 A 
ENDBRANCH   6   8
ENDBRANCH   1   2
BRANCH   1  14
ATOM     14  C   UNL     1      45.493   6.708  11.383  0.00  0.00    +0.000 C 
BRANCH  14  16
ATOM     15  C   UNL     1      44.112   5.169  12.858  0.00  0.00    +0.000 C 
ATOM     16  C   UNL     1      44.301   5.707  11.424  0.00  0.00    +0.000 C 
ATOM     17  C   UNL     1      43.011   6.478  11.052  0.00  0.00    +0.000 C 
BRANCH  16  18
ATOM     18  C   UNL     1      44.611   4.532  10.469  0.00  0.00    +0.000 A 
ATOM     19  C   UNL     1      44.160   3.222  10.707  0.00  0.00    +0.000 A 
ATOM     20  C   UNL     1      44.422   2.183   9.804  0.00  0.00    +0.000 A 
ATOM     21  C   UNL     1      45.141   2.431   8.639  0.00  0.00    +0.000 A 
ATOM     22  C   UNL     1      45.606   3.714   8.386  0.00  0.00    +0.000 A 
ATOM     23 CL   UNL     1      46.489   4.036   6.944  0.00  0.00    +0.000 Cl
ATOM     24  C   UNL     1      45.354   4.752   9.289  0.00  0.00    +0.000 A 
ENDBRANCH  16  18
ENDBRANCH  14  16
ENDBRANCH   1  14
TORSDOF 5
ENDMDL
MODEL 8
REMARK VINA RESULT:    -6.644      2.068      3.756
REMARK INTER + INTRA:          -9.399
REMARK INTER:                  -8.431
REMARK INTRA:                  -0.967
REMARK UNBOUND:                -0.813
REMARK  Name = 
REMARK  7 active torsions:
REMARK  status: ('A' for Active; 'I' for Inactive)
REMARK    1  A    between atoms: C_1  and  C_2
REMARK    2  A    between atoms: C_2  and  C_3
REMARK    3  A    between atoms: C_2  and  C_4
REMARK    4  A    between atoms: C_2  and  C_18
REMARK    5  A    between atoms: C_4  and  O_5
REMARK    6  A    between atoms: O_5  and  C_6
REMARK    7  A    between atoms: C_10  and  C_11
REMARK                            x       y       z     vdW  Elec       q    Type
REMARK                         _______ _______ _______ _____ _____    ______ ____
ROOT
ATOM      1  O   UNL     1      45.802   4.053  13.129  0.00  0.00    +0.000 OA
ENDROOT
BRANCH   1   2
ATOM      2  C   UNL     1      46.717   4.719  13.906  0.00  0.00    +0.000 A 
ATOM      3  C   UNL     1      47.035   4.399  15.227  0.00  0.00    +0.000 A 
ATOM      4  C   UNL     1      47.979   5.148  15.918  0.00  0.00    +0.000 A 
ATOM      5  C   UNL     1      48.624   6.214  15.292  0.00  0.00    +0.000 A 
ATOM      6  C   UNL     1      48.352   6.552  13.954  0.00  0.00    +0.000 A 
ATOM      7  C   UNL     1      47.371   5.792  13.285  0.00  0.00    +0.000 A 
BRANCH   6   8
ATOM      8  C   UNL     1      49.106   7.633  13.279  0.00  0.00    +0.000 A 
ATOM      9  C   UNL     1      50.379   8.048  13.696  0.00  0.00    +0.000 A 
ATOM     10  C   UNL     1      51.038   9.089  13.037  0.00  0.00    +0.000 A 
ATOM     11  C   UNL     1      50.410   9.693  11.962  0.00  0.00    +0.000 A 
ATOM     12  N   UNL     1      49.193   9.332  11.515  0.00  0.00    +0.000 NA
ATOM     13  C   UNL     1      48.578   8.323  12.183  0.00  0.00    +0.000 A 
ENDBRANCH   6   8
ENDBRANCH   1   2
BRANCH   1  14
ATOM     14  C   UNL     1      44.787   4.865  12.526  0.00  0.00    +0.000 C 
BRANCH  14  16
ATOM     15  C   UNL     1      43.546   2.682  12.143  0.00  0.00    +0.000 C 
ATOM     16  C   UNL     1      43.901   4.055  11.533  0.00  0.00    +0.000 C 
ATOM     17  C   UNL     1      42.573   4.824  11.336  0.00  0.00    +0.000 C 
BRANCH  16  18
ATOM     18  C   UNL     1      44.692   3.848  10.222  0.00  0.00    +0.000 A 
ATOM     19  C   UNL     1      45.177   4.919   9.451  0.00  0.00    +0.000 A 
ATOM     20  C   UNL     1      45.926   4.702   8.288  0.00  0.00    +0.000 A 
ATOM     21  C   UNL     1      46.208   3.406   7.866  0.00  0.00    +0.000 A 
ATOM     22  C   UNL     1      45.730   2.331   8.604  0.00  0.00    +0.000 A 
ATOM     23 CL   UNL     1      46.081   0.724   8.098  0.00  0.00    +0.000 Cl
ATOM     24  C   UNL     1      44.976   2.544   9.762  0.00  0.00    +0.000 A 
ENDBRANCH  16  18
ENDBRANCH  14  16
ENDBRANCH   1  14
TORSDOF 5
ENDMDL
MODEL 9
REMARK VINA RESULT:    -6.538      3.434      7.775
REMARK INTER + INTRA:          -9.262
REMARK INTER:                  -8.469
REMARK INTRA:                  -0.793
REMARK UNBOUND:                -0.813
REMARK  Name = 
REMARK  7 active torsions:
REMARK  status: ('A' for Active; 'I' for Inactive)
REMARK    1  A    between atoms: C_1  and  C_2
REMARK    2  A    between atoms: C_2  and  C_3
REMARK    3  A    between atoms: C_2  and  C_4
REMARK    4  A    between atoms: C_2  and  C_18
REMARK    5  A    between atoms: C_4  and  O_5
REMARK    6  A    between atoms: O_5  and  C_6
REMARK    7  A    between atoms: C_10  and  C_11
REMARK                            x       y       z     vdW  Elec       q    Type
REMARK                         _______ _______ _______ _____ _____    ______ ____
ROOT
ATOM      1  O   UNL     1      48.309   5.631  15.494  0.00  0.00    +0.000 OA
ENDROOT
BRANCH   1   2
ATOM      2  C   UNL     1      47.892   6.154  14.295  0.00  0.00    +0.000 A 
ATOM      3  C   UNL     1      48.304   7.378  13.765  0.00  0.00    +0.000 A 
ATOM      4  C   UNL     1      47.812   7.808  12.539  0.00  0.00    +0.000 A 
ATOM      5  C   UNL     1      46.916   7.013  11.825  0.00  0.00    +0.000 A 
ATOM      6  C   UNL     1      46.498   5.761  12.311  0.00  0.00    +0.000 A 
ATOM      7  C   UNL     1      46.991   5.361  13.569  0.00  0.00    +0.000 A 
BRANCH   6   8
ATOM      8  C   UNL     1      45.612   4.893  11.502  0.00  0.00    +0.000 A 
ATOM      9  C   UNL     1      45.360   5.121  10.141  0.00  0.00    +0.000 A 
ATOM     10  C   UNL     1      44.497   4.284   9.429  0.00  0.00    +0.000 A 
ATOM     11  C   UNL     1      43.906   3.224  10.093  0.00  0.00    +0.000 A 
ATOM     12  N   UNL     1      44.116   2.955  11.395  0.00  0.00    +0.000 NA
ATOM     13  C   UNL     1      44.953   3.792  12.059  0.00  0.00    +0.000 A 
ENDBRANCH   6   8
ENDBRANCH   1   2
BRANCH   1  14
ATOM     14  C   UNL     1      47.675   4.410  15.895  0.00  0.00    +0.000 C 
BRANCH  14  16
ATOM     15  C   UNL     1      47.416   5.216  18.290  0.00  0.00    +0.000 C 
ATOM     16  C   UNL     1      47.942   4.076  17.393  0.00  0.00    +0.000 C 
ATOM     17  C   UNL     1      47.139   2.803  17.754  0.00  0.00    +0.000 C 
BRANCH  16  18
ATOM     18  C   UNL     1      49.466   3.919  17.599  0.00  0.00    +0.000 A 
ATOM     19  C   UNL     1      50.286   4.975  18.034  0.00  0.00    +0.000 A 
ATOM     20  C   UNL     1      51.657   4.794  18.251  0.00  0.00    +0.000 A 
ATOM     21  C   UNL     1      52.244   3.551  18.038  0.00  0.00    +0.000 A 
ATOM     22  C   UNL     1      51.458   2.494  17.597  0.00  0.00    +0.000 A 
ATOM     23 CL   UNL     1      52.169   0.948  17.340  0.00  0.00    +0.000 Cl
ATOM     24  C   UNL     1      50.089   2.672  17.373  0.00  0.00    +0.000 A 
ENDBRANCH  16  18
ENDBRANCH  14  16
ENDBRANCH   1  14
TORSDOF 5
ENDMDL
