MODEL 1
REMARK VINA RESULT:    -8.939      0.000      0.000
REMARK INTER + INTRA:         -14.636
REMARK INTER:                 -13.120
REMARK INTRA:                  -1.517
REMARK UNBOUND:                -1.517
REMARK  Name = 
REMARK  9 active torsions:
REMARK  status: ('A' for Active; 'I' for Inactive)
REMARK    1  A    between atoms: C_1  and  O_2
REMARK    2  A    between atoms: O_2  and  C_3
REMARK    3  A    between atoms: C_10  and  C_11
REMARK    4  A    between atoms: N_13  and  C_14
REMARK    5  A    between atoms: C_14  and  C_15
REMARK    6  A    between atoms: C_18  and  C_19
REMARK    7  A    between atoms: C_19  and  N_20
REMARK    8  A    between atoms: N_20  and  C_21
REMARK    9  A    between atoms: C_21  and  C_22
REMARK                            x       y       z     vdW  Elec       q    Type
REMARK                         _______ _______ _______ _____ _____    ______ ____
ROOT
ATOM      1  C   UNL     1      45.943   6.951  12.294  0.00  0.00    +0.000 A 
ATOM      2  C   UNL     1      44.782   6.406  12.860  0.00  0.00    +0.000 A 
ATOM      3  C   UNL     1      44.084   5.379  12.211  0.00  0.00    +0.000 A 
ATOM      4  C   UNL     1      44.539   4.863  10.987  0.00  0.00    +0.000 A 
ATOM      5  C   UNL     1      45.687   5.424  10.414  0.00  0.00    +0.000 A 
ATOM      6  C   UNL     1      46.380   6.456  11.059  0.00  0.00    +0.000 A 
ENDROOT
BRANCH   1   7
ATOM      7  C   UNL     1      46.743   7.996  13.035  0.00  0.00    +0.000 C 
BRANCH   7  10
ATOM      8  C   UNL     1      48.484   6.878  14.388  0.00  0.00    +0.000 C 
ATOM      9  O   UNL     1      49.234   6.785  13.416  0.00  0.00    +0.000 OA
ATOM     10  N   UNL     1      47.253   7.464  14.279  0.00  0.00    +0.000 N 
ATOM     11  H   UNL     1      46.686   7.599  15.105  0.00  0.00    +0.000 HD
BRANCH   8  19
ATOM     12  C   UNL     1      47.400   4.189  16.253  0.00  0.00    +0.000 A 
ATOM     13  N   UNL     1      47.247   3.164  17.116  0.00  0.00    +0.000 NA
ATOM     14  C   UNL     1      48.056   3.109  18.177  0.00  0.00    +0.000 A 
ATOM     15  N   UNL     1      49.005   3.981  18.505  0.00  0.00    +0.000 NA
ATOM     16  C   UNL     1      49.129   4.981  17.617  0.00  0.00    +0.000 A 
ATOM     17  S   UNL     1      50.281   6.200  17.882  0.00  0.00    +0.000 S 
ATOM     18  C   UNL     1      49.866   6.978  16.429  0.00  0.00    +0.000 A 
ATOM     19  C   UNL     1      48.868   6.333  15.707  0.00  0.00    +0.000 A 
ATOM     20  C   UNL     1      48.395   5.162  16.448  0.00  0.00    +0.000 A 
BRANCH  12  22
ATOM     21  C   UNL     1      46.992   3.588  14.017  0.00  0.00    +0.000 C 
ATOM     22  O   UNL     1      46.542   4.280  15.177  0.00  0.00    +0.000 OA
ENDBRANCH  12  22
ENDBRANCH   8  19
ENDBRANCH   7  10
ENDBRANCH   1   7
BRANCH   4  23
ATOM     23  C   UNL     1      43.817   3.717  10.308  0.00  0.00    +0.000 C 
BRANCH  23  24
ATOM     24  N   UNL     1      44.654   2.525  10.269  0.00  0.00    +0.000 NA
ATOM     25  H   UNL     1      44.385   1.911  11.037  0.00  0.00    +0.000 HD
BRANCH  24  26
ATOM     26  C   UNL     1      44.510   1.786   9.012  0.00  0.00    +0.000 C 
BRANCH  26  27
ATOM     27  C   UNL     1      45.677   2.095   8.109  0.00  0.00    +0.000 A 
ATOM     28  C   UNL     1      45.919   3.414   7.687  0.00  0.00    +0.000 A 
ATOM     29  C   UNL     1      47.051   3.723   6.933  0.00  0.00    +0.000 A 
ATOM     30  C   UNL     1      47.950   2.718   6.577  0.00  0.00    +0.000 A 
ATOM     31  C   UNL     1      47.702   1.399   6.958  0.00  0.00    +0.000 A 
ATOM     32  C   UNL     1      46.572   1.098   7.714  0.00  0.00    +0.000 A 
ATOM     33  F   UNL     1      46.364  -0.175   8.082  0.00  0.00    +0.000 F 
ENDBRANCH  26  27
ENDBRANCH  24  26
ENDBRANCH  23  24
ENDBRANCH   4  23
TORSDOF 8
ENDMDL
MODEL 2
REMARK VINA RESULT:    -8.389      1.498      1.872
REMARK INTER + INTRA:         -13.829
REMARK INTER:                 -12.408
REMARK INTRA:                  -1.421
REMARK UNBOUND:                -1.517
REMARK  Name = 
REMARK  9 active torsions:
REMARK  status: ('A' for Active; 'I' for Inactive)
REMARK    1  A    between atoms: C_1  and  O_2
REMARK    2  A    between atoms: O_2  and  C_3
REMARK    3  A    between atoms: C_10  and  C_11
REMARK    4  A    between atoms: N_13  and  C_14
REMARK    5  A    between atoms: C_14  and  C_15
REMARK    6  A    between atoms: C_18  and  C_19
REMARK    7  A    between atoms: C_19  and  N_20
REMARK    8  A    between atoms: N_20  and  C_21
REMARK    9  A    between atoms: C_21  and  C_22
REMARK                            x       y       z     vdW  Elec       q    Type
REMARK                         _______ _______ _______ _____ _____    ______ ____
ROOT
ATOM      1  C   UNL     1      46.997   5.978  12.634  0.00  0.00    +0.000 A 
ATOM      2  C   UNL     1      46.412   6.320  11.407  0.00  0.00    +0.000 A 
ATOM      3  C   UNL     1      45.356   5.564  10.882  0.00  0.00    +0.000 A 
ATOM      4  C   UNL     1      44.851   4.454  11.579  0.00  0.00    +0.000 A 
ATOM      5  C   UNL     1      45.452   4.102  12.794  0.00  0.00    +0.000 A 
ATOM      6  C   UNL     1      46.512   4.854  13.315  0.00  0.00    +0.000 A 
ENDROOT
BRANCH   1   7
ATOM      7  C   UNL     1      48.075   6.845  13.241  0.00  0.00    +0.000 C 
BRANCH   7  10
ATOM      8  C   UNL     1      48.949   6.813  15.553  0.00  0.00    +0.000 C 
ATOM      9  O   UNL     1      50.098   6.621  15.157  0.00  0.00    +0.000 OA
ATOM     10  N   UNL     1      47.908   6.940  14.675  0.00  0.00    +0.000 N 
ATOM     11  H   UNL     1      46.986   7.174  15.017  0.00  0.00    +0.000 HD
BRANCH   8  19
ATOM     12  C   UNL     1      48.882   4.477  18.087  0.00  0.00    +0.000 A 
ATOM     13  N   UNL     1      48.887   3.806  19.257  0.00  0.00    +0.000 NA
ATOM     14  C   UNL     1      48.647   4.493  20.377  0.00  0.00    +0.000 A 
ATOM     15  N   UNL     1      48.374   5.790  20.477  0.00  0.00    +0.000 NA
ATOM     16  C   UNL     1      48.385   6.422  19.291  0.00  0.00    +0.000 A 
ATOM     17  S   UNL     1      48.038   8.082  19.222  0.00  0.00    +0.000 S 
ATOM     18  C   UNL     1      48.277   8.114  17.540  0.00  0.00    +0.000 A 
ATOM     19  C   UNL     1      48.638   6.885  16.996  0.00  0.00    +0.000 A 
ATOM     20  C   UNL     1      48.652   5.863  18.044  0.00  0.00    +0.000 A 
BRANCH  12  22
ATOM     21  C   UNL     1      47.890   3.263  16.336  0.00  0.00    +0.000 C 
ATOM     22  O   UNL     1      49.085   3.771  16.921  0.00  0.00    +0.000 OA
ENDBRANCH  12  22
ENDBRANCH   8  19
ENDBRANCH   7  10
ENDBRANCH   1   7
BRANCH   4  23
ATOM     23  C   UNL     1      43.676   3.664  11.040  0.00  0.00    +0.000 C 
BRANCH  23  24
ATOM     24  N   UNL     1      43.862   3.354   9.628  0.00  0.00    +0.000 NA
ATOM     25  H   UNL     1      44.373   4.120   9.190  0.00  0.00    +0.000 HD
BRANCH  24  26
ATOM     26  C   UNL     1      44.619   2.116   9.426  0.00  0.00    +0.000 C 
BRANCH  26  27
ATOM     27  C   UNL     1      45.655   2.327   8.353  0.00  0.00    +0.000 A 
ATOM     28  C   UNL     1      45.918   3.618   7.864  0.00  0.00    +0.000 A 
ATOM     29  C   UNL     1      46.943   3.835   6.942  0.00  0.00    +0.000 A 
ATOM     30  C   UNL     1      47.710   2.763   6.486  0.00  0.00    +0.000 A 
ATOM     31  C   UNL     1      47.435   1.472   6.935  0.00  0.00    +0.000 A 
ATOM     32  C   UNL     1      46.413   1.263   7.858  0.00  0.00    +0.000 A 
ATOM     33  F   UNL     1      46.179   0.015   8.287  0.00  0.00    +0.000 F 
ENDBRANCH  26  27
ENDBRANCH  24  26
ENDBRANCH  23  24
ENDBRANCH   4  23
TORSDOF 8
ENDMDL
MODEL 3
REMARK VINA RESULT:    -8.244      2.125      2.716
REMARK INTER + INTRA:         -13.616
REMARK INTER:                 -12.451
REMARK INTRA:                  -1.165
REMARK UNBOUND:                -1.517
REMARK  Name = 
REMARK  9 active torsions:
REMARK  status: ('A' for Active; 'I' for Inactive)
REMARK    1  A    between atoms: C_1  and  O_2
REMARK    2  A    between atoms: O_2  and  C_3
REMARK    3  A    between atoms: C_10  and  C_11
REMARK    4  A    between atoms: N_13  and  C_14
REMARK    5  A    between atoms: C_14  and  C_15
REMARK    6  A    between atoms: C_18  and  C_19
REMARK    7  A    between atoms: C_19  and  N_20
REMARK    8  A    between atoms: N_20  and  C_21
REMARK    9  A    between atoms: C_21  and  C_22
REMARK                            x       y       z     vdW  Elec       q    Type
REMARK                         _______ _______ _______ _____ _____    ______ ____
ROOT
ATOM      1  C   UNL     1      47.601   6.500  13.902  0.00  0.00    +0.000 A 
ATOM      2  C   UNL     1      47.360   7.069  12.644  0.00  0.00    +0.000 A 
ATOM      3  C   UNL     1      46.547   6.417  11.707  0.00  0.00    +0.000 A 
ATOM      4  C   UNL     1      45.945   5.185  12.012  0.00  0.00    +0.000 A 
ATOM      5  C   UNL     1      46.206   4.608  13.261  0.00  0.00    +0.000 A 
ATOM      6  C   UNL     1      47.025   5.257  14.194  0.00  0.00    +0.000 A 
ENDROOT
BRANCH   1   7
ATOM      7  C   UNL     1      48.405   7.243  14.942  0.00  0.00    +0.000 C 
BRANCH   7  10
ATOM      8  C   UNL     1      49.376   6.103  16.909  0.00  0.00    +0.000 C 
ATOM      9  O   UNL     1      48.536   6.599  17.660  0.00  0.00    +0.000 OA
ATOM     10  N   UNL     1      49.371   6.367  15.567  0.00  0.00    +0.000 N 
ATOM     11  H   UNL     1      50.021   5.889  14.958  0.00  0.00    +0.000 HD
BRANCH   8  19
ATOM     12  C   UNL     1      49.865   2.690  16.894  0.00  0.00    +0.000 A 
ATOM     13  N   UNL     1      50.347   1.432  16.928  0.00  0.00    +0.000 NA
ATOM     14  C   UNL     1      51.561   1.237  17.449  0.00  0.00    +0.000 A 
ATOM     15  N   UNL     1      52.364   2.159  17.973  0.00  0.00    +0.000 NA
ATOM     16  C   UNL     1      51.850   3.399  17.913  0.00  0.00    +0.000 A 
ATOM     17  S   UNL     1      52.729   4.703  18.552  0.00  0.00    +0.000 S 
ATOM     18  C   UNL     1      51.524   5.808  18.087  0.00  0.00    +0.000 A 
ATOM     19  C   UNL     1      50.446   5.226  17.429  0.00  0.00    +0.000 A 
ATOM     20  C   UNL     1      50.624   3.773  17.371  0.00  0.00    +0.000 A 
BRANCH  12  22
ATOM     21  C   UNL     1      47.580   2.921  17.397  0.00  0.00    +0.000 C 
ATOM     22  O   UNL     1      48.595   2.898  16.398  0.00  0.00    +0.000 OA
ENDBRANCH  12  22
ENDBRANCH   8  19
ENDBRANCH   7  10
ENDBRANCH   1   7
BRANCH   4  23
ATOM     23  C   UNL     1      45.025   4.502  11.022  0.00  0.00    +0.000 C 
BRANCH  23  24
ATOM     24  N   UNL     1      45.248   5.005   9.672  0.00  0.00    +0.000 NA
ATOM     25  H   UNL     1      46.251   5.008   9.486  0.00  0.00    +0.000 HD
BRANCH  24  26
ATOM     26  C   UNL     1      44.590   4.180   8.656  0.00  0.00    +0.000 C 
BRANCH  26  27
ATOM     27  C   UNL     1      45.587   3.217   8.064  0.00  0.00    +0.000 A 
ATOM     28  C   UNL     1      46.599   3.680   7.207  0.00  0.00    +0.000 A 
ATOM     29  C   UNL     1      47.584   2.812   6.735  0.00  0.00    +0.000 A 
ATOM     30  C   UNL     1      47.563   1.466   7.100  0.00  0.00    +0.000 A 
ATOM     31  C   UNL     1      46.542   0.986   7.920  0.00  0.00    +0.000 A 
ATOM     32  C   UNL     1      45.565   1.859   8.392  0.00  0.00    +0.000 A 
ATOM     33  F   UNL     1      44.603   1.377   9.192  0.00  0.00    +0.000 F 
ENDBRANCH  26  27
ENDBRANCH  24  26
ENDBRANCH  23  24
ENDBRANCH   4  23
TORSDOF 8
ENDMDL
MODEL 4
REMARK VINA RESULT:    -7.884      1.731      2.238
REMARK INTER + INTRA:         -13.088
REMARK INTER:                 -11.645
REMARK INTRA:                  -1.443
REMARK UNBOUND:                -1.517
REMARK  Name = 
REMARK  9 active torsions:
REMARK  status: ('A' for Active; 'I' for Inactive)
REMARK    1  A    between atoms: C_1  and  O_2
REMARK    2  A    between atoms: O_2  and  C_3
REMARK    3  A    between atoms: C_10  and  C_11
REMARK    4  A    between atoms: N_13  and  C_14
REMARK    5  A    between atoms: C_14  and  C_15
REMARK    6  A    between atoms: C_18  and  C_19
REMARK    7  A    between atoms: C_19  and  N_20
REMARK    8  A    between atoms: N_20  and  C_21
REMARK    9  A    between atoms: C_21  and  C_22
REMARK                            x       y       z     vdW  Elec       q    Type
REMARK                         _______ _______ _______ _____ _____    ______ ____
ROOT
ATOM      1  C   UNL     1      46.697   6.649  12.913  0.00  0.00    +0.000 A 
ATOM      2  C   UNL     1      46.048   6.871  11.691  0.00  0.00    +0.000 A 
ATOM      3  C   UNL     1      45.225   5.887  11.129  0.00  0.00    +0.000 A 
ATOM      4  C   UNL     1      45.019   4.662  11.784  0.00  0.00    +0.000 A 
ATOM      5  C   UNL     1      45.686   4.434  12.995  0.00  0.00    +0.000 A 
ATOM      6  C   UNL     1      46.516   5.416  13.552  0.00  0.00    +0.000 A 
ENDROOT
BRANCH   1   7
ATOM      7  C   UNL     1      47.514   7.743  13.561  0.00  0.00    +0.000 C 
BRANCH   7  10
ATOM      8  C   UNL     1      49.054   7.824  15.493  0.00  0.00    +0.000 C 
ATOM      9  O   UNL     1      48.627   8.927  15.836  0.00  0.00    +0.000 OA
ATOM     10  N   UNL     1      48.553   7.180  14.395  0.00  0.00    +0.000 N 
ATOM     11  H   UNL     1      48.863   6.243  14.177  0.00  0.00    +0.000 HD
BRANCH   8  19
ATOM     12  C   UNL     1      49.434   4.679  16.855  0.00  0.00    +0.000 A 
ATOM     13  N   UNL     1      49.878   3.514  17.367  0.00  0.00    +0.000 NA
ATOM     14  C   UNL     1      51.135   3.461  17.813  0.00  0.00    +0.000 A 
ATOM     15  N   UNL     1      52.019   4.455  17.833  0.00  0.00    +0.000 NA
ATOM     16  C   UNL     1      51.540   5.595  17.309  0.00  0.00    +0.000 A 
ATOM     17  S   UNL     1      52.523   6.978  17.268  0.00  0.00    +0.000 S 
ATOM     18  C   UNL     1      51.309   7.880  16.494  0.00  0.00    +0.000 A 
ATOM     19  C   UNL     1      50.147   7.161  16.235  0.00  0.00    +0.000 A 
ATOM     20  C   UNL     1      50.273   5.804  16.771  0.00  0.00    +0.000 A 
BRANCH  12  22
ATOM     21  C   UNL     1      47.230   3.920  17.157  0.00  0.00    +0.000 C 
ATOM     22  O   UNL     1      48.124   4.758  16.432  0.00  0.00    +0.000 OA
ENDBRANCH  12  22
ENDBRANCH   8  19
ENDBRANCH   7  10
ENDBRANCH   1   7
BRANCH   4  23
ATOM     23  C   UNL     1      44.089   3.615  11.206  0.00  0.00    +0.000 C 
BRANCH  23  24
ATOM     24  N   UNL     1      44.843   2.493  10.663  0.00  0.00    +0.000 NA
ATOM     25  H   UNL     1      44.697   1.680  11.262  0.00  0.00    +0.000 HD
BRANCH  24  26
ATOM     26  C   UNL     1      44.425   2.148   9.302  0.00  0.00    +0.000 C 
BRANCH  26  27
ATOM     27  C   UNL     1      45.599   2.273   8.366  0.00  0.00    +0.000 A 
ATOM     28  C   UNL     1      46.367   1.144   8.035  0.00  0.00    +0.000 A 
ATOM     29  C   UNL     1      47.394   1.232   7.094  0.00  0.00    +0.000 A 
ATOM     30  C   UNL     1      47.677   2.453   6.481  0.00  0.00    +0.000 A 
ATOM     31  C   UNL     1      46.946   3.589   6.829  0.00  0.00    +0.000 A 
ATOM     32  C   UNL     1      45.921   3.493   7.766  0.00  0.00    +0.000 A 
ATOM     33  F   UNL     1      45.222   4.596   8.071  0.00  0.00    +0.000 F 
ENDBRANCH  26  27
ENDBRANCH  24  26
ENDBRANCH  23  24
ENDBRANCH   4  23
TORSDOF 8
ENDMDL
MODEL 5
REMARK VINA RESULT:    -7.797      1.426      1.788
REMARK INTER + INTRA:         -12.960
REMARK INTER:                 -11.732
REMARK INTRA:                  -1.227
REMARK UNBOUND:                -1.517
REMARK  Name = 
REMARK  9 active torsions:
REMARK  status: ('A' for Active; 'I' for Inactive)
REMARK    1  A    between atoms: C_1  and  O_2
REMARK    2  A    between atoms: O_2  and  C_3
REMARK    3  A    between atoms: C_10  and  C_11
REMARK    4  A    between atoms: N_13  and  C_14
REMARK    5  A    between atoms: C_14  and  C_15
REMARK    6  A    between atoms: C_18  and  C_19
REMARK    7  A    between atoms: C_19  and  N_20
REMARK    8  A    between atoms: N_20  and  C_21
REMARK    9  A    between atoms: C_21  and  C_22
REMARK                            x       y       z     vdW  Elec       q    Type
REMARK                         _______ _______ _______ _____ _____    ______ ____
ROOT
ATOM      1  C   UNL     1      46.986   8.073  13.082  0.00  0.00    +0.000 A 
ATOM      2  C   UNL     1      45.686   8.467  12.738  0.00  0.00    +0.000 A 
ATOM      3  C   UNL     1      44.884   7.657  11.924  0.00  0.00    +0.000 A 
ATOM      4  C   UNL     1      45.360   6.425  11.445  0.00  0.00    +0.000 A 
ATOM      5  C   UNL     1      46.667   6.044  11.772  0.00  0.00    +0.000 A 
ATOM      6  C   UNL     1      47.471   6.858  12.580  0.00  0.00    +0.000 A 
ENDROOT
BRANCH   1   7
ATOM      7  C   UNL     1      47.817   8.903  14.031  0.00  0.00    +0.000 C 
BRANCH   7  10
ATOM      8  C   UNL     1      49.188   8.162  15.950  0.00  0.00    +0.000 C 
ATOM      9  O   UNL     1      50.192   8.710  15.494  0.00  0.00    +0.000 OA
ATOM     10  N   UNL     1      47.990   8.220  15.294  0.00  0.00    +0.000 N 
ATOM     11  H   UNL     1      47.162   7.831  15.724  0.00  0.00    +0.000 HD
BRANCH   8  19
ATOM     12  C   UNL     1      48.385   4.916  16.787  0.00  0.00    +0.000 A 
ATOM     13  N   UNL     1      48.258   3.696  17.348  0.00  0.00    +0.000 NA
ATOM     14  C   UNL     1      48.631   3.547  18.621  0.00  0.00    +0.000 A 
ATOM     15  N   UNL     1      49.105   4.489  19.432  0.00  0.00    +0.000 NA
ATOM     16  C   UNL     1      49.222   5.686  18.833  0.00  0.00    +0.000 A 
ATOM     17  S   UNL     1      49.794   7.015  19.721  0.00  0.00    +0.000 S 
ATOM     18  C   UNL     1      49.690   8.031  18.362  0.00  0.00    +0.000 A 
ATOM     19  C   UNL     1      49.241   7.393  17.211  0.00  0.00    +0.000 A 
ATOM     20  C   UNL     1      48.914   5.998  17.512  0.00  0.00    +0.000 A 
BRANCH  12  22
ATOM     21  C   UNL     1      47.144   4.034  14.995  0.00  0.00    +0.000 C 
ATOM     22  O   UNL     1      47.961   5.092  15.487  0.00  0.00    +0.000 OA
ENDBRANCH  12  22
ENDBRANCH   8  19
ENDBRANCH   7  10
ENDBRANCH   1   7
BRANCH   4  23
ATOM     23  C   UNL     1      44.478   5.523  10.607  0.00  0.00    +0.000 C 
BRANCH  23  24
ATOM     24  N   UNL     1      45.148   5.146   9.368  0.00  0.00    +0.000 NA
ATOM     25  H   UNL     1      46.115   4.901   9.581  0.00  0.00    +0.000 HD
BRANCH  24  26
ATOM     26  C   UNL     1      44.510   3.999   8.717  0.00  0.00    +0.000 C 
BRANCH  26  27
ATOM     27  C   UNL     1      45.563   3.128   8.084  0.00  0.00    +0.000 A 
ATOM     28  C   UNL     1      46.569   3.697   7.284  0.00  0.00    +0.000 A 
ATOM     29  C   UNL     1      47.604   2.911   6.776  0.00  0.00    +0.000 A 
ATOM     30  C   UNL     1      47.640   1.543   7.047  0.00  0.00    +0.000 A 
ATOM     31  C   UNL     1      46.629   0.960   7.809  0.00  0.00    +0.000 A 
ATOM     32  C   UNL     1      45.601   1.751   8.317  0.00  0.00    +0.000 A 
ATOM     33  F   UNL     1      44.648   1.169   9.060  0.00  0.00    +0.000 F 
ENDBRANCH  26  27
ENDBRANCH  24  26
ENDBRANCH  23  24
ENDBRANCH   4  23
TORSDOF 8
ENDMDL
MODEL 6
REMARK VINA RESULT:    -7.695      2.240      3.533
REMARK INTER + INTRA:         -12.810
REMARK INTER:                 -11.613
REMARK INTRA:                  -1.197
REMARK UNBOUND:                -1.517
REMARK  Name = 
REMARK  9 active torsions:
REMARK  status: ('A' for Active; 'I' for Inactive)
REMARK    1  A    between atoms: C_1  and  O_2
REMARK    2  A    between atoms: O_2  and  C_3
REMARK    3  A    between atoms: C_10  and  C_11
REMARK    4  A    between atoms: N_13  and  C_14
REMARK    5  A    between atoms: C_14  and  C_15
REMARK    6  A    between atoms: C_18  and  C_19
REMARK    7  A    between atoms: C_19  and  N_20
REMARK    8  A    between atoms: N_20  and  C_21
REMARK    9  A    between atoms: C_21  and  C_22
REMARK                            x       y       z     vdW  Elec       q    Type
REMARK                         _______ _______ _______ _____ _____    ______ ____
ROOT
ATOM      1  C   UNL     1      46.761   4.178  13.845  0.00  0.00    +0.000 A 
ATOM      2  C   UNL     1      46.865   5.520  13.454  0.00  0.00    +0.000 A 
ATOM      3  C   UNL     1      46.225   5.980  12.296  0.00  0.00    +0.000 A 
ATOM      4  C   UNL     1      45.454   5.110  11.508  0.00  0.00    +0.000 A 
ATOM      5  C   UNL     1      45.369   3.765  11.889  0.00  0.00    +0.000 A 
ATOM      6  C   UNL     1      46.015   3.305  13.043  0.00  0.00    +0.000 A 
ENDROOT
BRANCH   1   7
ATOM      7  C   UNL     1      47.377   3.703  15.140  0.00  0.00    +0.000 C 
BRANCH   7  10
ATOM      8  C   UNL     1      48.443   4.986  16.964  0.00  0.00    +0.000 C 
ATOM      9  O   UNL     1      49.455   4.286  16.916  0.00  0.00    +0.000 OA
ATOM     10  N   UNL     1      47.388   4.765  16.122  0.00  0.00    +0.000 N 
ATOM     11  H   UNL     1      46.600   5.398  16.125  0.00  0.00    +0.000 HD
BRANCH   8  19
ATOM     12  C   UNL     1      48.414   8.425  16.720  0.00  0.00    +0.000 A 
ATOM     13  N   UNL     1      48.260   9.753  16.892  0.00  0.00    +0.000 NA
ATOM     14  C   UNL     1      47.991  10.201  18.121  0.00  0.00    +0.000 A 
ATOM     15  N   UNL     1      47.875   9.476  19.230  0.00  0.00    +0.000 NA
ATOM     16  C   UNL     1      48.028   8.159  19.014  0.00  0.00    +0.000 A 
ATOM     17  S   UNL     1      47.932   7.079  20.320  0.00  0.00    +0.000 S 
ATOM     18  C   UNL     1      48.170   5.742  19.297  0.00  0.00    +0.000 A 
ATOM     19  C   UNL     1      48.311   6.076  17.954  0.00  0.00    +0.000 A 
ATOM     20  C   UNL     1      48.274   7.531  17.796  0.00  0.00    +0.000 A 
BRANCH  12  22
ATOM     21  C   UNL     1      48.894   8.977  14.486  0.00  0.00    +0.000 C 
ATOM     22  O   UNL     1      48.736   7.954  15.465  0.00  0.00    +0.000 OA
ENDBRANCH  12  22
ENDBRANCH   8  19
ENDBRANCH   7  10
ENDBRANCH   1   7
BRANCH   4  23
ATOM     23  C   UNL     1      44.719   5.615  10.283  0.00  0.00    +0.000 C 
BRANCH  23  24
ATOM     24  N   UNL     1      45.392   5.191   9.062  0.00  0.00    +0.000 NA
ATOM     25  H   UNL     1      46.327   4.861   9.301  0.00  0.00    +0.000 HD
BRANCH  24  26
ATOM     26  C   UNL     1      44.678   4.108   8.380  0.00  0.00    +0.000 C 
BRANCH  26  27
ATOM     27  C   UNL     1      45.671   3.132   7.804  0.00  0.00    +0.000 A 
ATOM     28  C   UNL     1      46.599   3.552   6.836  0.00  0.00    +0.000 A 
ATOM     29  C   UNL     1      47.585   2.681   6.371  0.00  0.00    +0.000 A 
ATOM     30  C   UNL     1      47.649   1.374   6.856  0.00  0.00    +0.000 A 
ATOM     31  C   UNL     1      46.711   0.935   7.789  0.00  0.00    +0.000 A 
ATOM     32  C   UNL     1      45.732   1.810   8.252  0.00  0.00    +0.000 A 
ATOM     33  F   UNL     1      44.851   1.369   9.162  0.00  0.00    +0.000 F 
ENDBRANCH  26  27
ENDBRANCH  24  26
ENDBRANCH  23  24
ENDBRANCH   4  23
TORSDOF 8
ENDMDL
MODEL 7
REMARK VINA RESULT:    -7.534      2.562      3.018
REMARK INTER + INTRA:         -12.574
REMARK INTER:                 -11.345
REMARK INTRA:                  -1.229
REMARK UNBOUND:                -1.517
REMARK  Name = 
REMARK  9 active torsions:
REMARK  status: ('A' for Active; 'I' for Inactive)
REMARK    1  A    between atoms: C_1  and  O_2
REMARK    2  A    between atoms: O_2  and  C_3
REMARK    3  A    between atoms: C_10  and  C_11
REMARK    4  A    between atoms: N_13  and  C_14
REMARK    5  A    between atoms: C_14  and  C_15
REMARK    6  A    between atoms: C_18  and  C_19
REMARK    7  A    between atoms: C_19  and  N_20
REMARK    8  A    between atoms: N_20  and  C_21
REMARK    9  A    between atoms: C_21  and  C_22
REMARK                            x       y       z     vdW  Elec       q    Type
REMARK                         _______ _______ _______ _____ _____    ______ ____
ROOT
ATOM      1  C   UNL     1      46.905   7.234  13.075  0.00  0.00    +0.000 A 
ATOM      2  C   UNL     1      45.834   7.392  12.185  0.00  0.00    +0.000 A 
ATOM      3  C   UNL     1      45.032   6.300  11.830  0.00  0.00    +0.000 A 
ATOM      4  C   UNL     1      45.275   5.025  12.367  0.00  0.00    +0.000 A 
ATOM      5  C   UNL     1      46.359   4.866  13.239  0.00  0.00    +0.000 A 
ATOM      6  C   UNL     1      47.165   5.957  13.588  0.00  0.00    +0.000 A 
ENDROOT
BRANCH   1   7
ATOM      7  C   UNL     1      47.714   8.427  13.526  0.00  0.00    +0.000 C 
BRANCH   7  10
ATOM      8  C   UNL     1      48.469   8.620  15.873  0.00  0.00    +0.000 C 
ATOM      9  O   UNL     1      49.622   8.315  15.567  0.00  0.00    +0.000 OA
ATOM     10  N   UNL     1      47.484   8.702  14.927  0.00  0.00    +0.000 N 
ATOM     11  H   UNL     1      46.563   9.029  15.187  0.00  0.00    +0.000 HD
BRANCH   8  19
ATOM     12  C   UNL     1      47.896   6.586  18.596  0.00  0.00    +0.000 A 
ATOM     13  N   UNL     1      47.731   6.043  19.819  0.00  0.00    +0.000 NA
ATOM     14  C   UNL     1      47.538   6.866  20.853  0.00  0.00    +0.000 A 
ATOM     15  N   UNL     1      47.465   8.193  20.815  0.00  0.00    +0.000 NA
ATOM     16  C   UNL     1      47.641   8.694  19.581  0.00  0.00    +0.000 A 
ATOM     17  S   UNL     1      47.562  10.372  19.338  0.00  0.00    +0.000 S 
ATOM     18  C   UNL     1      47.897  10.199  17.681  0.00  0.00    +0.000 A 
ATOM     19  C   UNL     1      48.092   8.882  17.278  0.00  0.00    +0.000 A 
ATOM     20  C   UNL     1      47.888   7.980  18.412  0.00  0.00    +0.000 A 
BRANCH  12  22
ATOM     21  C   UNL     1      47.390   4.491  17.656  0.00  0.00    +0.000 C 
ATOM     22  O   UNL     1      48.052   5.744  17.515  0.00  0.00    +0.000 OA
ENDBRANCH  12  22
ENDBRANCH   8  19
ENDBRANCH   7  10
ENDBRANCH   1   7
BRANCH   4  23
ATOM     23  C   UNL     1      44.379   3.852  12.025  0.00  0.00    +0.000 C 
BRANCH  23  24
ATOM     24  N   UNL     1      45.081   2.889  11.187  0.00  0.00    +0.000 NA
ATOM     25  H   UNL     1      45.116   1.995  11.676  0.00  0.00    +0.000 HD
BRANCH  24  26
ATOM     26  C   UNL     1      44.418   2.688   9.896  0.00  0.00    +0.000 C 
BRANCH  26  27
ATOM     27  C   UNL     1      45.453   2.608   8.804  0.00  0.00    +0.000 A 
ATOM     28  C   UNL     1      45.980   1.366   8.414  0.00  0.00    +0.000 A 
ATOM     29  C   UNL     1      46.864   1.273   7.339  0.00  0.00    +0.000 A 
ATOM     30  C   UNL     1      47.244   2.423   6.646  0.00  0.00    +0.000 A 
ATOM     31  C   UNL     1      46.756   3.667   7.046  0.00  0.00    +0.000 A 
ATOM     32  C   UNL     1      45.871   3.751   8.118  0.00  0.00    +0.000 A 
ATOM     33  F   UNL     1      45.404   4.956   8.473  0.00  0.00    +0.000 F 
ENDBRANCH  26  27
ENDBRANCH  24  26
ENDBRANCH  23  24
ENDBRANCH   4  23
TORSDOF 8
ENDMDL
MODEL 8
REMARK VINA RESULT:    -7.300      2.305      3.492
REMARK INTER + INTRA:         -12.231
REMARK INTER:                 -11.070
REMARK INTRA:                  -1.161
REMARK UNBOUND:                -1.517
REMARK  Name = 
REMARK  9 active torsions:
REMARK  status: ('A' for Active; 'I' for Inactive)
REMARK    1  A    between atoms: C_1  and  O_2
REMARK    2  A    between atoms: O_2  and  C_3
REMARK    3  A    between atoms: C_10  and  C_11
REMARK    4  A    between atoms: N_13  and  C_14
REMARK    5  A    between atoms: C_14  and  C_15
REMARK    6  A    between atoms: C_18  and  C_19
REMARK    7  A    between atoms: C_19  and  N_20
REMARK    8  A    between atoms: N_20  and  C_21
REMARK    9  A    between atoms: C_21  and  C_22
REMARK                            x       y       z     vdW  Elec       q    Type
REMARK                         _______ _______ _______ _____ _____    ______ ____
ROOT
ATOM      1  C   UNL     1      46.713   4.332  14.117  0.00  0.00    +0.000 A 
ATOM      2  C   UNL     1      47.003   5.653  13.748  0.00  0.00    +0.000 A 
ATOM      3  C   UNL     1      46.535   6.176  12.536  0.00  0.00    +0.000 A 
ATOM      4  C   UNL     1      45.754   5.395  11.669  0.00  0.00    +0.000 A 
ATOM      5  C   UNL     1      45.484   4.069  12.030  0.00  0.00    +0.000 A 
ATOM      6  C   UNL     1      45.958   3.543  13.239  0.00  0.00    +0.000 A 
ENDROOT
BRANCH   1   7
ATOM      7  C   UNL     1      47.142   3.796  15.462  0.00  0.00    +0.000 C 
BRANCH   7  10
ATOM      8  C   UNL     1      47.739   5.156  17.438  0.00  0.00    +0.000 C 
ATOM      9  O   UNL     1      46.794   4.703  18.083  0.00  0.00    +0.000 OA
ATOM     10  N   UNL     1      47.977   4.754  16.153  0.00  0.00    +0.000 N 
ATOM     11  H   UNL     1      48.803   5.080  15.668  0.00  0.00    +0.000 HD
BRANCH   8  19
ATOM     12  C   UNL     1      51.135   5.264  18.026  0.00  0.00    +0.000 A 
ATOM     13  N   UNL     1      52.419   5.606  18.254  0.00  0.00    +0.000 NA
ATOM     14  C   UNL     1      52.673   6.844  18.687  0.00  0.00    +0.000 A 
ATOM     15  N   UNL     1      51.784   7.798  18.949  0.00  0.00    +0.000 NA
ATOM     16  C   UNL     1      50.519   7.419  18.702  0.00  0.00    +0.000 A 
ATOM     17  S   UNL     1      49.246   8.502  18.997  0.00  0.00    +0.000 S 
ATOM     18  C   UNL     1      48.095   7.380  18.446  0.00  0.00    +0.000 A 
ATOM     19  C   UNL     1      48.641   6.176  18.014  0.00  0.00    +0.000 A 
ATOM     20  C   UNL     1      50.091   6.186  18.216  0.00  0.00    +0.000 A 
BRANCH  12  22
ATOM     21  C   UNL     1      51.963   3.084  17.725  0.00  0.00    +0.000 C 
ATOM     22  O   UNL     1      50.857   3.975  17.621  0.00  0.00    +0.000 OA
ENDBRANCH  12  22
ENDBRANCH   8  19
ENDBRANCH   7  10
ENDBRANCH   1   7
BRANCH   4  23
ATOM     23  C   UNL     1      45.203   5.973  10.382  0.00  0.00    +0.000 C 
BRANCH  23  24
ATOM     24  N   UNL     1      45.812   5.333   9.223  0.00  0.00    +0.000 NA
ATOM     25  H   UNL     1      46.650   4.837   9.525  0.00  0.00    +0.000 HD
BRANCH  24  26
ATOM     26  C   UNL     1      44.911   4.373   8.580  0.00  0.00    +0.000 C 
BRANCH  26  27
ATOM     27  C   UNL     1      45.717   3.259   7.964  0.00  0.00    +0.000 A 
ATOM     28  C   UNL     1      46.596   3.522   6.900  0.00  0.00    +0.000 A 
ATOM     29  C   UNL     1      47.417   2.516   6.391  0.00  0.00    +0.000 A 
ATOM     30  C   UNL     1      47.362   1.230   6.927  0.00  0.00    +0.000 A 
ATOM     31  C   UNL     1      46.468   0.946   7.959  0.00  0.00    +0.000 A 
ATOM     32  C   UNL     1      45.653   1.956   8.466  0.00  0.00    +0.000 A 
ATOM     33  F   UNL     1      44.813   1.663   9.468  0.00  0.00    +0.000 F 
ENDBRANCH  26  27
ENDBRANCH  24  26
ENDBRANCH  23  24
ENDBRANCH   4  23
TORSDOF 8
ENDMDL
MODEL 9
REMARK VINA RESULT:    -7.029      2.640      3.881
REMARK INTER + INTRA:         -11.834
REMARK INTER:                 -10.606
REMARK INTRA:                  -1.228
REMARK UNBOUND:                -1.517
REMARK  Name = 
REMARK  9 active torsions:
REMARK  status: ('A' for Active; 'I' for Inactive)
REMARK    1  A    between atoms: C_1  and  O_2
REMARK    2  A    between atoms: O_2  and  C_3
REMARK    3  A    between atoms: C_10  and  C_11
REMARK    4  A    between atoms: N_13  and  C_14
REMARK    5  A    between atoms: C_14  and  C_15
REMARK    6  A    between atoms: C_18  and  C_19
REMARK    7  A    between atoms: C_19  and  N_20
REMARK    8  A    between atoms: N_20  and  C_21
REMARK    9  A    between atoms: C_21  and  C_22
REMARK                            x       y       z     vdW  Elec       q    Type
REMARK                         _______ _______ _______ _____ _____    ______ ____
ROOT
ATOM      1  C   UNL     1      45.928   6.938  12.741  0.00  0.00    +0.000 A 
ATOM      2  C   UNL     1      46.266   5.623  13.092  0.00  0.00    +0.000 A 
ATOM      3  C   UNL     1      45.566   4.537  12.551  0.00  0.00    +0.000 A 
ATOM      4  C   UNL     1      44.520   4.738  11.636  0.00  0.00    +0.000 A 
ATOM      5  C   UNL     1      44.171   6.054  11.305  0.00  0.00    +0.000 A 
ATOM      6  C   UNL     1      44.866   7.140  11.851  0.00  0.00    +0.000 A 
ENDROOT
BRANCH   1   7
ATOM      7  C   UNL     1      46.739   8.104  13.255  0.00  0.00    +0.000 C 
BRANCH   7  10
ATOM      8  C   UNL     1      48.835   8.487  14.509  0.00  0.00    +0.000 C 
ATOM      9  O   UNL     1      48.615   9.696  14.583  0.00  0.00    +0.000 OA
ATOM     10  N   UNL     1      47.959   7.645  13.880  0.00  0.00    +0.000 N 
ATOM     11  H   UNL     1      48.120   6.647  13.898  0.00  0.00    +0.000 HD
BRANCH   8  19
ATOM     12  C   UNL     1      52.142   8.533  13.536  0.00  0.00    +0.000 A 
ATOM     13  N   UNL     1      53.487   8.485  13.447  0.00  0.00    +0.000 NA
ATOM     14  C   UNL     1      54.160   7.866  14.420  0.00  0.00    +0.000 A 
ATOM     15  N   UNL     1      53.647   7.257  15.485  0.00  0.00    +0.000 NA
ATOM     16  C   UNL     1      52.306   7.334  15.540  0.00  0.00    +0.000 A 
ATOM     17  S   UNL     1      51.475   6.595  16.822  0.00  0.00    +0.000 S 
ATOM     18  C   UNL     1      49.977   7.137  16.229  0.00  0.00    +0.000 A 
ATOM     19  C   UNL     1      50.069   7.896  15.068  0.00  0.00    +0.000 A 
ATOM     20  C   UNL     1      51.465   7.970  14.631  0.00  0.00    +0.000 A 
BRANCH  12  22
ATOM     21  C   UNL     1      51.087   8.244  11.455  0.00  0.00    +0.000 C 
ATOM     22  O   UNL     1      51.434   9.130  12.514  0.00  0.00    +0.000 OA
ENDBRANCH  12  22
ENDBRANCH   8  19
ENDBRANCH   7  10
ENDBRANCH   1   7
BRANCH   4  23
ATOM     23  C   UNL     1      43.795   3.565  11.011  0.00  0.00    +0.000 C 
BRANCH  23  24
ATOM     24  N   UNL     1      44.737   2.532  10.599  0.00  0.00    +0.000 NA
ATOM     25  H   UNL     1      44.699   1.767  11.273  0.00  0.00    +0.000 HD
BRANCH  24  26
ATOM     26  C   UNL     1      44.429   1.996   9.270  0.00  0.00    +0.000 C 
BRANCH  26  27
ATOM     27  C   UNL     1      45.608   2.205   8.356  0.00  0.00    +0.000 A 
ATOM     28  C   UNL     1      46.440   1.127   8.011  0.00  0.00    +0.000 A 
ATOM     29  C   UNL     1      47.473   1.291   7.088  0.00  0.00    +0.000 A 
ATOM     30  C   UNL     1      47.699   2.539   6.507  0.00  0.00    +0.000 A 
ATOM     31  C   UNL     1      46.903   3.627   6.868  0.00  0.00    +0.000 A 
ATOM     32  C   UNL     1      45.871   3.454   7.787  0.00  0.00    +0.000 A 
ATOM     33  F   UNL     1      45.110   4.511   8.106  0.00  0.00    +0.000 F 
ENDBRANCH  26  27
ENDBRANCH  24  26
ENDBRANCH  23  24
ENDBRANCH   4  23
TORSDOF 8
ENDMDL
