MODEL 1
REMARK VINA RESULT:    -7.544      0.000      0.000
REMARK INTER + INTRA:         -10.088
REMARK INTER:                  -9.529
REMARK INTRA:                  -0.560
REMARK UNBOUND:                -0.560
REMARK  Name = 
REMARK  5 active torsions:
REMARK  status: ('A' for Active; 'I' for Inactive)
REMARK    1  A    between atoms: N_1  and  C_2
REMARK    2  A    between atoms: C_2  and  C_3
REMARK    3  A    between atoms: C_3  and  C_4
REMARK    4  A    between atoms: C_7  and  C_8
REMARK    5  A    between atoms: C_8  and  N_9
REMARK                            x       y       z     vdW  Elec       q    Type
REMARK                         _______ _______ _______ _____ _____    ______ ____
ROOT
ATOM      1  C   UNL     1      45.886   3.415   7.654  0.00  0.00    +0.000 A 
ATOM      2  C   UNL     1      45.104   2.557   8.421  0.00  0.00    +0.000 A 
ATOM      3  C   UNL     1      44.578   3.021   9.625  0.00  0.00    +0.000 A 
ATOM      4  C   UNL     1      44.838   4.328  10.039  0.00  0.00    +0.000 A 
ATOM      5  C   UNL     1      45.637   5.108   9.210  0.00  0.00    +0.000 A 
ATOM      6  N   UNL     1      46.160   4.683   8.038  0.00  0.00    +0.000 NA
ENDROOT
BRANCH   1   7
ATOM      7  C   UNL     1      46.507   2.939   6.365  0.00  0.00    +0.000 C 
BRANCH   7   8
ATOM      8  C   UNL     1      47.507   1.813   6.631  0.00  0.00    +0.000 C 
BRANCH   8   9
ATOM      9  N   UNL     1      48.600   1.829   5.656  0.00  0.00    +0.000 NA
ATOM     10  H   UNL     1      49.242   1.065   5.869  0.00  0.00    +0.000 HD
ATOM     11  H   UNL     1      49.141   2.686   5.773  0.00  0.00    +0.000 HD
ENDBRANCH   8   9
ENDBRANCH   7   8
ENDBRANCH   1   7
BRANCH   4  12
ATOM     12  C   UNL     1      44.279   4.883  11.316  0.00  0.00    +0.000 C 
BRANCH  12  13
ATOM     13  N   UNL     1      45.302   5.101  12.334  0.00  0.00    +0.000 N 
ATOM     14  C   UNL     1      45.980   4.086  12.965  0.00  0.00    +0.000 A 
ATOM     15  C   UNL     1      46.986   4.649  13.715  0.00  0.00    +0.000 A 
ATOM     16  C   UNL     1      46.927   6.061  13.542  0.00  0.00    +0.000 A 
ATOM     17  C   UNL     1      47.678   7.160  14.001  0.00  0.00    +0.000 A 
ATOM     18 CL   UNL     1      49.025   6.811  14.998  0.00  0.00    +0.000 Cl
ATOM     19  C   UNL     1      47.351   8.468  13.646  0.00  0.00    +0.000 A 
ATOM     20  C   UNL     1      46.253   8.699  12.826  0.00  0.00    +0.000 A 
ATOM     21  C   UNL     1      45.483   7.637  12.335  0.00  0.00    +0.000 A 
ATOM     22  C   UNL     1      45.839   6.322  12.695  0.00  0.00    +0.000 A 
ENDBRANCH  12  13
ENDBRANCH   4  12
TORSDOF 5
ENDMDL
MODEL 2
REMARK VINA RESULT:    -6.716      0.809      2.009
REMARK INTER + INTRA:          -9.042
REMARK INTER:                  -8.642
REMARK INTRA:                  -0.400
REMARK UNBOUND:                -0.560
REMARK  Name = 
REMARK  5 active torsions:
REMARK  status: ('A' for Active; 'I' for Inactive)
REMARK    1  A    between atoms: N_1  and  C_2
REMARK    2  A    between atoms: C_2  and  C_3
REMARK    3  A    between atoms: C_3  and  C_4
REMARK    4  A    between atoms: C_7  and  C_8
REMARK    5  A    between atoms: C_8  and  N_9
REMARK                            x       y       z     vdW  Elec       q    Type
REMARK                         _______ _______ _______ _____ _____    ______ ____
ROOT
ATOM      1  C   UNL     1      45.900   3.266   7.821  0.00  0.00    +0.000 A 
ATOM      2  C   UNL     1      45.204   2.521   8.768  0.00  0.00    +0.000 A 
ATOM      3  C   UNL     1      44.735   3.160   9.914  0.00  0.00    +0.000 A 
ATOM      4  C   UNL     1      44.966   4.524  10.095  0.00  0.00    +0.000 A 
ATOM      5  C   UNL     1      45.679   5.182   9.099  0.00  0.00    +0.000 A 
ATOM      6  N   UNL     1      46.145   4.588   7.976  0.00  0.00    +0.000 NA
ENDROOT
BRANCH   1   7
ATOM      7  C   UNL     1      46.459   2.606   6.586  0.00  0.00    +0.000 C 
BRANCH   7   8
ATOM      8  C   UNL     1      47.980   2.487   6.679  0.00  0.00    +0.000 C 
BRANCH   8   9
ATOM      9  N   UNL     1      48.528   1.753   5.536  0.00  0.00    +0.000 NA
ATOM     10  H   UNL     1      48.676   2.406   4.766  0.00  0.00    +0.000 HD
ATOM     11  H   UNL     1      47.833   1.086   5.202  0.00  0.00    +0.000 HD
ENDBRANCH   8   9
ENDBRANCH   7   8
ENDBRANCH   1   7
BRANCH   4  12
ATOM     12  C   UNL     1      44.465   5.262  11.300  0.00  0.00    +0.000 C 
BRANCH  12  13
ATOM     13  N   UNL     1      45.512   6.031  11.968  0.00  0.00    +0.000 N 
ATOM     14  C   UNL     1      45.769   7.355  11.709  0.00  0.00    +0.000 A 
ATOM     15  C   UNL     1      46.681   7.800  12.638  0.00  0.00    +0.000 A 
ATOM     16  C   UNL     1      46.997   6.712  13.500  0.00  0.00    +0.000 A 
ATOM     17  C   UNL     1      47.815   6.535  14.633  0.00  0.00    +0.000 A 
ATOM     18 CL   UNL     1      48.653   7.915  15.202  0.00  0.00    +0.000 Cl
ATOM     19  C   UNL     1      47.921   5.302  15.272  0.00  0.00    +0.000 A 
ATOM     20  C   UNL     1      47.213   4.213  14.777  0.00  0.00    +0.000 A 
ATOM     21  C   UNL     1      46.378   4.343  13.660  0.00  0.00    +0.000 A 
ATOM     22  C   UNL     1      46.274   5.602  13.038  0.00  0.00    +0.000 A 
ENDBRANCH  12  13
ENDBRANCH   4  12
TORSDOF 5
ENDMDL
MODEL 3
REMARK VINA RESULT:    -6.212      3.016      6.465
REMARK INTER + INTRA:          -8.405
REMARK INTER:                  -7.663
REMARK INTRA:                  -0.742
REMARK UNBOUND:                -0.560
REMARK  Name = 
REMARK  5 active torsions:
REMARK  status: ('A' for Active; 'I' for Inactive)
REMARK    1  A    between atoms: N_1  and  C_2
REMARK    2  A    between atoms: C_2  and  C_3
REMARK    3  A    between atoms: C_3  and  C_4
REMARK    4  A    between atoms: C_7  and  C_8
REMARK    5  A    between atoms: C_8  and  N_9
REMARK                            x       y       z     vdW  Elec       q    Type
REMARK                         _______ _______ _______ _____ _____    ______ ____
ROOT
ATOM      1  C   UNL     1      46.411   7.531  12.985  0.00  0.00    +0.000 A 
ATOM      2  C   UNL     1      45.628   8.199  12.049  0.00  0.00    +0.000 A 
ATOM      3  C   UNL     1      44.740   7.464  11.266  0.00  0.00    +0.000 A 
ATOM      4  C   UNL     1      44.648   6.082  11.431  0.00  0.00    +0.000 A 
ATOM      5  C   UNL     1      45.478   5.501  12.385  0.00  0.00    +0.000 A 
ATOM      6  N   UNL     1      46.347   6.190  13.159  0.00  0.00    +0.000 NA
ENDROOT
BRANCH   1   7
ATOM      7  C   UNL     1      47.412   8.284  13.824  0.00  0.00    +0.000 C 
BRANCH   7   8
ATOM      8  C   UNL     1      48.808   8.196  13.207  0.00  0.00    +0.000 C 
BRANCH   8   9
ATOM      9  N   UNL     1      49.460   6.927  13.541  0.00  0.00    +0.000 NA
ATOM     10  H   UNL     1      50.416   7.117  13.841  0.00  0.00    +0.000 HD
ATOM     11  H   UNL     1      49.543   6.362  12.696  0.00  0.00    +0.000 HD
ENDBRANCH   8   9
ENDBRANCH   7   8
ENDBRANCH   1   7
BRANCH   4  12
ATOM     12  C   UNL     1      43.695   5.247  10.628  0.00  0.00    +0.000 C 
BRANCH  12  13
ATOM     13  N   UNL     1      44.270   3.970  10.216  0.00  0.00    +0.000 N 
ATOM     14  C   UNL     1      43.841   2.752  10.684  0.00  0.00    +0.000 A 
ATOM     15  C   UNL     1      44.468   1.770   9.953  0.00  0.00    +0.000 A 
ATOM     16  C   UNL     1      45.315   2.405   9.000  0.00  0.00    +0.000 A 
ATOM     17  C   UNL     1      46.171   1.967   7.971  0.00  0.00    +0.000 A 
ATOM     18 CL   UNL     1      46.264   0.278   7.711  0.00  0.00    +0.000 Cl
ATOM     19  C   UNL     1      46.894   2.867   7.190  0.00  0.00    +0.000 A 
ATOM     20  C   UNL     1      46.778   4.231   7.434  0.00  0.00    +0.000 A 
ATOM     21  C   UNL     1      45.930   4.714   8.439  0.00  0.00    +0.000 A 
ATOM     22  C   UNL     1      45.198   3.788   9.208  0.00  0.00    +0.000 A 
ENDBRANCH  12  13
ENDBRANCH   4  12
TORSDOF 5
ENDMDL
MODEL 4
REMARK VINA RESULT:    -5.980      3.064      7.053
REMARK INTER + INTRA:          -8.113
REMARK INTER:                  -7.509
REMARK INTRA:                  -0.604
REMARK UNBOUND:                -0.560
REMARK  Name = 
REMARK  5 active torsions:
REMARK  status: ('A' for Active; 'I' for Inactive)
REMARK    1  A    between atoms: N_1  and  C_2
REMARK    2  A    between atoms: C_2  and  C_3
REMARK    3  A    between atoms: C_3  and  C_4
REMARK    4  A    between atoms: C_7  and  C_8
REMARK    5  A    between atoms: C_8  and  N_9
REMARK                            x       y       z     vdW  Elec       q    Type
REMARK                         _______ _______ _______ _____ _____    ______ ____
ROOT
ATOM      1  C   UNL     1      46.663   4.712  14.055  0.00  0.00    +0.000 A 
ATOM      2  C   UNL     1      46.623   3.409  13.568  0.00  0.00    +0.000 A 
ATOM      3  C   UNL     1      45.840   3.133  12.449  0.00  0.00    +0.000 A 
ATOM      4  C   UNL     1      45.114   4.156  11.838  0.00  0.00    +0.000 A 
ATOM      5  C   UNL     1      45.210   5.424  12.403  0.00  0.00    +0.000 A 
ATOM      6  N   UNL     1      45.963   5.720  13.486  0.00  0.00    +0.000 NA
ENDROOT
BRANCH   1   7
ATOM      7  C   UNL     1      47.467   5.044  15.287  0.00  0.00    +0.000 C 
BRANCH   7   8
ATOM      8  C   UNL     1      47.726   3.788  16.118  0.00  0.00    +0.000 C 
BRANCH   8   9
ATOM      9  N   UNL     1      46.610   3.508  17.024  0.00  0.00    +0.000 NA
ATOM     10  H   UNL     1      45.844   4.147  16.810  0.00  0.00    +0.000 HD
ATOM     11  H   UNL     1      46.893   3.726  17.980  0.00  0.00    +0.000 HD
ENDBRANCH   8   9
ENDBRANCH   7   8
ENDBRANCH   1   7
BRANCH   4  12
ATOM     12  C   UNL     1      44.272   3.917  10.620  0.00  0.00    +0.000 C 
BRANCH  12  13
ATOM     13  N   UNL     1      45.055   3.895   9.387  0.00  0.00    +0.000 N 
ATOM     14  C   UNL     1      45.559   5.020   8.782  0.00  0.00    +0.000 A 
ATOM     15  C   UNL     1      46.389   4.619   7.762  0.00  0.00    +0.000 A 
ATOM     16  C   UNL     1      46.397   3.195   7.736  0.00  0.00    +0.000 A 
ATOM     17  C   UNL     1      47.052   2.210   6.972  0.00  0.00    +0.000 A 
ATOM     18 CL   UNL     1      48.144   2.762   5.775  0.00  0.00    +0.000 Cl
ATOM     19  C   UNL     1      46.837   0.851   7.193  0.00  0.00    +0.000 A 
ATOM     20  C   UNL     1      45.948   0.453   8.184  0.00  0.00    +0.000 A 
ATOM     21  C   UNL     1      45.282   1.396   8.977  0.00  0.00    +0.000 A 
ATOM     22  C   UNL     1      45.524   2.764   8.746  0.00  0.00    +0.000 A 
ENDBRANCH  12  13
ENDBRANCH   4  12
TORSDOF 5
ENDMDL
MODEL 5
REMARK VINA RESULT:    -5.856      1.949      2.732
REMARK INTER + INTRA:          -7.957
REMARK INTER:                  -7.402
REMARK INTRA:                  -0.555
REMARK UNBOUND:                -0.560
REMARK  Name = 
REMARK  5 active torsions:
REMARK  status: ('A' for Active; 'I' for Inactive)
REMARK    1  A    between atoms: N_1  and  C_2
REMARK    2  A    between atoms: C_2  and  C_3
REMARK    3  A    between atoms: C_3  and  C_4
REMARK    4  A    between atoms: C_7  and  C_8
REMARK    5  A    between atoms: C_8  and  N_9
REMARK                            x       y       z     vdW  Elec       q    Type
REMARK                         _______ _______ _______ _____ _____    ______ ____
ROOT
ATOM      1  C   UNL     1      45.192   3.569   9.267  0.00  0.00    +0.000 A 
ATOM      2  C   UNL     1      45.558   4.909   9.185  0.00  0.00    +0.000 A 
ATOM      3  C   UNL     1      45.591   5.670  10.352  0.00  0.00    +0.000 A 
ATOM      4  C   UNL     1      45.260   5.084  11.574  0.00  0.00    +0.000 A 
ATOM      5  C   UNL     1      44.897   3.741  11.555  0.00  0.00    +0.000 A 
ATOM      6  N   UNL     1      44.858   2.979  10.438  0.00  0.00    +0.000 NA
ENDROOT
BRANCH   1   7
ATOM      7  C   UNL     1      45.106   2.721   8.023  0.00  0.00    +0.000 C 
BRANCH   7   8
ATOM      8  C   UNL     1      46.461   2.089   7.706  0.00  0.00    +0.000 C 
BRANCH   8   9
ATOM      9  N   UNL     1      46.466   0.657   8.012  0.00  0.00    +0.000 NA
ATOM     10  H   UNL     1      47.204   0.468   8.691  0.00  0.00    +0.000 HD
ATOM     11  H   UNL     1      46.724   0.136   7.173  0.00  0.00    +0.000 HD
ENDBRANCH   8   9
ENDBRANCH   7   8
ENDBRANCH   1   7
BRANCH   4  12
ATOM     12  C   UNL     1      45.298   5.853  12.861  0.00  0.00    +0.000 C 
BRANCH  12  13
ATOM     13  N   UNL     1      46.383   6.830  12.904  0.00  0.00    +0.000 N 
ATOM     14  C   UNL     1      47.695   6.503  13.149  0.00  0.00    +0.000 A 
ATOM     15  C   UNL     1      48.460   7.625  12.932  0.00  0.00    +0.000 A 
ATOM     16  C   UNL     1      47.589   8.682  12.540  0.00  0.00    +0.000 A 
ATOM     17  C   UNL     1      47.754  10.028  12.158  0.00  0.00    +0.000 A 
ATOM     18 CL   UNL     1      49.358  10.621  12.098  0.00  0.00    +0.000 Cl
ATOM     19  C   UNL     1      46.665  10.832  11.827  0.00  0.00    +0.000 A 
ATOM     20  C   UNL     1      45.382  10.300  11.883  0.00  0.00    +0.000 A 
ATOM     21  C   UNL     1      45.169   8.964  12.245  0.00  0.00    +0.000 A 
ATOM     22  C   UNL     1      46.285   8.165  12.562  0.00  0.00    +0.000 A 
ENDBRANCH  12  13
ENDBRANCH   4  12
TORSDOF 5
ENDMDL
MODEL 6
REMARK VINA RESULT:    -5.799      2.028      2.718
REMARK INTER + INTRA:          -7.884
REMARK INTER:                  -7.671
REMARK INTRA:                  -0.213
REMARK UNBOUND:                -0.560
REMARK  Name = 
REMARK  5 active torsions:
REMARK  status: ('A' for Active; 'I' for Inactive)
REMARK    1  A    between atoms: N_1  and  C_2
REMARK    2  A    between atoms: C_2  and  C_3
REMARK    3  A    between atoms: C_3  and  C_4
REMARK    4  A    between atoms: C_7  and  C_8
REMARK    5  A    between atoms: C_8  and  N_9
REMARK                            x       y       z     vdW  Elec       q    Type
REMARK                         _______ _______ _______ _____ _____    ______ ____
ROOT
ATOM      1  C   UNL     1      45.782   3.152   7.917  0.00  0.00    +0.000 A 
ATOM      2  C   UNL     1      45.094   2.372   8.841  0.00  0.00    +0.000 A 
ATOM      3  C   UNL     1      44.642   2.964  10.018  0.00  0.00    +0.000 A 
ATOM      4  C   UNL     1      44.882   4.318  10.252  0.00  0.00    +0.000 A 
ATOM      5  C   UNL     1      45.586   5.015   9.275  0.00  0.00    +0.000 A 
ATOM      6  N   UNL     1      46.035   4.466   8.123  0.00  0.00    +0.000 NA
ENDROOT
BRANCH   1   7
ATOM      7  C   UNL     1      46.323   2.541   6.649  0.00  0.00    +0.000 C 
BRANCH   7   8
ATOM      8  C   UNL     1      47.536   1.661   6.949  0.00  0.00    +0.000 C 
BRANCH   8   9
ATOM      9  N   UNL     1      47.136   0.284   7.248  0.00  0.00    +0.000 NA
ATOM     10  H   UNL     1      46.446   0.298   8.000  0.00  0.00    +0.000 HD
ATOM     11  H   UNL     1      47.938  -0.224   7.620  0.00  0.00    +0.000 HD
ENDBRANCH   8   9
ENDBRANCH   7   8
ENDBRANCH   1   7
BRANCH   4  12
ATOM     12  C   UNL     1      44.399   5.009  11.493  0.00  0.00    +0.000 C 
BRANCH  12  13
ATOM     13  N   UNL     1      44.383   6.463  11.361  0.00  0.00    +0.000 N 
ATOM     14  C   UNL     1      43.267   7.187  11.017  0.00  0.00    +0.000 A 
ATOM     15  C   UNL     1      43.562   8.521  11.168  0.00  0.00    +0.000 A 
ATOM     16  C   UNL     1      44.908   8.625  11.621  0.00  0.00    +0.000 A 
ATOM     17  C   UNL     1      45.766   9.682  11.982  0.00  0.00    +0.000 A 
ATOM     18 CL   UNL     1      45.112  11.263  11.914  0.00  0.00    +0.000 Cl
ATOM     19  C   UNL     1      47.077   9.452  12.393  0.00  0.00    +0.000 A 
ATOM     20  C   UNL     1      47.559   8.148  12.441  0.00  0.00    +0.000 A 
ATOM     21  C   UNL     1      46.740   7.064  12.103  0.00  0.00    +0.000 A 
ATOM     22  C   UNL     1      45.413   7.319  11.703  0.00  0.00    +0.000 A 
ENDBRANCH  12  13
ENDBRANCH   4  12
TORSDOF 5
ENDMDL
MODEL 7
REMARK VINA RESULT:    -5.692      2.088      3.292
REMARK INTER + INTRA:          -7.749
REMARK INTER:                  -7.018
REMARK INTRA:                  -0.731
REMARK UNBOUND:                -0.560
REMARK  Name = 
REMARK  5 active torsions:
REMARK  status: ('A' for Active; 'I' for Inactive)
REMARK    1  A    between atoms: N_1  and  C_2
REMARK    2  A    between atoms: C_2  and  C_3
REMARK    3  A    between atoms: C_3  and  C_4
REMARK    4  A    between atoms: C_7  and  C_8
REMARK    5  A    between atoms: C_8  and  N_9
REMARK                            x       y       z     vdW  Elec       q    Type
REMARK                         _______ _______ _______ _____ _____    ______ ____
ROOT
ATOM      1  C   UNL     1      44.808   3.242  10.162  0.00  0.00    +0.000 A 
ATOM      2  C   UNL     1      45.004   2.883  11.492  0.00  0.00    +0.000 A 
ATOM      3  C   UNL     1      45.106   3.888  12.452  0.00  0.00    +0.000 A 
ATOM      4  C   UNL     1      45.010   5.227  12.071  0.00  0.00    +0.000 A 
ATOM      5  C   UNL     1      44.822   5.488  10.717  0.00  0.00    +0.000 A 
ATOM      6  N   UNL     1      44.719   4.533   9.765  0.00  0.00    +0.000 NA
ENDROOT
BRANCH   1   7
ATOM      7  C   UNL     1      44.732   2.188   9.087  0.00  0.00    +0.000 C 
BRANCH   7   8
ATOM      8  C   UNL     1      45.988   2.212   8.217  0.00  0.00    +0.000 C 
BRANCH   8   9
ATOM      9  N   UNL     1      45.957   3.327   7.268  0.00  0.00    +0.000 NA
ATOM     10  H   UNL     1      45.931   2.952   6.319  0.00  0.00    +0.000 HD
ATOM     11  H   UNL     1      46.832   3.848   7.334  0.00  0.00    +0.000 HD
ENDBRANCH   8   9
ENDBRANCH   7   8
ENDBRANCH   1   7
BRANCH   4  12
ATOM     12  C   UNL     1      45.092   6.345  13.067  0.00  0.00    +0.000 C 
BRANCH  12  13
ATOM     13  N   UNL     1      45.755   7.531  12.532  0.00  0.00    +0.000 N 
ATOM     14  C   UNL     1      45.107   8.713  12.264  0.00  0.00    +0.000 A 
ATOM     15  C   UNL     1      46.056   9.658  11.953  0.00  0.00    +0.000 A 
ATOM     16  C   UNL     1      47.336   9.038  12.032  0.00  0.00    +0.000 A 
ATOM     17  C   UNL     1      48.668   9.463  11.865  0.00  0.00    +0.000 A 
ATOM     18 CL   UNL     1      48.909  11.118  11.502  0.00  0.00    +0.000 Cl
ATOM     19  C   UNL     1      49.739   8.583  12.008  0.00  0.00    +0.000 A 
ATOM     20  C   UNL     1      49.492   7.250  12.314  0.00  0.00    +0.000 A 
ATOM     21  C   UNL     1      48.184   6.783  12.501  0.00  0.00    +0.000 A 
ATOM     22  C   UNL     1      47.117   7.692  12.365  0.00  0.00    +0.000 A 
ENDBRANCH  12  13
ENDBRANCH   4  12
TORSDOF 5
ENDMDL
MODEL 8
REMARK VINA RESULT:    -5.381      3.295      6.832
REMARK INTER + INTRA:          -7.357
REMARK INTER:                  -6.830
REMARK INTRA:                  -0.527
REMARK UNBOUND:                -0.560
REMARK  Name = 
REMARK  5 active torsions:
REMARK  status: ('A' for Active; 'I' for Inactive)
REMARK    1  A    between atoms: N_1  and  C_2
REMARK    2  A    between atoms: C_2  and  C_3
REMARK    3  A    between atoms: C_3  and  C_4
REMARK    4  A    between atoms: C_7  and  C_8
REMARK    5  A    between atoms: C_8  and  N_9
REMARK                            x       y       z     vdW  Elec       q    Type
REMARK                         _______ _______ _______ _____ _____    ______ ____
ROOT
ATOM      1  C   UNL     1      48.735   7.145  14.526  0.00  0.00    +0.000 A 
ATOM      2  C   UNL     1      48.139   8.396  14.408  0.00  0.00    +0.000 A 
ATOM      3  C   UNL     1      47.017   8.532  13.592  0.00  0.00    +0.000 A 
ATOM      4  C   UNL     1      46.511   7.423  12.914  0.00  0.00    +0.000 A 
ATOM      5  C   UNL     1      47.180   6.216  13.087  0.00  0.00    +0.000 A 
ATOM      6  N   UNL     1      48.269   6.055  13.872  0.00  0.00    +0.000 NA
ENDROOT
BRANCH   1   7
ATOM      7  C   UNL     1      49.974   6.963  15.366  0.00  0.00    +0.000 C 
BRANCH   7   8
ATOM      8  C   UNL     1      49.620   6.363  16.727  0.00  0.00    +0.000 C 
BRANCH   8   9
ATOM      9  N   UNL     1      49.244   4.952  16.606  0.00  0.00    +0.000 NA
ATOM     10  H   UNL     1      48.281   4.839  16.924  0.00  0.00    +0.000 HD
ATOM     11  H   UNL     1      49.813   4.398  17.247  0.00  0.00    +0.000 HD
ENDBRANCH   8   9
ENDBRANCH   7   8
ENDBRANCH   1   7
BRANCH   4  12
ATOM     12  C   UNL     1      45.295   7.512  12.041  0.00  0.00    +0.000 C 
BRANCH  12  13
ATOM     13  N   UNL     1      45.160   6.369  11.142  0.00  0.00    +0.000 N 
ATOM     14  C   UNL     1      45.802   6.269   9.931  0.00  0.00    +0.000 A 
ATOM     15  C   UNL     1      45.597   5.000   9.445  0.00  0.00    +0.000 A 
ATOM     16  C   UNL     1      44.800   4.291  10.388  0.00  0.00    +0.000 A 
ATOM     17  C   UNL     1      44.290   2.981  10.487  0.00  0.00    +0.000 A 
ATOM     18 CL   UNL     1      44.693   1.900   9.223  0.00  0.00    +0.000 Cl
ATOM     19  C   UNL     1      43.510   2.581  11.570  0.00  0.00    +0.000 A 
ATOM     20  C   UNL     1      43.217   3.494  12.576  0.00  0.00    +0.000 A 
ATOM     21  C   UNL     1      43.712   4.804  12.527  0.00  0.00    +0.000 A 
ATOM     22  C   UNL     1      44.510   5.184  11.430  0.00  0.00    +0.000 A 
ENDBRANCH  12  13
ENDBRANCH   4  12
TORSDOF 5
ENDMDL
MODEL 9
REMARK VINA RESULT:    -5.229      4.114      5.896
REMARK INTER + INTRA:          -7.164
REMARK INTER:                  -6.326
REMARK INTRA:                  -0.839
REMARK UNBOUND:                -0.560
REMARK  Name = 
REMARK  5 active torsions:
REMARK  status: ('A' for Active; 'I' for Inactive)
REMARK    1  A    between atoms: N_1  and  C_2
REMARK    2  A    between atoms: C_2  and  C_3
REMARK    3  A    between atoms: C_3  and  C_4
REMARK    4  A    between atoms: C_7  and  C_8
REMARK    5  A    between atoms: C_8  and  N_9
REMARK                            x       y       z     vdW  Elec       q    Type
REMARK                         _______ _______ _______ _____ _____    ______ ____
ROOT
ATOM      1  C   UNL     1      44.734   5.233  13.094  0.00  0.00    +0.000 A 
ATOM      2  C   UNL     1      45.754   4.443  13.617  0.00  0.00    +0.000 A 
ATOM      3  C   UNL     1      47.016   5.005  13.794  0.00  0.00    +0.000 A 
ATOM      4  C   UNL     1      47.239   6.339  13.450  0.00  0.00    +0.000 A 
ATOM      5  C   UNL     1      46.162   7.046  12.927  0.00  0.00    +0.000 A 
ATOM      6  N   UNL     1      44.926   6.527  12.745  0.00  0.00    +0.000 NA
ENDROOT
BRANCH   1   7
ATOM      7  C   UNL     1      43.364   4.653  12.850  0.00  0.00    +0.000 C 
BRANCH   7   8
ATOM      8  C   UNL     1      42.789   5.165  11.529  0.00  0.00    +0.000 C 
BRANCH   8   9
ATOM      9  N   UNL     1      42.086   6.437  11.711  0.00  0.00    +0.000 NA
ATOM     10  H   UNL     1      42.403   7.094  10.998  0.00  0.00    +0.000 HD
ATOM     11  H   UNL     1      42.359   6.846  12.604  0.00  0.00    +0.000 HD
ENDBRANCH   8   9
ENDBRANCH   7   8
ENDBRANCH   1   7
BRANCH   4  12
ATOM     12  C   UNL     1      48.574   6.997  13.640  0.00  0.00    +0.000 C 
BRANCH  12  13
ATOM     13  N   UNL     1      48.657   7.756  14.885  0.00  0.00    +0.000 N 
ATOM     14  C   UNL     1      48.349   9.091  14.988  0.00  0.00    +0.000 A 
ATOM     15  C   UNL     1      48.359   9.428  16.321  0.00  0.00    +0.000 A 
ATOM     16  C   UNL     1      48.686   8.260  17.067  0.00  0.00    +0.000 A 
ATOM     17  C   UNL     1      48.820   7.949  18.435  0.00  0.00    +0.000 A 
ATOM     18 CL   UNL     1      48.510   9.212  19.547  0.00  0.00    +0.000 Cl
ATOM     19  C   UNL     1      49.169   6.669  18.862  0.00  0.00    +0.000 A 
ATOM     20  C   UNL     1      49.401   5.674  17.919  0.00  0.00    +0.000 A 
ATOM     21  C   UNL     1      49.268   5.933  16.549  0.00  0.00    +0.000 A 
ATOM     22  C   UNL     1      48.901   7.230  16.140  0.00  0.00    +0.000 A 
ENDBRANCH  12  13
ENDBRANCH   4  12
TORSDOF 5
ENDMDL
