MODEL 1
REMARK VINA RESULT:    -7.875      0.000      0.000
REMARK INTER + INTRA:         -11.127
REMARK INTER:                 -10.177
REMARK INTRA:                  -0.950
REMARK UNBOUND:                -0.950
REMARK  Name = 
REMARK  5 active torsions:
REMARK  status: ('A' for Active; 'I' for Inactive)
REMARK    1  A    between atoms: C_2  and  C_3
REMARK    2  A    between atoms: C_6  and  N_7
REMARK    3  A    between atoms: N_7  and  C_8
REMARK    4  A    between atoms: C_8  and  C_9
REMARK    5  A    between atoms: C_13  and  C_14
REMARK                            x       y       z     vdW  Elec       q    Type
REMARK                         _______ _______ _______ _____ _____    ______ ____
ROOT
ATOM      1  C   UNL     1      44.901   4.804  12.126  0.00  0.00    +0.000 A 
ATOM      2  C   UNL     1      45.599   3.907  12.942  0.00  0.00    +0.000 A 
ATOM      3  C   UNL     1      46.794   4.294  13.545  0.00  0.00    +0.000 A 
ATOM      4  C   UNL     1      47.311   5.571  13.324  0.00  0.00    +0.000 A 
ATOM      5  C   UNL     1      46.660   6.494  12.486  0.00  0.00    +0.000 A 
ATOM      6  C   UNL     1      45.432   6.092  11.925  0.00  0.00    +0.000 A 
ENDROOT
BRANCH   5   7
ATOM      7  C   UNL     1      47.280   7.790  12.124  0.00  0.00    +0.000 A 
ATOM      8  C   UNL     1      46.567   8.995  12.277  0.00  0.00    +0.000 A 
ATOM      9  C   UNL     1      47.160  10.236  12.033  0.00  0.00    +0.000 A 
ATOM     10  C   UNL     1      48.490  10.302  11.635  0.00  0.00    +0.000 A 
ATOM     11  C   UNL     1      49.217   9.129  11.461  0.00  0.00    +0.000 A 
ATOM     12  C   UNL     1      48.615   7.887  11.693  0.00  0.00    +0.000 A 
ENDBRANCH   5   7
BRANCH   1  13
ATOM     13  C   UNL     1      43.639   4.390  11.400  0.00  0.00    +0.000 C 
BRANCH  13  14
ATOM     14  N   UNL     1      43.759   4.706   9.981  0.00  0.00    +0.000 N 
ATOM     15  H   UNL     1      42.851   4.883   9.559  0.00  0.00    +0.000 HD
BRANCH  14  19
ATOM     16  C   UNL     1      46.524   2.649   7.631  0.00  0.00    +0.000 A 
ATOM     17  C   UNL     1      45.683   1.901   8.443  0.00  0.00    +0.000 A 
ATOM     18  C   UNL     1      44.727   2.569   9.217  0.00  0.00    +0.000 A 
ATOM     19  C   UNL     1      44.610   3.960   9.162  0.00  0.00    +0.000 A 
ATOM     20  C   UNL     1      45.532   4.607   8.331  0.00  0.00    +0.000 A 
ATOM     21  N   UNL     1      46.467   3.998   7.557  0.00  0.00    +0.000 NA
BRANCH  16  23
ATOM     22  N   UNL     1      48.341   1.526   6.149  0.00  0.00    +0.000 NA
ATOM     23  C   UNL     1      47.533   2.010   6.828  0.00  0.00    +0.000 C 
ENDBRANCH  16  23
ENDBRANCH  14  19
ENDBRANCH  13  14
ENDBRANCH   1  13
TORSDOF 5
ENDMDL
MODEL 2
REMARK VINA RESULT:    -7.594      2.965      6.630
REMARK INTER + INTRA:         -10.764
REMARK INTER:                  -9.916
REMARK INTRA:                  -0.848
REMARK UNBOUND:                -0.950
REMARK  Name = 
REMARK  5 active torsions:
REMARK  status: ('A' for Active; 'I' for Inactive)
REMARK    1  A    between atoms: C_2  and  C_3
REMARK    2  A    between atoms: C_6  and  N_7
REMARK    3  A    between atoms: N_7  and  C_8
REMARK    4  A    between atoms: C_8  and  C_9
REMARK    5  A    between atoms: C_13  and  C_14
REMARK                            x       y       z     vdW  Elec       q    Type
REMARK                         _______ _______ _______ _____ _____    ______ ____
ROOT
ATOM      1  C   UNL     1      43.876   4.878  10.938  0.00  0.00    +0.000 A 
ATOM      2  C   UNL     1      43.187   3.894  11.656  0.00  0.00    +0.000 A 
ATOM      3  C   UNL     1      43.367   2.547  11.348  0.00  0.00    +0.000 A 
ATOM      4  C   UNL     1      44.220   2.172  10.310  0.00  0.00    +0.000 A 
ATOM      5  C   UNL     1      44.908   3.127   9.541  0.00  0.00    +0.000 A 
ATOM      6  C   UNL     1      44.742   4.479   9.903  0.00  0.00    +0.000 A 
ENDROOT
BRANCH   5   7
ATOM      7  C   UNL     1      45.691   2.745   8.343  0.00  0.00    +0.000 A 
ATOM      8  C   UNL     1      45.956   3.686   7.329  0.00  0.00    +0.000 A 
ATOM      9  C   UNL     1      46.770   3.379   6.235  0.00  0.00    +0.000 A 
ATOM     10  C   UNL     1      47.346   2.118   6.133  0.00  0.00    +0.000 A 
ATOM     11  C   UNL     1      47.089   1.161   7.110  0.00  0.00    +0.000 A 
ATOM     12  C   UNL     1      46.264   1.469   8.197  0.00  0.00    +0.000 A 
ENDBRANCH   5   7
BRANCH   1  13
ATOM     13  C   UNL     1      43.648   6.350  11.202  0.00  0.00    +0.000 C 
BRANCH  13  14
ATOM     14  N   UNL     1      44.047   6.676  12.566  0.00  0.00    +0.000 N 
ATOM     15  H   UNL     1      43.499   7.444  12.944  0.00  0.00    +0.000 HD
BRANCH  14  19
ATOM     16  C   UNL     1      48.018   7.102  13.773  0.00  0.00    +0.000 A 
ATOM     17  C   UNL     1      47.479   5.823  13.764  0.00  0.00    +0.000 A 
ATOM     18  C   UNL     1      46.158   5.653  13.333  0.00  0.00    +0.000 A 
ATOM     19  C   UNL     1      45.401   6.747  12.906  0.00  0.00    +0.000 A 
ATOM     20  C   UNL     1      46.042   7.989  12.989  0.00  0.00    +0.000 A 
ATOM     21  N   UNL     1      47.323   8.196  13.390  0.00  0.00    +0.000 NA
BRANCH  16  23
ATOM     22  N   UNL     1      50.439   7.543  14.611  0.00  0.00    +0.000 NA
ATOM     23  C   UNL     1      49.367   7.330  14.220  0.00  0.00    +0.000 C 
ENDBRANCH  16  23
ENDBRANCH  14  19
ENDBRANCH  13  14
ENDBRANCH   1  13
TORSDOF 5
ENDMDL
MODEL 3
REMARK VINA RESULT:    -7.488      1.692      3.571
REMARK INTER + INTRA:         -10.627
REMARK INTER:                  -9.797
REMARK INTRA:                  -0.830
REMARK UNBOUND:                -0.950
REMARK  Name = 
REMARK  5 active torsions:
REMARK  status: ('A' for Active; 'I' for Inactive)
REMARK    1  A    between atoms: C_2  and  C_3
REMARK    2  A    between atoms: C_6  and  N_7
REMARK    3  A    between atoms: N_7  and  C_8
REMARK    4  A    between atoms: C_8  and  C_9
REMARK    5  A    between atoms: C_13  and  C_14
REMARK                            x       y       z     vdW  Elec       q    Type
REMARK                         _______ _______ _______ _____ _____    ______ ____
ROOT
ATOM      1  C   UNL     1      45.026   5.374  12.033  0.00  0.00    +0.000 A 
ATOM      2  C   UNL     1      45.363   6.628  11.512  0.00  0.00    +0.000 A 
ATOM      3  C   UNL     1      46.426   7.348  12.052  0.00  0.00    +0.000 A 
ATOM      4  C   UNL     1      47.149   6.832  13.128  0.00  0.00    +0.000 A 
ATOM      5  C   UNL     1      46.825   5.590  13.705  0.00  0.00    +0.000 A 
ATOM      6  C   UNL     1      45.774   4.864  13.111  0.00  0.00    +0.000 A 
ENDROOT
BRANCH   5   7
ATOM      7  C   UNL     1      47.486   5.110  14.941  0.00  0.00    +0.000 A 
ATOM      8  C   UNL     1      48.395   5.933  15.635  0.00  0.00    +0.000 A 
ATOM      9  C   UNL     1      48.959   5.542  16.852  0.00  0.00    +0.000 A 
ATOM     10  C   UNL     1      48.620   4.315  17.410  0.00  0.00    +0.000 A 
ATOM     11  C   UNL     1      47.737   3.474  16.741  0.00  0.00    +0.000 A 
ATOM     12  C   UNL     1      47.184   3.863  15.516  0.00  0.00    +0.000 A 
ENDBRANCH   5   7
BRANCH   1  13
ATOM     13  C   UNL     1      43.833   4.600  11.515  0.00  0.00    +0.000 C 
BRANCH  13  14
ATOM     14  N   UNL     1      43.749   4.733  10.065  0.00  0.00    +0.000 N 
ATOM     15  H   UNL     1      42.785   4.759   9.746  0.00  0.00    +0.000 HD
BRANCH  14  19
ATOM     16  C   UNL     1      46.461   2.642   7.682  0.00  0.00    +0.000 A 
ATOM     17  C   UNL     1      45.653   1.908   8.538  0.00  0.00    +0.000 A 
ATOM     18  C   UNL     1      44.714   2.586   9.325  0.00  0.00    +0.000 A 
ATOM     19  C   UNL     1      44.582   3.974   9.239  0.00  0.00    +0.000 A 
ATOM     20  C   UNL     1      45.471   4.608   8.363  0.00  0.00    +0.000 A 
ATOM     21  N   UNL     1      46.388   3.988   7.575  0.00  0.00    +0.000 NA
BRANCH  16  23
ATOM     22  N   UNL     1      48.279   1.489   6.225  0.00  0.00    +0.000 NA
ATOM     23  C   UNL     1      47.450   1.992   6.863  0.00  0.00    +0.000 C 
ENDBRANCH  16  23
ENDBRANCH  14  19
ENDBRANCH  13  14
ENDBRANCH   1  13
TORSDOF 5
ENDMDL
MODEL 4
REMARK VINA RESULT:    -7.444      2.632      6.512
REMARK INTER + INTRA:         -10.570
REMARK INTER:                  -9.729
REMARK INTRA:                  -0.841
REMARK UNBOUND:                -0.950
REMARK  Name = 
REMARK  5 active torsions:
REMARK  status: ('A' for Active; 'I' for Inactive)
REMARK    1  A    between atoms: C_2  and  C_3
REMARK    2  A    between atoms: C_6  and  N_7
REMARK    3  A    between atoms: N_7  and  C_8
REMARK    4  A    between atoms: C_8  and  C_9
REMARK    5  A    between atoms: C_13  and  C_14
REMARK                            x       y       z     vdW  Elec       q    Type
REMARK                         _______ _______ _______ _____ _____    ______ ____
ROOT
ATOM      1  C   UNL     1      43.961   4.935  11.095  0.00  0.00    +0.000 A 
ATOM      2  C   UNL     1      43.215   3.979  11.794  0.00  0.00    +0.000 A 
ATOM      3  C   UNL     1      43.312   2.631  11.454  0.00  0.00    +0.000 A 
ATOM      4  C   UNL     1      44.138   2.228  10.403  0.00  0.00    +0.000 A 
ATOM      5  C   UNL     1      44.880   3.158   9.653  0.00  0.00    +0.000 A 
ATOM      6  C   UNL     1      44.798   4.509  10.047  0.00  0.00    +0.000 A 
ENDROOT
BRANCH   5   7
ATOM      7  C   UNL     1      45.634   2.757   8.443  0.00  0.00    +0.000 A 
ATOM      8  C   UNL     1      45.925   3.697   7.434  0.00  0.00    +0.000 A 
ATOM      9  C   UNL     1      46.713   3.368   6.328  0.00  0.00    +0.000 A 
ATOM     10  C   UNL     1      47.239   2.087   6.209  0.00  0.00    +0.000 A 
ATOM     11  C   UNL     1      46.957   1.132   7.181  0.00  0.00    +0.000 A 
ATOM     12  C   UNL     1      46.156   1.462   8.279  0.00  0.00    +0.000 A 
ENDBRANCH   5   7
BRANCH   1  13
ATOM     13  C   UNL     1      43.823   6.412  11.393  0.00  0.00    +0.000 C 
BRANCH  13  14
ATOM     14  N   UNL     1      44.493   6.727  12.650  0.00  0.00    +0.000 N 
ATOM     15  H   UNL     1      43.903   7.288  13.259  0.00  0.00    +0.000 HD
BRANCH  14  19
ATOM     16  C   UNL     1      48.547   7.699  12.500  0.00  0.00    +0.000 A 
ATOM     17  C   UNL     1      47.634   8.682  12.143  0.00  0.00    +0.000 A 
ATOM     18  C   UNL     1      46.267   8.387  12.216  0.00  0.00    +0.000 A 
ATOM     19  C   UNL     1      45.830   7.134  12.653  0.00  0.00    +0.000 A 
ATOM     20  C   UNL     1      46.844   6.217  12.956  0.00  0.00    +0.000 A 
ATOM     21  N   UNL     1      48.179   6.465  12.909  0.00  0.00    +0.000 NA
BRANCH  16  23
ATOM     22  N   UNL     1      51.096   8.190  12.349  0.00  0.00    +0.000 NA
ATOM     23  C   UNL     1      49.963   7.950  12.429  0.00  0.00    +0.000 C 
ENDBRANCH  16  23
ENDBRANCH  14  19
ENDBRANCH  13  14
ENDBRANCH   1  13
TORSDOF 5
ENDMDL
MODEL 5
REMARK VINA RESULT:    -6.730      3.082      6.988
REMARK INTER + INTRA:          -9.647
REMARK INTER:                  -9.171
REMARK INTRA:                  -0.476
REMARK UNBOUND:                -0.950
REMARK  Name = 
REMARK  5 active torsions:
REMARK  status: ('A' for Active; 'I' for Inactive)
REMARK    1  A    between atoms: C_2  and  C_3
REMARK    2  A    between atoms: C_6  and  N_7
REMARK    3  A    between atoms: N_7  and  C_8
REMARK    4  A    between atoms: C_8  and  C_9
REMARK    5  A    between atoms: C_13  and  C_14
REMARK                            x       y       z     vdW  Elec       q    Type
REMARK                         _______ _______ _______ _____ _____    ______ ____
ROOT
ATOM      1  C   UNL     1      45.005   6.009  11.248  0.00  0.00    +0.000 A 
ATOM      2  C   UNL     1      43.686   5.681  11.581  0.00  0.00    +0.000 A 
ATOM      3  C   UNL     1      43.078   4.564  11.012  0.00  0.00    +0.000 A 
ATOM      4  C   UNL     1      43.772   3.778  10.092  0.00  0.00    +0.000 A 
ATOM      5  C   UNL     1      45.087   4.089   9.703  0.00  0.00    +0.000 A 
ATOM      6  C   UNL     1      45.694   5.197  10.327  0.00  0.00    +0.000 A 
ENDROOT
BRANCH   5   7
ATOM      7  C   UNL     1      45.772   3.353   8.615  0.00  0.00    +0.000 A 
ATOM      8  C   UNL     1      45.924   1.953   8.681  0.00  0.00    +0.000 A 
ATOM      9  C   UNL     1      46.481   1.225   7.627  0.00  0.00    +0.000 A 
ATOM     10  C   UNL     1      46.894   1.880   6.473  0.00  0.00    +0.000 A 
ATOM     11  C   UNL     1      46.771   3.263   6.384  0.00  0.00    +0.000 A 
ATOM     12  C   UNL     1      46.225   3.991   7.447  0.00  0.00    +0.000 A 
ENDBRANCH   5   7
BRANCH   1  13
ATOM     13  C   UNL     1      45.669   7.255  11.794  0.00  0.00    +0.000 C 
BRANCH  13  14
ATOM     14  N   UNL     1      47.059   6.968  12.129  0.00  0.00    +0.000 N 
ATOM     15  H   UNL     1      47.585   6.662  11.314  0.00  0.00    +0.000 HD
BRANCH  14  19
ATOM     16  C   UNL     1      47.964   5.081  15.737  0.00  0.00    +0.000 A 
ATOM     17  C   UNL     1      46.980   4.513  14.941  0.00  0.00    +0.000 A 
ATOM     18  C   UNL     1      46.681   5.113  13.711  0.00  0.00    +0.000 A 
ATOM     19  C   UNL     1      47.371   6.251  13.286  0.00  0.00    +0.000 A 
ATOM     20  C   UNL     1      48.320   6.748  14.188  0.00  0.00    +0.000 A 
ATOM     21  N   UNL     1      48.647   6.192  15.383  0.00  0.00    +0.000 NA
BRANCH  16  23
ATOM     22  N   UNL     1      48.522   4.045  18.056  0.00  0.00    +0.000 NA
ATOM     23  C   UNL     1      48.297   4.509  17.015  0.00  0.00    +0.000 C 
ENDBRANCH  16  23
ENDBRANCH  14  19
ENDBRANCH  13  14
ENDBRANCH   1  13
TORSDOF 5
ENDMDL
MODEL 6
REMARK VINA RESULT:    -6.695      4.099      7.683
REMARK INTER + INTRA:          -9.601
REMARK INTER:                  -9.035
REMARK INTRA:                  -0.567
REMARK UNBOUND:                -0.950
REMARK  Name = 
REMARK  5 active torsions:
REMARK  status: ('A' for Active; 'I' for Inactive)
REMARK    1  A    between atoms: C_2  and  C_3
REMARK    2  A    between atoms: C_6  and  N_7
REMARK    3  A    between atoms: N_7  and  C_8
REMARK    4  A    between atoms: C_8  and  C_9
REMARK    5  A    between atoms: C_13  and  C_14
REMARK                            x       y       z     vdW  Elec       q    Type
REMARK                         _______ _______ _______ _____ _____    ______ ____
ROOT
ATOM      1  C   UNL     1      45.094   5.030  12.828  0.00  0.00    +0.000 A 
ATOM      2  C   UNL     1      43.768   5.475  12.853  0.00  0.00    +0.000 A 
ATOM      3  C   UNL     1      42.919   5.207  11.781  0.00  0.00    +0.000 A 
ATOM      4  C   UNL     1      43.391   4.510  10.668  0.00  0.00    +0.000 A 
ATOM      5  C   UNL     1      44.725   4.072  10.586  0.00  0.00    +0.000 A 
ATOM      6  C   UNL     1      45.549   4.318  11.702  0.00  0.00    +0.000 A 
ENDROOT
BRANCH   5   7
ATOM      7  C   UNL     1      45.273   3.472   9.347  0.00  0.00    +0.000 A 
ATOM      8  C   UNL     1      45.765   4.289   8.310  0.00  0.00    +0.000 A 
ATOM      9  C   UNL     1      46.371   3.748   7.173  0.00  0.00    +0.000 A 
ATOM     10  C   UNL     1      46.507   2.371   7.049  0.00  0.00    +0.000 A 
ATOM     11  C   UNL     1      46.017   1.536   8.049  0.00  0.00    +0.000 A 
ATOM     12  C   UNL     1      45.399   2.081   9.179  0.00  0.00    +0.000 A 
ENDBRANCH   5   7
BRANCH   1  13
ATOM     13  C   UNL     1      46.059   5.368  13.943  0.00  0.00    +0.000 C 
BRANCH  13  14
ATOM     14  N   UNL     1      46.399   4.159  14.685  0.00  0.00    +0.000 N 
ATOM     15  H   UNL     1      45.568   3.640  14.958  0.00  0.00    +0.000 HD
BRANCH  14  19
ATOM     16  C   UNL     1      49.237   4.550  17.718  0.00  0.00    +0.000 A 
ATOM     17  C   UNL     1      48.394   3.449  17.760  0.00  0.00    +0.000 A 
ATOM     18  C   UNL     1      47.454   3.281  16.736  0.00  0.00    +0.000 A 
ATOM     19  C   UNL     1      47.377   4.196  15.683  0.00  0.00    +0.000 A 
ATOM     20  C   UNL     1      48.258   5.280  15.764  0.00  0.00    +0.000 A 
ATOM     21  N   UNL     1      49.190   5.475  16.733  0.00  0.00    +0.000 NA
BRANCH  16  23
ATOM     22  N   UNL     1      50.988   4.911  19.606  0.00  0.00    +0.000 NA
ATOM     23  C   UNL     1      50.210   4.773  18.755  0.00  0.00    +0.000 C 
ENDBRANCH  16  23
ENDBRANCH  14  19
ENDBRANCH  13  14
ENDBRANCH   1  13
TORSDOF 5
ENDMDL
MODEL 7
REMARK VINA RESULT:    -6.604      3.048      7.215
REMARK INTER + INTRA:          -9.485
REMARK INTER:                  -8.642
REMARK INTRA:                  -0.843
REMARK UNBOUND:                -0.950
REMARK  Name = 
REMARK  5 active torsions:
REMARK  status: ('A' for Active; 'I' for Inactive)
REMARK    1  A    between atoms: C_2  and  C_3
REMARK    2  A    between atoms: C_6  and  N_7
REMARK    3  A    between atoms: N_7  and  C_8
REMARK    4  A    between atoms: C_8  and  C_9
REMARK    5  A    between atoms: C_13  and  C_14
REMARK                            x       y       z     vdW  Elec       q    Type
REMARK                         _______ _______ _______ _____ _____    ______ ____
ROOT
ATOM      1  C   UNL     1      44.517   3.678  11.636  0.00  0.00    +0.000 A 
ATOM      2  C   UNL     1      43.681   4.761  11.344  0.00  0.00    +0.000 A 
ATOM      3  C   UNL     1      43.503   5.173  10.025  0.00  0.00    +0.000 A 
ATOM      4  C   UNL     1      44.173   4.520   8.989  0.00  0.00    +0.000 A 
ATOM      5  C   UNL     1      45.047   3.448   9.239  0.00  0.00    +0.000 A 
ATOM      6  C   UNL     1      45.174   3.024  10.577  0.00  0.00    +0.000 A 
ENDROOT
BRANCH   5   7
ATOM      7  C   UNL     1      45.878   2.854   8.165  0.00  0.00    +0.000 A 
ATOM      8  C   UNL     1      46.278   1.505   8.230  0.00  0.00    +0.000 A 
ATOM      9  C   UNL     1      46.980   0.896   7.188  0.00  0.00    +0.000 A 
ATOM     10  C   UNL     1      47.295   1.623   6.046  0.00  0.00    +0.000 A 
ATOM     11  C   UNL     1      46.927   2.962   5.958  0.00  0.00    +0.000 A 
ATOM     12  C   UNL     1      46.235   3.572   7.010  0.00  0.00    +0.000 A 
ENDBRANCH   5   7
BRANCH   1  13
ATOM     13  C   UNL     1      44.786   3.253  13.064  0.00  0.00    +0.000 C 
BRANCH  13  14
ATOM     14  N   UNL     1      46.224   3.192  13.298  0.00  0.00    +0.000 N 
ATOM     15  H   UNL     1      46.505   2.290  13.672  0.00  0.00    +0.000 HD
BRANCH  14  19
ATOM     16  C   UNL     1      48.413   6.209  15.172  0.00  0.00    +0.000 A 
ATOM     17  C   UNL     1      47.979   6.437  13.873  0.00  0.00    +0.000 A 
ATOM     18  C   UNL     1      47.217   5.450  13.237  0.00  0.00    +0.000 A 
ATOM     19  C   UNL     1      46.885   4.266  13.899  0.00  0.00    +0.000 A 
ATOM     20  C   UNL     1      47.404   4.138  15.193  0.00  0.00    +0.000 A 
ATOM     21  N   UNL     1      48.137   5.074  15.851  0.00  0.00    +0.000 NA
BRANCH  16  23
ATOM     22  N   UNL     1      49.819   8.004  16.422  0.00  0.00    +0.000 NA
ATOM     23  C   UNL     1      49.211   7.187  15.864  0.00  0.00    +0.000 C 
ENDBRANCH  16  23
ENDBRANCH  14  19
ENDBRANCH  13  14
ENDBRANCH   1  13
TORSDOF 5
ENDMDL
MODEL 8
REMARK VINA RESULT:    -5.897      5.097      7.797
REMARK INTER + INTRA:          -8.570
REMARK INTER:                  -7.853
REMARK INTRA:                  -0.717
REMARK UNBOUND:                -0.950
REMARK  Name = 
REMARK  5 active torsions:
REMARK  status: ('A' for Active; 'I' for Inactive)
REMARK    1  A    between atoms: C_2  and  C_3
REMARK    2  A    between atoms: C_6  and  N_7
REMARK    3  A    between atoms: N_7  and  C_8
REMARK    4  A    between atoms: C_8  and  C_9
REMARK    5  A    between atoms: C_13  and  C_14
REMARK                            x       y       z     vdW  Elec       q    Type
REMARK                         _______ _______ _______ _____ _____    ______ ____
ROOT
ATOM      1  C   UNL     1      47.094   5.029  14.854  0.00  0.00    +0.000 A 
ATOM      2  C   UNL     1      47.894   6.163  14.674  0.00  0.00    +0.000 A 
ATOM      3  C   UNL     1      47.876   6.847  13.460  0.00  0.00    +0.000 A 
ATOM      4  C   UNL     1      47.076   6.394  12.410  0.00  0.00    +0.000 A 
ATOM      5  C   UNL     1      46.280   5.241  12.536  0.00  0.00    +0.000 A 
ATOM      6  C   UNL     1      46.284   4.595  13.788  0.00  0.00    +0.000 A 
ENDROOT
BRANCH   5   7
ATOM      7  C   UNL     1      45.551   4.669  11.380  0.00  0.00    +0.000 A 
ATOM      8  C   UNL     1      45.647   5.263  10.106  0.00  0.00    +0.000 A 
ATOM      9  C   UNL     1      45.046   4.690   8.982  0.00  0.00    +0.000 A 
ATOM     10  C   UNL     1      44.339   3.500   9.104  0.00  0.00    +0.000 A 
ATOM     11  C   UNL     1      44.214   2.897  10.352  0.00  0.00    +0.000 A 
ATOM     12  C   UNL     1      44.805   3.481  11.477  0.00  0.00    +0.000 A 
ENDBRANCH   5   7
BRANCH   1  13
ATOM     13  C   UNL     1      47.145   4.225  16.134  0.00  0.00    +0.000 C 
BRANCH  13  14
ATOM     14  N   UNL     1      48.260   4.679  16.959  0.00  0.00    +0.000 N 
ATOM     15  H   UNL     1      48.547   5.622  16.714  0.00  0.00    +0.000 HD
BRANCH  14  19
ATOM     16  C   UNL     1      51.447   2.034  17.460  0.00  0.00    +0.000 A 
ATOM     17  C   UNL     1      51.641   3.358  17.831  0.00  0.00    +0.000 A 
ATOM     18  C   UNL     1      50.575   4.256  17.700  0.00  0.00    +0.000 A 
ATOM     19  C   UNL     1      49.335   3.826  17.220  0.00  0.00    +0.000 A 
ATOM     20  C   UNL     1      49.270   2.477  16.851  0.00  0.00    +0.000 A 
ATOM     21  N   UNL     1      50.275   1.571  16.971  0.00  0.00    +0.000 NA
BRANCH  16  23
ATOM     22  N   UNL     1      53.373   0.303  17.691  0.00  0.00    +0.000 NA
ATOM     23  C   UNL     1      52.517   1.077  17.563  0.00  0.00    +0.000 C 
ENDBRANCH  16  23
ENDBRANCH  14  19
ENDBRANCH  13  14
ENDBRANCH   1  13
TORSDOF 5
ENDMDL
MODEL 9
REMARK VINA RESULT:    -5.529      4.510      6.848
REMARK INTER + INTRA:          -8.095
REMARK INTER:                  -7.329
REMARK INTRA:                  -0.766
REMARK UNBOUND:                -0.950
REMARK  Name = 
REMARK  5 active torsions:
REMARK  status: ('A' for Active; 'I' for Inactive)
REMARK    1  A    between atoms: C_2  and  C_3
REMARK    2  A    between atoms: C_6  and  N_7
REMARK    3  A    between atoms: N_7  and  C_8
REMARK    4  A    between atoms: C_8  and  C_9
REMARK    5  A    between atoms: C_13  and  C_14
REMARK                            x       y       z     vdW  Elec       q    Type
REMARK                         _______ _______ _______ _____ _____    ______ ____
ROOT
ATOM      1  C   UNL     1      46.476   5.219  13.287  0.00  0.00    +0.000 A 
ATOM      2  C   UNL     1      45.162   5.668  13.115  0.00  0.00    +0.000 A 
ATOM      3  C   UNL     1      44.913   6.869  12.453  0.00  0.00    +0.000 A 
ATOM      4  C   UNL     1      45.973   7.640  11.975  0.00  0.00    +0.000 A 
ATOM      5  C   UNL     1      47.310   7.243  12.153  0.00  0.00    +0.000 A 
ATOM      6  C   UNL     1      47.531   6.004  12.786  0.00  0.00    +0.000 A 
ENDROOT
BRANCH   5   7
ATOM      7  C   UNL     1      48.440   8.129  11.787  0.00  0.00    +0.000 A 
ATOM      8  C   UNL     1      48.269   9.527  11.737  0.00  0.00    +0.000 A 
ATOM      9  C   UNL     1      49.339  10.389  11.487  0.00  0.00    +0.000 A 
ATOM     10  C   UNL     1      50.614   9.873  11.288  0.00  0.00    +0.000 A 
ATOM     11  C   UNL     1      50.812   8.496  11.315  0.00  0.00    +0.000 A 
ATOM     12  C   UNL     1      49.735   7.635  11.552  0.00  0.00    +0.000 A 
ENDBRANCH   5   7
BRANCH   1  13
ATOM     13  C   UNL     1      46.782   3.956  14.063  0.00  0.00    +0.000 C 
BRANCH  13  14
ATOM     14  N   UNL     1      46.680   4.219  15.494  0.00  0.00    +0.000 N 
ATOM     15  H   UNL     1      46.071   5.010  15.687  0.00  0.00    +0.000 HD
BRANCH  14  19
ATOM     16  C   UNL     1      49.958   4.346  18.070  0.00  0.00    +0.000 A 
ATOM     17  C   UNL     1      49.448   3.100  17.735  0.00  0.00    +0.000 A 
ATOM     18  C   UNL     1      48.367   3.032  16.847  0.00  0.00    +0.000 A 
ATOM     19  C   UNL     1      47.822   4.195  16.298  0.00  0.00    +0.000 A 
ATOM     20  C   UNL     1      48.401   5.393  16.733  0.00  0.00    +0.000 A 
ATOM     21  N   UNL     1      49.456   5.502  17.583  0.00  0.00    +0.000 NA
BRANCH  16  23
ATOM     22  N   UNL     1      51.925   4.596  19.753  0.00  0.00    +0.000 NA
ATOM     23  C   UNL     1      51.060   4.468  18.989  0.00  0.00    +0.000 C 
ENDBRANCH  16  23
ENDBRANCH  14  19
ENDBRANCH  13  14
ENDBRANCH   1  13
TORSDOF 5
ENDMDL
