MODEL 1
REMARK VINA RESULT:    -9.257      0.000      0.000
REMARK INTER + INTRA:         -12.641
REMARK INTER:                 -11.421
REMARK INTRA:                  -1.219
REMARK UNBOUND:                -1.219
REMARK  Name = 
REMARK  4 active torsions:
REMARK  status: ('A' for Active; 'I' for Inactive)
REMARK    1  A    between atoms: C_2  and  C_4
REMARK    2  A    between atoms: N_8  and  C_9
REMARK    3  A    between atoms: C_9  and  C_10
REMARK    4  A    between atoms: C_14  and  C_15
REMARK                            x       y       z     vdW  Elec       q    Type
REMARK                         _______ _______ _______ _____ _____    ______ ____
ROOT
ATOM      1  C   UNL     1      43.816   4.917  11.371  0.00  0.00    +0.000 C 
ATOM      2  C   UNL     1      42.486   5.160  12.073  0.00  0.00    +0.000 C 
ATOM      3  C   UNL     1      42.974   6.137  11.057  0.00  0.00    +0.000 C 
ENDROOT
BRANCH   1   8
ATOM      4  C   UNL     1      46.600   2.794   7.522  0.00  0.00    +0.000 A 
ATOM      5  C   UNL     1      46.259   4.132   7.711  0.00  0.00    +0.000 A 
ATOM      6  C   UNL     1      45.372   4.471   8.732  0.00  0.00    +0.000 A 
ATOM      7  C   UNL     1      44.834   3.476   9.542  0.00  0.00    +0.000 A 
ATOM      8  N   UNL     1      43.850   3.723  10.504  0.00  0.00    +0.000 N 
ATOM      9  N   UNL     1      45.163   2.178   9.373  0.00  0.00    +0.000 NA
ATOM     10  C   UNL     1      46.028   1.861   8.374  0.00  0.00    +0.000 A 
ATOM     11  H   UNL     1      43.718   2.833  10.983  0.00  0.00    +0.000 HD
BRANCH   4  13
ATOM     12  N   UNL     1      47.399   2.972   5.232  0.00  0.00    +0.000 N 
ATOM     13  C   UNL     1      47.487   2.326   6.437  0.00  0.00    +0.000 C 
ATOM     14  O   UNL     1      48.277   1.409   6.605  0.00  0.00    +0.000 OA
ATOM     15  H   UNL     1      48.060   2.690   4.521  0.00  0.00    +0.000 HD
ATOM     16  H   UNL     1      46.951   3.872   5.126  0.00  0.00    +0.000 HD
ENDBRANCH   4  13
ENDBRANCH   1   8
BRANCH   1  17
ATOM     17  C   UNL     1      45.106   5.108  12.166  0.00  0.00    +0.000 A 
ATOM     18  C   UNL     1      45.609   4.112  13.016  0.00  0.00    +0.000 A 
ATOM     19  C   UNL     1      46.840   4.260  13.654  0.00  0.00    +0.000 A 
ATOM     20  C   UNL     1      47.606   5.406  13.436  0.00  0.00    +0.000 A 
ATOM     21  C   UNL     1      47.160   6.428  12.583  0.00  0.00    +0.000 A 
ATOM     22  C   UNL     1      45.894   6.263  11.988  0.00  0.00    +0.000 A 
BRANCH  21  23
ATOM     23  C   UNL     1      48.014   7.590  12.243  0.00  0.00    +0.000 A 
ATOM     24  C   UNL     1      49.379   7.422  11.951  0.00  0.00    +0.000 A 
ATOM     25  C   UNL     1      50.180   8.497  11.553  0.00  0.00    +0.000 A 
ATOM     26  C   UNL     1      49.629   9.768  11.432  0.00  0.00    +0.000 A 
ATOM     27  C   UNL     1      48.283   9.967  11.723  0.00  0.00    +0.000 A 
ATOM     28  C   UNL     1      47.487   8.890  12.133  0.00  0.00    +0.000 A 
ENDBRANCH  21  23
ENDBRANCH   1  17
TORSDOF 4
ENDMDL
MODEL 2
REMARK VINA RESULT:    -8.752      1.579      3.391
REMARK INTER + INTRA:         -12.018
REMARK INTER:                 -11.270
REMARK INTRA:                  -0.747
REMARK UNBOUND:                -1.219
REMARK  Name = 
REMARK  4 active torsions:
REMARK  status: ('A' for Active; 'I' for Inactive)
REMARK    1  A    between atoms: C_2  and  C_4
REMARK    2  A    between atoms: N_8  and  C_9
REMARK    3  A    between atoms: C_9  and  C_10
REMARK    4  A    between atoms: C_14  and  C_15
REMARK                            x       y       z     vdW  Elec       q    Type
REMARK                         _______ _______ _______ _____ _____    ______ ____
ROOT
ATOM      1  C   UNL     1      43.909   4.945  11.525  0.00  0.00    +0.000 C 
ATOM      2  C   UNL     1      42.749   5.065  12.505  0.00  0.00    +0.000 C 
ATOM      3  C   UNL     1      42.832   5.996  11.343  0.00  0.00    +0.000 C 
ENDROOT
BRANCH   1   8
ATOM      4  C   UNL     1      46.385   2.713   7.531  0.00  0.00    +0.000 A 
ATOM      5  C   UNL     1      45.960   4.034   7.660  0.00  0.00    +0.000 A 
ATOM      6  C   UNL     1      45.174   4.393   8.754  0.00  0.00    +0.000 A 
ATOM      7  C   UNL     1      44.820   3.433   9.697  0.00  0.00    +0.000 A 
ATOM      8  N   UNL     1      43.939   3.688  10.753  0.00  0.00    +0.000 N 
ATOM      9  N   UNL     1      45.233   2.152   9.586  0.00  0.00    +0.000 NA
ATOM     10  C   UNL     1      45.998   1.816   8.514  0.00  0.00    +0.000 A 
ATOM     11  H   UNL     1      43.939   2.834  11.309  0.00  0.00    +0.000 HD
BRANCH   4  13
ATOM     12  N   UNL     1      47.182   2.994   5.250  0.00  0.00    +0.000 N 
ATOM     13  C   UNL     1      47.174   2.222   6.382  0.00  0.00    +0.000 C 
ATOM     14  O   UNL     1      47.805   1.177   6.437  0.00  0.00    +0.000 OA
ATOM     15  H   UNL     1      47.782   2.683   4.498  0.00  0.00    +0.000 HD
ATOM     16  H   UNL     1      46.887   3.961   5.245  0.00  0.00    +0.000 HD
ENDBRANCH   4  13
ENDBRANCH   1   8
BRANCH   1  17
ATOM     17  C   UNL     1      45.296   5.396  11.978  0.00  0.00    +0.000 A 
ATOM     18  C   UNL     1      46.008   6.399  11.304  0.00  0.00    +0.000 A 
ATOM     19  C   UNL     1      47.226   6.872  11.790  0.00  0.00    +0.000 A 
ATOM     20  C   UNL     1      47.748   6.363  12.979  0.00  0.00    +0.000 A 
ATOM     21  C   UNL     1      47.071   5.371  13.705  0.00  0.00    +0.000 A 
ATOM     22  C   UNL     1      45.864   4.887  13.164  0.00  0.00    +0.000 A 
BRANCH  21  23
ATOM     23  C   UNL     1      47.547   4.911  15.031  0.00  0.00    +0.000 A 
ATOM     24  C   UNL     1      48.309   5.755  15.857  0.00  0.00    +0.000 A 
ATOM     25  C   UNL     1      48.700   5.363  17.142  0.00  0.00    +0.000 A 
ATOM     26  C   UNL     1      48.329   4.116  17.632  0.00  0.00    +0.000 A 
ATOM     27  C   UNL     1      47.584   3.254  16.833  0.00  0.00    +0.000 A 
ATOM     28  C   UNL     1      47.205   3.645  15.543  0.00  0.00    +0.000 A 
ENDBRANCH  21  23
ENDBRANCH   1  17
TORSDOF 4
ENDMDL
MODEL 3
REMARK VINA RESULT:    -6.817      4.678      8.226
REMARK INTER + INTRA:          -9.631
REMARK INTER:                  -8.550
REMARK INTRA:                  -1.081
REMARK UNBOUND:                -1.219
REMARK  Name = 
REMARK  4 active torsions:
REMARK  status: ('A' for Active; 'I' for Inactive)
REMARK    1  A    between atoms: C_2  and  C_4
REMARK    2  A    between atoms: N_8  and  C_9
REMARK    3  A    between atoms: C_9  and  C_10
REMARK    4  A    between atoms: C_14  and  C_15
REMARK                            x       y       z     vdW  Elec       q    Type
REMARK                         _______ _______ _______ _____ _____    ______ ____
ROOT
ATOM      1  C   UNL     1      49.042   7.913  12.660  0.00  0.00    +0.000 C 
ATOM      2  C   UNL     1      50.008   8.105  11.498  0.00  0.00    +0.000 C 
ATOM      3  C   UNL     1      49.686   9.258  12.388  0.00  0.00    +0.000 C 
ENDROOT
BRANCH   1   8
ATOM      4  C   UNL     1      48.326   6.831  17.698  0.00  0.00    +0.000 A 
ATOM      5  C   UNL     1      48.377   8.077  17.077  0.00  0.00    +0.000 A 
ATOM      6  C   UNL     1      48.733   8.153  15.731  0.00  0.00    +0.000 A 
ATOM      7  C   UNL     1      49.037   6.991  15.028  0.00  0.00    +0.000 A 
ATOM      8  N   UNL     1      49.517   6.997  13.715  0.00  0.00    +0.000 N 
ATOM      9  N   UNL     1      48.983   5.778  15.618  0.00  0.00    +0.000 NA
ATOM     10  C   UNL     1      48.636   5.719  16.930  0.00  0.00    +0.000 A 
ATOM     11  H   UNL     1      49.570   6.014  13.448  0.00  0.00    +0.000 HD
BRANCH   4  13
ATOM     12  N   UNL     1      47.062   5.715  19.452  0.00  0.00    +0.000 N 
ATOM     13  C   UNL     1      48.013   6.649  19.131  0.00  0.00    +0.000 C 
ATOM     14  O   UNL     1      48.584   7.292  19.999  0.00  0.00    +0.000 OA
ATOM     15  H   UNL     1      46.908   5.550  20.437  0.00  0.00    +0.000 HD
ATOM     16  H   UNL     1      46.752   5.005  18.803  0.00  0.00    +0.000 HD
ENDBRANCH   4  13
ENDBRANCH   1   8
BRANCH   1  17
ATOM     17  C   UNL     1      47.556   7.743  12.353  0.00  0.00    +0.000 A 
ATOM     18  C   UNL     1      46.624   8.760  12.609  0.00  0.00    +0.000 A 
ATOM     19  C   UNL     1      45.289   8.630  12.227  0.00  0.00    +0.000 A 
ATOM     20  C   UNL     1      44.863   7.482  11.558  0.00  0.00    +0.000 A 
ATOM     21  C   UNL     1      45.754   6.440  11.260  0.00  0.00    +0.000 A 
ATOM     22  C   UNL     1      47.086   6.587  11.697  0.00  0.00    +0.000 A 
BRANCH  21  23
ATOM     23  C   UNL     1      45.349   5.274  10.442  0.00  0.00    +0.000 A 
ATOM     24  C   UNL     1      45.761   5.152   9.104  0.00  0.00    +0.000 A 
ATOM     25  C   UNL     1      45.451   4.020   8.342  0.00  0.00    +0.000 A 
ATOM     26  C   UNL     1      44.724   2.979   8.908  0.00  0.00    +0.000 A 
ATOM     27  C   UNL     1      44.293   3.075  10.228  0.00  0.00    +0.000 A 
ATOM     28  C   UNL     1      44.595   4.215  10.983  0.00  0.00    +0.000 A 
ENDBRANCH  21  23
ENDBRANCH   1  17
TORSDOF 4
ENDMDL
MODEL 4
REMARK VINA RESULT:    -6.798      4.031      7.491
REMARK INTER + INTRA:          -9.607
REMARK INTER:                  -9.477
REMARK INTRA:                  -0.129
REMARK UNBOUND:                -1.219
REMARK  Name = 
REMARK  4 active torsions:
REMARK  status: ('A' for Active; 'I' for Inactive)
REMARK    1  A    between atoms: C_2  and  C_4
REMARK    2  A    between atoms: N_8  and  C_9
REMARK    3  A    between atoms: C_9  and  C_10
REMARK    4  A    between atoms: C_14  and  C_15
REMARK                            x       y       z     vdW  Elec       q    Type
REMARK                         _______ _______ _______ _____ _____    ______ ____
ROOT
ATOM      1  C   UNL     1      48.556   7.764  12.763  0.00  0.00    +0.000 C 
ATOM      2  C   UNL     1      49.687   7.117  11.973  0.00  0.00    +0.000 C 
ATOM      3  C   UNL     1      49.500   8.596  11.918  0.00  0.00    +0.000 C 
ENDROOT
BRANCH   1   8
ATOM      4  C   UNL     1      47.981   4.314  16.615  0.00  0.00    +0.000 A 
ATOM      5  C   UNL     1      47.182   4.499  15.488  0.00  0.00    +0.000 A 
ATOM      6  C   UNL     1      47.425   5.587  14.651  0.00  0.00    +0.000 A 
ATOM      7  C   UNL     1      48.454   6.475  14.950  0.00  0.00    +0.000 A 
ATOM      8  N   UNL     1      48.682   7.651  14.228  0.00  0.00    +0.000 N 
ATOM      9  N   UNL     1      49.239   6.302  16.035  0.00  0.00    +0.000 NA
ATOM     10  C   UNL     1      48.990   5.238  16.842  0.00  0.00    +0.000 A 
ATOM     11  H   UNL     1      49.535   8.044  14.625  0.00  0.00    +0.000 HD
BRANCH   4  13
ATOM     12  N   UNL     1      48.787   2.971  18.476  0.00  0.00    +0.000 N 
ATOM     13  C   UNL     1      47.771   3.226  17.592  0.00  0.00    +0.000 C 
ATOM     14  O   UNL     1      46.732   2.585  17.623  0.00  0.00    +0.000 OA
ATOM     15  H   UNL     1      48.603   2.273  19.183  0.00  0.00    +0.000 HD
ATOM     16  H   UNL     1      49.542   3.622  18.644  0.00  0.00    +0.000 HD
ENDBRANCH   4  13
ENDBRANCH   1   8
BRANCH   1  17
ATOM     17  C   UNL     1      47.122   7.571  12.274  0.00  0.00    +0.000 A 
ATOM     18  C   UNL     1      46.167   8.596  12.351  0.00  0.00    +0.000 A 
ATOM     19  C   UNL     1      44.893   8.439  11.806  0.00  0.00    +0.000 A 
ATOM     20  C   UNL     1      44.555   7.255  11.150  0.00  0.00    +0.000 A 
ATOM     21  C   UNL     1      45.476   6.203  11.027  0.00  0.00    +0.000 A 
ATOM     22  C   UNL     1      46.740   6.379  11.625  0.00  0.00    +0.000 A 
BRANCH  21  23
ATOM     23  C   UNL     1      45.177   4.992  10.227  0.00  0.00    +0.000 A 
ATOM     24  C   UNL     1      45.623   4.877   8.898  0.00  0.00    +0.000 A 
ATOM     25  C   UNL     1      45.416   3.710   8.155  0.00  0.00    +0.000 A 
ATOM     26  C   UNL     1      44.762   2.626   8.731  0.00  0.00    +0.000 A 
ATOM     27  C   UNL     1      44.301   2.714  10.040  0.00  0.00    +0.000 A 
ATOM     28  C   UNL     1      44.499   3.889  10.777  0.00  0.00    +0.000 A 
ENDBRANCH  21  23
ENDBRANCH   1  17
TORSDOF 4
ENDMDL
MODEL 5
REMARK VINA RESULT:    -6.574      3.179      6.590
REMARK INTER + INTRA:          -9.330
REMARK INTER:                  -8.494
REMARK INTRA:                  -0.836
REMARK UNBOUND:                -1.219
REMARK  Name = 
REMARK  4 active torsions:
REMARK  status: ('A' for Active; 'I' for Inactive)
REMARK    1  A    between atoms: C_2  and  C_4
REMARK    2  A    between atoms: N_8  and  C_9
REMARK    3  A    between atoms: C_9  and  C_10
REMARK    4  A    between atoms: C_14  and  C_15
REMARK                            x       y       z     vdW  Elec       q    Type
REMARK                         _______ _______ _______ _____ _____    ______ ____
ROOT
ATOM      1  C   UNL     1      44.093   5.698  11.489  0.00  0.00    +0.000 C 
ATOM      2  C   UNL     1      42.725   6.358  11.376  0.00  0.00    +0.000 C 
ATOM      3  C   UNL     1      43.212   5.894  12.707  0.00  0.00    +0.000 C 
ENDROOT
BRANCH   1   8
ATOM      4  C   UNL     1      48.767   7.065  13.320  0.00  0.00    +0.000 A 
ATOM      5  C   UNL     1      47.592   6.827  14.031  0.00  0.00    +0.000 A 
ATOM      6  C   UNL     1      46.403   6.620  13.332  0.00  0.00    +0.000 A 
ATOM      7  C   UNL     1      46.401   6.659  11.941  0.00  0.00    +0.000 A 
ATOM      8  N   UNL     1      45.233   6.581  11.177  0.00  0.00    +0.000 N 
ATOM      9  N   UNL     1      47.535   6.882  11.243  0.00  0.00    +0.000 NA
ATOM     10  C   UNL     1      48.686   7.083  11.936  0.00  0.00    +0.000 A 
ATOM     11  H   UNL     1      45.552   6.556  10.208  0.00  0.00    +0.000 HD
BRANCH   4  13
ATOM     12  N   UNL     1      50.981   8.069  13.245  0.00  0.00    +0.000 N 
ATOM     13  C   UNL     1      50.065   7.350  13.967  0.00  0.00    +0.000 C 
ATOM     14  O   UNL     1      50.312   6.972  15.103  0.00  0.00    +0.000 OA
ATOM     15  H   UNL     1      51.836   8.317  13.724  0.00  0.00    +0.000 HD
ATOM     16  H   UNL     1      50.734   8.600  12.422  0.00  0.00    +0.000 HD
ENDBRANCH   4  13
ENDBRANCH   1   8
BRANCH   1  17
ATOM     17  C   UNL     1      44.269   4.285  10.939  0.00  0.00    +0.000 A 
ATOM     18  C   UNL     1      43.522   3.200  11.425  0.00  0.00    +0.000 A 
ATOM     19  C   UNL     1      43.619   1.938  10.841  0.00  0.00    +0.000 A 
ATOM     20  C   UNL     1      44.453   1.739   9.740  0.00  0.00    +0.000 A 
ATOM     21  C   UNL     1      45.209   2.790   9.201  0.00  0.00    +0.000 A 
ATOM     22  C   UNL     1      45.119   4.043   9.841  0.00  0.00    +0.000 A 
BRANCH  21  23
ATOM     23  C   UNL     1      46.000   2.628   7.959  0.00  0.00    +0.000 A 
ATOM     24  C   UNL     1      46.069   3.660   7.007  0.00  0.00    +0.000 A 
ATOM     25  C   UNL     1      46.872   3.551   5.867  0.00  0.00    +0.000 A 
ATOM     26  C   UNL     1      47.633   2.406   5.659  0.00  0.00    +0.000 A 
ATOM     27  C   UNL     1      47.578   1.364   6.579  0.00  0.00    +0.000 A 
ATOM     28  C   UNL     1      46.763   1.471   7.712  0.00  0.00    +0.000 A 
ENDBRANCH  21  23
ENDBRANCH   1  17
TORSDOF 4
ENDMDL
MODEL 6
REMARK VINA RESULT:    -6.564      4.385      8.002
REMARK INTER + INTRA:          -9.318
REMARK INTER:                  -9.814
REMARK INTRA:                   0.496
REMARK UNBOUND:                -1.219
REMARK  Name = 
REMARK  4 active torsions:
REMARK  status: ('A' for Active; 'I' for Inactive)
REMARK    1  A    between atoms: C_2  and  C_4
REMARK    2  A    between atoms: N_8  and  C_9
REMARK    3  A    between atoms: C_9  and  C_10
REMARK    4  A    between atoms: C_14  and  C_15
REMARK                            x       y       z     vdW  Elec       q    Type
REMARK                         _______ _______ _______ _____ _____    ______ ____
ROOT
ATOM      1  C   UNL     1      46.356   5.302  13.262  0.00  0.00    +0.000 C 
ATOM      2  C   UNL     1      47.587   6.115  12.882  0.00  0.00    +0.000 C 
ATOM      3  C   UNL     1      46.464   6.773  13.612  0.00  0.00    +0.000 C 
ENDROOT
BRANCH   1   8
ATOM      4  C   UNL     1      48.379   4.530  17.992  0.00  0.00    +0.000 A 
ATOM      5  C   UNL     1      48.847   5.356  16.972  0.00  0.00    +0.000 A 
ATOM      6  C   UNL     1      48.239   5.302  15.718  0.00  0.00    +0.000 A 
ATOM      7  C   UNL     1      47.182   4.424  15.498  0.00  0.00    +0.000 A 
ATOM      8  N   UNL     1      46.603   4.226  14.241  0.00  0.00    +0.000 N 
ATOM      9  N   UNL     1      46.716   3.624  16.481  0.00  0.00    +0.000 NA
ATOM     10  C   UNL     1      47.319   3.687  17.698  0.00  0.00    +0.000 A 
ATOM     11  H   UNL     1      45.816   3.599  14.408  0.00  0.00    +0.000 HD
BRANCH   4  13
ATOM     12  N   UNL     1      48.389   3.662  20.264  0.00  0.00    +0.000 N 
ATOM     13  C   UNL     1      48.989   4.473  19.337  0.00  0.00    +0.000 C 
ATOM     14  O   UNL     1      49.994   5.111  19.613  0.00  0.00    +0.000 OA
ATOM     15  H   UNL     1      48.856   3.578  21.157  0.00  0.00    +0.000 HD
ATOM     16  H   UNL     1      47.722   2.946  20.014  0.00  0.00    +0.000 HD
ENDBRANCH   4  13
ENDBRANCH   1   8
BRANCH   1  17
ATOM     17  C   UNL     1      45.387   4.887  12.157  0.00  0.00    +0.000 A 
ATOM     18  C   UNL     1      44.056   5.328  12.131  0.00  0.00    +0.000 A 
ATOM     19  C   UNL     1      43.214   5.026  11.062  0.00  0.00    +0.000 A 
ATOM     20  C   UNL     1      43.698   4.290   9.979  0.00  0.00    +0.000 A 
ATOM     21  C   UNL     1      45.025   3.837   9.942  0.00  0.00    +0.000 A 
ATOM     22  C   UNL     1      45.836   4.126  11.058  0.00  0.00    +0.000 A 
BRANCH  21  23
ATOM     23  C   UNL     1      45.589   3.165   8.748  0.00  0.00    +0.000 A 
ATOM     24  C   UNL     1      45.983   3.908   7.620  0.00  0.00    +0.000 A 
ATOM     25  C   UNL     1      46.587   3.297   6.517  0.00  0.00    +0.000 A 
ATOM     26  C   UNL     1      46.818   1.926   6.521  0.00  0.00    +0.000 A 
ATOM     27  C   UNL     1      46.431   1.163   7.618  0.00  0.00    +0.000 A 
ATOM     28  C   UNL     1      45.814   1.777   8.716  0.00  0.00    +0.000 A 
ENDBRANCH  21  23
ENDBRANCH   1  17
TORSDOF 4
ENDMDL
MODEL 7
REMARK VINA RESULT:    -6.413      1.178      2.147
REMARK INTER + INTRA:          -9.132
REMARK INTER:                  -9.040
REMARK INTRA:                  -0.092
REMARK UNBOUND:                -1.219
REMARK  Name = 
REMARK  4 active torsions:
REMARK  status: ('A' for Active; 'I' for Inactive)
REMARK    1  A    between atoms: C_2  and  C_4
REMARK    2  A    between atoms: N_8  and  C_9
REMARK    3  A    between atoms: C_9  and  C_10
REMARK    4  A    between atoms: C_14  and  C_15
REMARK                            x       y       z     vdW  Elec       q    Type
REMARK                         _______ _______ _______ _____ _____    ______ ____
ROOT
ATOM      1  C   UNL     1      44.153   3.974  11.853  0.00  0.00    +0.000 C 
ATOM      2  C   UNL     1      45.072   3.373  12.909  0.00  0.00    +0.000 C 
ATOM      3  C   UNL     1      43.620   3.545  13.205  0.00  0.00    +0.000 C 
ENDROOT
BRANCH   1   8
ATOM      4  C   UNL     1      46.522   2.952   7.335  0.00  0.00    +0.000 A 
ATOM      5  C   UNL     1      46.386   4.176   7.987  0.00  0.00    +0.000 A 
ATOM      6  C   UNL     1      45.578   4.259   9.119  0.00  0.00    +0.000 A 
ATOM      7  C   UNL     1      44.914   3.127   9.581  0.00  0.00    +0.000 A 
ATOM      8  N   UNL     1      43.994   3.157  10.634  0.00  0.00    +0.000 N 
ATOM      9  N   UNL     1      45.043   1.935   8.962  0.00  0.00    +0.000 NA
ATOM     10  C   UNL     1      45.834   1.868   7.859  0.00  0.00    +0.000 A 
ATOM     11  H   UNL     1      43.740   2.183  10.792  0.00  0.00    +0.000 HD
BRANCH   4  13
ATOM     12  N   UNL     1      48.647   2.503   6.240  0.00  0.00    +0.000 N 
ATOM     13  C   UNL     1      47.311   2.772   6.098  0.00  0.00    +0.000 C 
ATOM     14  O   UNL     1      46.796   2.846   4.993  0.00  0.00    +0.000 OA
ATOM     15  H   UNL     1      49.160   2.312   5.391  0.00  0.00    +0.000 HD
ATOM     16  H   UNL     1      49.053   2.195   7.113  0.00  0.00    +0.000 HD
ENDBRANCH   4  13
ENDBRANCH   1   8
BRANCH   1  17
ATOM     17  C   UNL     1      44.263   5.468  11.555  0.00  0.00    +0.000 A 
ATOM     18  C   UNL     1      43.141   6.246  11.234  0.00  0.00    +0.000 A 
ATOM     19  C   UNL     1      43.243   7.627  11.068  0.00  0.00    +0.000 A 
ATOM     20  C   UNL     1      44.473   8.262  11.243  0.00  0.00    +0.000 A 
ATOM     21  C   UNL     1      45.625   7.537  11.581  0.00  0.00    +0.000 A 
ATOM     22  C   UNL     1      45.494   6.139  11.701  0.00  0.00    +0.000 A 
BRANCH  21  23
ATOM     23  C   UNL     1      46.908   8.209  11.893  0.00  0.00    +0.000 A 
ATOM     24  C   UNL     1      48.119   7.494  11.883  0.00  0.00    +0.000 A 
ATOM     25  C   UNL     1      49.346   8.129  12.100  0.00  0.00    +0.000 A 
ATOM     26  C   UNL     1      49.389   9.500  12.325  0.00  0.00    +0.000 A 
ATOM     27  C   UNL     1      48.206  10.233  12.352  0.00  0.00    +0.000 A 
ATOM     28  C   UNL     1      46.979   9.591  12.147  0.00  0.00    +0.000 A 
ENDBRANCH  21  23
ENDBRANCH   1  17
TORSDOF 4
ENDMDL
MODEL 8
REMARK VINA RESULT:    -6.349      3.557      6.009
REMARK INTER + INTRA:          -9.053
REMARK INTER:                  -8.573
REMARK INTRA:                  -0.480
REMARK UNBOUND:                -1.219
REMARK  Name = 
REMARK  4 active torsions:
REMARK  status: ('A' for Active; 'I' for Inactive)
REMARK    1  A    between atoms: C_2  and  C_4
REMARK    2  A    between atoms: N_8  and  C_9
REMARK    3  A    between atoms: C_9  and  C_10
REMARK    4  A    between atoms: C_14  and  C_15
REMARK                            x       y       z     vdW  Elec       q    Type
REMARK                         _______ _______ _______ _____ _____    ______ ____
ROOT
ATOM      1  C   UNL     1      47.508   8.437  13.342  0.00  0.00    +0.000 C 
ATOM      2  C   UNL     1      47.814   9.744  12.621  0.00  0.00    +0.000 C 
ATOM      3  C   UNL     1      48.418   8.471  12.130  0.00  0.00    +0.000 C 
ENDROOT
BRANCH   1   8
ATOM      4  C   UNL     1      44.529   4.652  11.376  0.00  0.00    +0.000 A 
ATOM      5  C   UNL     1      45.621   5.290  10.790  0.00  0.00    +0.000 A 
ATOM      6  C   UNL     1      46.190   6.391  11.429  0.00  0.00    +0.000 A 
ATOM      7  C   UNL     1      45.661   6.842  12.634  0.00  0.00    +0.000 A 
ATOM      8  N   UNL     1      46.098   8.008  13.272  0.00  0.00    +0.000 N 
ATOM      9  N   UNL     1      44.608   6.227  13.214  0.00  0.00    +0.000 NA
ATOM     10  C   UNL     1      44.063   5.156  12.580  0.00  0.00    +0.000 A 
ATOM     11  H   UNL     1      45.590   8.033  14.155  0.00  0.00    +0.000 HD
BRANCH   4  13
ATOM     12  N   UNL     1      44.117   3.233   9.444  0.00  0.00    +0.000 N 
ATOM     13  C   UNL     1      43.823   3.513  10.753  0.00  0.00    +0.000 C 
ATOM     14  O   UNL     1      43.019   2.838  11.378  0.00  0.00    +0.000 OA
ATOM     15  H   UNL     1      43.681   2.410   9.051  0.00  0.00    +0.000 HD
ATOM     16  H   UNL     1      44.934   3.599   8.976  0.00  0.00    +0.000 HD
ENDBRANCH   4  13
ENDBRANCH   1   8
BRANCH   1  17
ATOM     17  C   UNL     1      48.133   8.199  14.714  0.00  0.00    +0.000 A 
ATOM     18  C   UNL     1      48.249   9.223  15.666  0.00  0.00    +0.000 A 
ATOM     19  C   UNL     1      48.726   8.966  16.951  0.00  0.00    +0.000 A 
ATOM     20  C   UNL     1      49.078   7.666  17.317  0.00  0.00    +0.000 A 
ATOM     21  C   UNL     1      48.966   6.599  16.413  0.00  0.00    +0.000 A 
ATOM     22  C   UNL     1      48.520   6.902  15.111  0.00  0.00    +0.000 A 
BRANCH  21  23
ATOM     23  C   UNL     1      49.215   5.197  16.823  0.00  0.00    +0.000 A 
ATOM     24  C   UNL     1      48.236   4.205  16.633  0.00  0.00    +0.000 A 
ATOM     25  C   UNL     1      48.484   2.865  16.944  0.00  0.00    +0.000 A 
ATOM     26  C   UNL     1      49.723   2.484  17.446  0.00  0.00    +0.000 A 
ATOM     27  C   UNL     1      50.708   3.445  17.654  0.00  0.00    +0.000 A 
ATOM     28  C   UNL     1      50.452   4.788  17.354  0.00  0.00    +0.000 A 
ENDBRANCH  21  23
ENDBRANCH   1  17
TORSDOF 4
ENDMDL
MODEL 9
REMARK VINA RESULT:    -6.277      3.668      6.645
REMARK INTER + INTRA:          -8.965
REMARK INTER:                  -7.772
REMARK INTRA:                  -1.193
REMARK UNBOUND:                -1.219
REMARK  Name = 
REMARK  4 active torsions:
REMARK  status: ('A' for Active; 'I' for Inactive)
REMARK    1  A    between atoms: C_2  and  C_4
REMARK    2  A    between atoms: N_8  and  C_9
REMARK    3  A    between atoms: C_9  and  C_10
REMARK    4  A    between atoms: C_14  and  C_15
REMARK                            x       y       z     vdW  Elec       q    Type
REMARK                         _______ _______ _______ _____ _____    ______ ____
ROOT
ATOM      1  C   UNL     1      49.201   8.636  12.730  0.00  0.00    +0.000 C 
ATOM      2  C   UNL     1      50.407   9.415  12.220  0.00  0.00    +0.000 C 
ATOM      3  C   UNL     1      50.343   7.938  12.019  0.00  0.00    +0.000 C 
ENDROOT
BRANCH   1   8
ATOM      4  C   UNL     1      44.622   6.499  11.491  0.00  0.00    +0.000 A 
ATOM      5  C   UNL     1      45.891   5.925  11.440  0.00  0.00    +0.000 A 
ATOM      6  C   UNL     1      47.010   6.723  11.671  0.00  0.00    +0.000 A 
ATOM      7  C   UNL     1      46.851   8.078  11.943  0.00  0.00    +0.000 A 
ATOM      8  N   UNL     1      47.926   8.964  12.065  0.00  0.00    +0.000 N 
ATOM      9  N   UNL     1      45.626   8.644  12.002  0.00  0.00    +0.000 NA
ATOM     10  C   UNL     1      44.544   7.854  11.774  0.00  0.00    +0.000 A 
ATOM     11  H   UNL     1      47.506   9.852  12.339  0.00  0.00    +0.000 HD
BRANCH   4  13
ATOM     12  N   UNL     1      42.212   6.262  11.715  0.00  0.00    +0.000 N 
ATOM     13  C   UNL     1      43.379   5.752  11.209  0.00  0.00    +0.000 C 
ATOM     14  O   UNL     1      43.383   4.729  10.541  0.00  0.00    +0.000 OA
ATOM     15  H   UNL     1      41.361   5.782  11.456  0.00  0.00    +0.000 HD
ATOM     16  H   UNL     1      42.130   7.212  12.052  0.00  0.00    +0.000 HD
ENDBRANCH   4  13
ENDBRANCH   1   8
BRANCH   1  17
ATOM     17  C   UNL     1      49.049   8.432  14.236  0.00  0.00    +0.000 A 
ATOM     18  C   UNL     1      48.675   9.477  15.093  0.00  0.00    +0.000 A 
ATOM     19  C   UNL     1      48.439   9.251  16.449  0.00  0.00    +0.000 A 
ATOM     20  C   UNL     1      48.553   7.963  16.972  0.00  0.00    +0.000 A 
ATOM     21  C   UNL     1      48.908   6.876  16.159  0.00  0.00    +0.000 A 
ATOM     22  C   UNL     1      49.178   7.148  14.802  0.00  0.00    +0.000 A 
BRANCH  21  23
ATOM     23  C   UNL     1      48.910   5.485  16.669  0.00  0.00    +0.000 A 
ATOM     24  C   UNL     1      47.810   4.636  16.457  0.00  0.00    +0.000 A 
ATOM     25  C   UNL     1      47.828   3.299  16.865  0.00  0.00    +0.000 A 
ATOM     26  C   UNL     1      48.955   2.778  17.491  0.00  0.00    +0.000 A 
ATOM     27  C   UNL     1      50.056   3.597  17.724  0.00  0.00    +0.000 A 
ATOM     28  C   UNL     1      50.029   4.939  17.325  0.00  0.00    +0.000 A 
ENDBRANCH  21  23
ENDBRANCH   1  17
TORSDOF 4
ENDMDL
