MODEL 1
REMARK VINA RESULT:    -6.850      0.000      0.000
REMARK INTER + INTRA:          -9.142
REMARK INTER:                  -8.452
REMARK INTRA:                  -0.690
REMARK UNBOUND:                -0.690
REMARK  Name = 
REMARK  6 active torsions:
REMARK  status: ('A' for Active; 'I' for Inactive)
REMARK    1  A    between atoms: C_1  and  C_2
REMARK    2  A    between atoms: C_2  and  C_3
REMARK    3  A    between atoms: C_2  and  C_4
REMARK    4  A    between atoms: C_2  and  C_15
REMARK    5  A    between atoms: C_5  and  C_6
REMARK    6  A    between atoms: C_9  and  C_10
REMARK                            x       y       z     vdW  Elec       q    Type
REMARK                         _______ _______ _______ _____ _____    ______ ____
ROOT
ATOM      1  C   UNL     1      45.302   4.279  11.975  0.00  0.00    +0.000 C 
ATOM      2  C   UNL     1      45.816   5.503  12.195  0.00  0.00    +0.000 C 
ENDROOT
BRANCH   2   3
ATOM      3  C   UNL     1      46.798   5.819  13.237  0.00  0.00    +0.000 A 
ATOM      4  C   UNL     1      47.572   6.981  13.221  0.00  0.00    +0.000 A 
ATOM      5  C   UNL     1      48.493   7.214  14.240  0.00  0.00    +0.000 A 
ATOM      6  C   UNL     1      48.623   6.260  15.239  0.00  0.00    +0.000 A 
ATOM      7  N   UNL     1      47.914   5.097  15.278  0.00  0.00    +0.000 NA
ATOM      8  C   UNL     1      47.027   4.911  14.273  0.00  0.00    +0.000 A 
BRANCH   6   9
ATOM      9  C   UNL     1      49.591   6.492  16.355  0.00  0.00    +0.000 C 
ATOM     10  N   UNL     1      49.364   7.618  17.102  0.00  0.00    +0.000 N 
ATOM     11  O   UNL     1      50.524   5.740  16.592  0.00  0.00    +0.000 OA
ATOM     12  H   UNL     1      48.582   8.221  16.870  0.00  0.00    +0.000 HD
ATOM     13  H   UNL     1      49.985   7.842  17.867  0.00  0.00    +0.000 HD
ENDBRANCH   6   9
ENDBRANCH   2   3
BRANCH   1  15
ATOM     14  C   UNL     1      43.362   2.733  11.337  0.00  0.00    +0.000 C 
ATOM     15  C   UNL     1      44.289   3.890  10.892  0.00  0.00    +0.000 C 
ATOM     16  C   UNL     1      43.381   5.125  10.681  0.00  0.00    +0.000 C 
BRANCH  15  17
ATOM     17  C   UNL     1      45.044   3.470   9.612  0.00  0.00    +0.000 A 
ATOM     18  C   UNL     1      45.249   2.125   9.253  0.00  0.00    +0.000 A 
ATOM     19  C   UNL     1      45.943   1.781   8.089  0.00  0.00    +0.000 A 
ATOM     20  C   UNL     1      46.445   2.772   7.253  0.00  0.00    +0.000 A 
ATOM     21  C   UNL     1      46.249   4.109   7.579  0.00  0.00    +0.000 A 
ATOM     22  C   UNL     1      45.556   4.454   8.743  0.00  0.00    +0.000 A 
ENDBRANCH  15  17
ENDBRANCH   1  15
TORSDOF 4
ENDMDL
MODEL 2
REMARK VINA RESULT:    -6.796      1.938      2.552
REMARK INTER + INTRA:          -9.076
REMARK INTER:                  -8.344
REMARK INTRA:                  -0.731
REMARK UNBOUND:                -0.690
REMARK  Name = 
REMARK  6 active torsions:
REMARK  status: ('A' for Active; 'I' for Inactive)
REMARK    1  A    between atoms: C_1  and  C_2
REMARK    2  A    between atoms: C_2  and  C_3
REMARK    3  A    between atoms: C_2  and  C_4
REMARK    4  A    between atoms: C_2  and  C_15
REMARK    5  A    between atoms: C_5  and  C_6
REMARK    6  A    between atoms: C_9  and  C_10
REMARK                            x       y       z     vdW  Elec       q    Type
REMARK                         _______ _______ _______ _____ _____    ______ ____
ROOT
ATOM      1  C   UNL     1      45.197   4.850  12.665  0.00  0.00    +0.000 C 
ATOM      2  C   UNL     1      46.416   5.235  13.085  0.00  0.00    +0.000 C 
ENDROOT
BRANCH   2   3
ATOM      3  C   UNL     1      47.077   4.733  14.294  0.00  0.00    +0.000 A 
ATOM      4  C   UNL     1      47.571   5.575  15.292  0.00  0.00    +0.000 A 
ATOM      5  C   UNL     1      48.195   5.030  16.412  0.00  0.00    +0.000 A 
ATOM      6  C   UNL     1      48.321   3.650  16.488  0.00  0.00    +0.000 A 
ATOM      7  N   UNL     1      47.884   2.792  15.525  0.00  0.00    +0.000 NA
ATOM      8  C   UNL     1      47.280   3.361  14.455  0.00  0.00    +0.000 A 
BRANCH   6   9
ATOM      9  C   UNL     1      48.971   3.037  17.688  0.00  0.00    +0.000 C 
ATOM     10  N   UNL     1      48.294   3.199  18.867  0.00  0.00    +0.000 N 
ATOM     11  O   UNL     1      50.032   2.433  17.632  0.00  0.00    +0.000 OA
ATOM     12  H   UNL     1      47.419   3.712  18.873  0.00  0.00    +0.000 HD
ATOM     13  H   UNL     1      48.679   2.818  19.720  0.00  0.00    +0.000 HD
ENDBRANCH   6   9
ENDBRANCH   2   3
BRANCH   1  15
ATOM     14  C   UNL     1      42.929   5.302  11.563  0.00  0.00    +0.000 C 
ATOM     15  C   UNL     1      44.469   5.327  11.403  0.00  0.00    +0.000 C 
ATOM     16  C   UNL     1      44.867   6.809  11.204  0.00  0.00    +0.000 C 
BRANCH  15  17
ATOM     17  C   UNL     1      44.868   4.429  10.211  0.00  0.00    +0.000 A 
ATOM     18  C   UNL     1      45.578   4.911   9.096  0.00  0.00    +0.000 A 
ATOM     19  C   UNL     1      45.918   4.070   8.032  0.00  0.00    +0.000 A 
ATOM     20  C   UNL     1      45.561   2.727   8.058  0.00  0.00    +0.000 A 
ATOM     21  C   UNL     1      44.866   2.222   9.151  0.00  0.00    +0.000 A 
ATOM     22  C   UNL     1      44.525   3.062  10.215  0.00  0.00    +0.000 A 
ENDBRANCH  15  17
ENDBRANCH   1  15
TORSDOF 4
ENDMDL
MODEL 3
REMARK VINA RESULT:    -6.470      1.450      1.864
REMARK INTER + INTRA:          -8.673
REMARK INTER:                  -8.040
REMARK INTRA:                  -0.633
REMARK UNBOUND:                -0.690
REMARK  Name = 
REMARK  6 active torsions:
REMARK  status: ('A' for Active; 'I' for Inactive)
REMARK    1  A    between atoms: C_1  and  C_2
REMARK    2  A    between atoms: C_2  and  C_3
REMARK    3  A    between atoms: C_2  and  C_4
REMARK    4  A    between atoms: C_2  and  C_15
REMARK    5  A    between atoms: C_5  and  C_6
REMARK    6  A    between atoms: C_9  and  C_10
REMARK                            x       y       z     vdW  Elec       q    Type
REMARK                         _______ _______ _______ _____ _____    ______ ____
ROOT
ATOM      1  C   UNL     1      45.674   5.086  12.098  0.00  0.00    +0.000 C 
ATOM      2  C   UNL     1      46.410   6.181  11.836  0.00  0.00    +0.000 C 
ENDROOT
BRANCH   2   3
ATOM      3  C   UNL     1      47.571   6.611  12.622  0.00  0.00    +0.000 A 
ATOM      4  C   UNL     1      48.580   7.422  12.100  0.00  0.00    +0.000 A 
ATOM      5  C   UNL     1      49.660   7.786  12.901  0.00  0.00    +0.000 A 
ATOM      6  C   UNL     1      49.703   7.308  14.203  0.00  0.00    +0.000 A 
ATOM      7  N   UNL     1      48.760   6.488  14.745  0.00  0.00    +0.000 NA
ATOM      8  C   UNL     1      47.725   6.162  13.935  0.00  0.00    +0.000 A 
BRANCH   6   9
ATOM      9  C   UNL     1      50.842   7.698  15.092  0.00  0.00    +0.000 C 
ATOM     10  N   UNL     1      52.073   7.715  14.492  0.00  0.00    +0.000 N 
ATOM     11  O   UNL     1      50.697   7.981  16.271  0.00  0.00    +0.000 OA
ATOM     12  H   UNL     1      52.153   7.468  13.511  0.00  0.00    +0.000 HD
ATOM     13  H   UNL     1      52.889   7.961  15.034  0.00  0.00    +0.000 HD
ENDBRANCH   6   9
ENDBRANCH   2   3
BRANCH   1  15
ATOM     14  C   UNL     1      43.592   3.592  12.113  0.00  0.00    +0.000 C 
ATOM     15  C   UNL     1      44.464   4.581  11.301  0.00  0.00    +0.000 C 
ATOM     16  C   UNL     1      43.580   5.820  11.021  0.00  0.00    +0.000 C 
BRANCH  15  17
ATOM     17  C   UNL     1      44.955   3.884  10.013  0.00  0.00    +0.000 A 
ATOM     18  C   UNL     1      45.459   4.592   8.907  0.00  0.00    +0.000 A 
ATOM     19  C   UNL     1      45.889   3.929   7.753  0.00  0.00    +0.000 A 
ATOM     20  C   UNL     1      45.830   2.542   7.680  0.00  0.00    +0.000 A 
ATOM     21  C   UNL     1      45.344   1.817   8.761  0.00  0.00    +0.000 A 
ATOM     22  C   UNL     1      44.913   2.479   9.914  0.00  0.00    +0.000 A 
ENDBRANCH  15  17
ENDBRANCH   1  15
TORSDOF 4
ENDMDL
MODEL 4
REMARK VINA RESULT:    -6.268      3.738      7.842
REMARK INTER + INTRA:          -8.424
REMARK INTER:                  -7.729
REMARK INTRA:                  -0.695
REMARK UNBOUND:                -0.690
REMARK  Name = 
REMARK  6 active torsions:
REMARK  status: ('A' for Active; 'I' for Inactive)
REMARK    1  A    between atoms: C_1  and  C_2
REMARK    2  A    between atoms: C_2  and  C_3
REMARK    3  A    between atoms: C_2  and  C_4
REMARK    4  A    between atoms: C_2  and  C_15
REMARK    5  A    between atoms: C_5  and  C_6
REMARK    6  A    between atoms: C_9  and  C_10
REMARK                            x       y       z     vdW  Elec       q    Type
REMARK                         _______ _______ _______ _____ _____    ______ ____
ROOT
ATOM      1  C   UNL     1      47.543   4.726  15.868  0.00  0.00    +0.000 C 
ATOM      2  C   UNL     1      47.484   5.421  14.717  0.00  0.00    +0.000 C 
ENDROOT
BRANCH   2   3
ATOM      3  C   UNL     1      46.678   5.038  13.555  0.00  0.00    +0.000 A 
ATOM      4  C   UNL     1      46.312   5.942  12.556  0.00  0.00    +0.000 A 
ATOM      5  C   UNL     1      45.536   5.511  11.481  0.00  0.00    +0.000 A 
ATOM      6  C   UNL     1      45.135   4.182  11.451  0.00  0.00    +0.000 A 
ATOM      7  N   UNL     1      45.441   3.273  12.418  0.00  0.00    +0.000 NA
ATOM      8  C   UNL     1      46.199   3.731  13.442  0.00  0.00    +0.000 A 
BRANCH   6   9
ATOM      9  C   UNL     1      44.318   3.688  10.300  0.00  0.00    +0.000 C 
ATOM     10  N   UNL     1      44.137   4.586   9.282  0.00  0.00    +0.000 N 
ATOM     11  O   UNL     1      43.837   2.565  10.261  0.00  0.00    +0.000 OA
ATOM     12  H   UNL     1      44.548   5.510   9.354  0.00  0.00    +0.000 HD
ATOM     13  H   UNL     1      43.588   4.322   8.476  0.00  0.00    +0.000 HD
ENDBRANCH   6   9
ENDBRANCH   2   3
BRANCH   1  15
ATOM     14  C   UNL     1      48.923   6.528  17.057  0.00  0.00    +0.000 C 
ATOM     15  C   UNL     1      48.353   5.090  17.119  0.00  0.00    +0.000 C 
ATOM     16  C   UNL     1      47.360   5.061  18.305  0.00  0.00    +0.000 C 
BRANCH  15  17
ATOM     17  C   UNL     1      49.519   4.090  17.282  0.00  0.00    +0.000 A 
ATOM     18  C   UNL     1      50.817   4.485  17.655  0.00  0.00    +0.000 A 
ATOM     19  C   UNL     1      51.851   3.553  17.788  0.00  0.00    +0.000 A 
ATOM     20  C   UNL     1      51.612   2.203  17.556  0.00  0.00    +0.000 A 
ATOM     21  C   UNL     1      50.336   1.784  17.195  0.00  0.00    +0.000 A 
ATOM     22  C   UNL     1      49.302   2.715  17.061  0.00  0.00    +0.000 A 
ENDBRANCH  15  17
ENDBRANCH   1  15
TORSDOF 4
ENDMDL
MODEL 5
REMARK VINA RESULT:    -6.091      2.133      3.418
REMARK INTER + INTRA:          -8.205
REMARK INTER:                  -7.467
REMARK INTRA:                  -0.738
REMARK UNBOUND:                -0.690
REMARK  Name = 
REMARK  6 active torsions:
REMARK  status: ('A' for Active; 'I' for Inactive)
REMARK    1  A    between atoms: C_1  and  C_2
REMARK    2  A    between atoms: C_2  and  C_3
REMARK    3  A    between atoms: C_2  and  C_4
REMARK    4  A    between atoms: C_2  and  C_15
REMARK    5  A    between atoms: C_5  and  C_6
REMARK    6  A    between atoms: C_9  and  C_10
REMARK                            x       y       z     vdW  Elec       q    Type
REMARK                         _______ _______ _______ _____ _____    ______ ____
ROOT
ATOM      1  C   UNL     1      46.457   5.969  13.306  0.00  0.00    +0.000 C 
ATOM      2  C   UNL     1      47.638   6.037  13.946  0.00  0.00    +0.000 C 
ENDROOT
BRANCH   2   3
ATOM      3  C   UNL     1      47.884   5.522  15.297  0.00  0.00    +0.000 A 
ATOM      4  C   UNL     1      47.235   4.397  15.808  0.00  0.00    +0.000 A 
ATOM      5  C   UNL     1      47.511   3.968  17.105  0.00  0.00    +0.000 A 
ATOM      6  C   UNL     1      48.422   4.695  17.858  0.00  0.00    +0.000 A 
ATOM      7  N   UNL     1      49.055   5.816  17.413  0.00  0.00    +0.000 NA
ATOM      8  C   UNL     1      48.762   6.198  16.147  0.00  0.00    +0.000 A 
BRANCH   6   9
ATOM      9  C   UNL     1      48.752   4.246  19.246  0.00  0.00    +0.000 C 
ATOM     10  N   UNL     1      48.358   2.972  19.558  0.00  0.00    +0.000 N 
ATOM     11  O   UNL     1      49.328   4.958  20.055  0.00  0.00    +0.000 OA
ATOM     12  H   UNL     1      47.877   2.414  18.861  0.00  0.00    +0.000 HD
ATOM     13  H   UNL     1      48.540   2.605  20.482  0.00  0.00    +0.000 HD
ENDBRANCH   6   9
ENDBRANCH   2   3
BRANCH   1  15
ATOM     14  C   UNL     1      45.166   7.669  11.889  0.00  0.00    +0.000 C 
ATOM     15  C   UNL     1      46.150   6.473  11.890  0.00  0.00    +0.000 C 
ATOM     16  C   UNL     1      47.486   7.001  11.317  0.00  0.00    +0.000 C 
BRANCH  15  17
ATOM     17  C   UNL     1      45.547   5.321  11.056  0.00  0.00    +0.000 A 
ATOM     18  C   UNL     1      44.853   4.243  11.634  0.00  0.00    +0.000 A 
ATOM     19  C   UNL     1      44.325   3.213  10.848  0.00  0.00    +0.000 A 
ATOM     20  C   UNL     1      44.474   3.240   9.466  0.00  0.00    +0.000 A 
ATOM     21  C   UNL     1      45.149   4.298   8.868  0.00  0.00    +0.000 A 
ATOM     22  C   UNL     1      45.678   5.327   9.653  0.00  0.00    +0.000 A 
ENDBRANCH  15  17
ENDBRANCH   1  15
TORSDOF 4
ENDMDL
MODEL 6
REMARK VINA RESULT:    -5.798      4.339      7.260
REMARK INTER + INTRA:          -7.843
REMARK INTER:                  -7.172
REMARK INTRA:                  -0.672
REMARK UNBOUND:                -0.690
REMARK  Name = 
REMARK  6 active torsions:
REMARK  status: ('A' for Active; 'I' for Inactive)
REMARK    1  A    between atoms: C_1  and  C_2
REMARK    2  A    between atoms: C_2  and  C_3
REMARK    3  A    between atoms: C_2  and  C_4
REMARK    4  A    between atoms: C_2  and  C_15
REMARK    5  A    between atoms: C_5  and  C_6
REMARK    6  A    between atoms: C_9  and  C_10
REMARK                            x       y       z     vdW  Elec       q    Type
REMARK                         _______ _______ _______ _____ _____    ______ ____
ROOT
ATOM      1  C   UNL     1      48.222   7.825  11.726  0.00  0.00    +0.000 C 
ATOM      2  C   UNL     1      47.249   7.316  12.503  0.00  0.00    +0.000 C 
ENDROOT
BRANCH   2   3
ATOM      3  C   UNL     1      46.437   6.144  12.161  0.00  0.00    +0.000 A 
ATOM      4  C   UNL     1      46.408   4.989  12.944  0.00  0.00    +0.000 A 
ATOM      5  C   UNL     1      45.619   3.908  12.554  0.00  0.00    +0.000 A 
ATOM      6  C   UNL     1      44.894   4.014  11.376  0.00  0.00    +0.000 A 
ATOM      7  N   UNL     1      44.918   5.108  10.564  0.00  0.00    +0.000 NA
ATOM      8  C   UNL     1      45.692   6.137  10.980  0.00  0.00    +0.000 A 
BRANCH   6   9
ATOM      9  C   UNL     1      44.025   2.877  10.942  0.00  0.00    +0.000 C 
ATOM     10  N   UNL     1      44.499   2.149   9.884  0.00  0.00    +0.000 N 
ATOM     11  O   UNL     1      42.964   2.608  11.485  0.00  0.00    +0.000 OA
ATOM     12  H   UNL     1      45.381   2.407   9.456  0.00  0.00    +0.000 HD
ATOM     13  H   UNL     1      43.959   1.370   9.532  0.00  0.00    +0.000 HD
ENDBRANCH   6   9
ENDBRANCH   2   3
BRANCH   1  15
ATOM     14  C   UNL     1      48.448  10.376  11.646  0.00  0.00    +0.000 C 
ATOM     15  C   UNL     1      49.112   9.034  12.042  0.00  0.00    +0.000 C 
ATOM     16  C   UNL     1      49.277   9.062  13.580  0.00  0.00    +0.000 C 
BRANCH  15  17
ATOM     17  C   UNL     1      50.454   8.892  11.292  0.00  0.00    +0.000 A 
ATOM     18  C   UNL     1      51.252   9.996  10.938  0.00  0.00    +0.000 A 
ATOM     19  C   UNL     1      52.460   9.831  10.254  0.00  0.00    +0.000 A 
ATOM     20  C   UNL     1      52.902   8.559   9.910  0.00  0.00    +0.000 A 
ATOM     21  C   UNL     1      52.138   7.450  10.255  0.00  0.00    +0.000 A 
ATOM     22  C   UNL     1      50.930   7.613  10.938  0.00  0.00    +0.000 A 
ENDBRANCH  15  17
ENDBRANCH   1  15
TORSDOF 4
ENDMDL
MODEL 7
REMARK VINA RESULT:    -5.690      3.413      8.309
REMARK INTER + INTRA:          -7.710
REMARK INTER:                  -6.977
REMARK INTRA:                  -0.733
REMARK UNBOUND:                -0.690
REMARK  Name = 
REMARK  6 active torsions:
REMARK  status: ('A' for Active; 'I' for Inactive)
REMARK    1  A    between atoms: C_1  and  C_2
REMARK    2  A    between atoms: C_2  and  C_3
REMARK    3  A    between atoms: C_2  and  C_4
REMARK    4  A    between atoms: C_2  and  C_15
REMARK    5  A    between atoms: C_5  and  C_6
REMARK    6  A    between atoms: C_9  and  C_10
REMARK                            x       y       z     vdW  Elec       q    Type
REMARK                         _______ _______ _______ _____ _____    ______ ____
ROOT
ATOM      1  C   UNL     1      48.295   6.008  15.191  0.00  0.00    +0.000 C 
ATOM      2  C   UNL     1      47.959   6.525  13.995  0.00  0.00    +0.000 C 
ENDROOT
BRANCH   2   3
ATOM      3  C   UNL     1      46.931   5.972  13.108  0.00  0.00    +0.000 A 
ATOM      4  C   UNL     1      46.682   6.476  11.830  0.00  0.00    +0.000 A 
ATOM      5  C   UNL     1      45.684   5.906  11.043  0.00  0.00    +0.000 A 
ATOM      6  C   UNL     1      44.950   4.854  11.572  0.00  0.00    +0.000 A 
ATOM      7  N   UNL     1      45.135   4.350  12.824  0.00  0.00    +0.000 NA
ATOM      8  C   UNL     1      46.117   4.929  13.555  0.00  0.00    +0.000 A 
BRANCH   6   9
ATOM      9  C   UNL     1      43.884   4.211  10.742  0.00  0.00    +0.000 C 
ATOM     10  N   UNL     1      43.874   4.573   9.421  0.00  0.00    +0.000 N 
ATOM     11  O   UNL     1      43.073   3.420  11.200  0.00  0.00    +0.000 OA
ATOM     12  H   UNL     1      44.560   5.237   9.080  0.00  0.00    +0.000 HD
ATOM     13  H   UNL     1      43.175   4.184   8.803  0.00  0.00    +0.000 HD
ENDBRANCH   6   9
ENDBRANCH   2   3
BRANCH   1  15
ATOM     14  C   UNL     1      50.053   5.433  16.964  0.00  0.00    +0.000 C 
ATOM     15  C   UNL     1      49.346   6.555  16.164  0.00  0.00    +0.000 C 
ATOM     16  C   UNL     1      50.434   7.230  15.296  0.00  0.00    +0.000 C 
BRANCH  15  17
ATOM     17  C   UNL     1      48.670   7.531  17.152  0.00  0.00    +0.000 A 
ATOM     18  C   UNL     1      48.519   8.905  16.886  0.00  0.00    +0.000 A 
ATOM     19  C   UNL     1      47.907   9.761  17.807  0.00  0.00    +0.000 A 
ATOM     20  C   UNL     1      47.426   9.264  19.013  0.00  0.00    +0.000 A 
ATOM     21  C   UNL     1      47.554   7.910  19.298  0.00  0.00    +0.000 A 
ATOM     22  C   UNL     1      48.167   7.053  18.379  0.00  0.00    +0.000 A 
ENDBRANCH  15  17
ENDBRANCH   1  15
TORSDOF 4
ENDMDL
MODEL 8
REMARK VINA RESULT:    -5.668      3.386      7.896
REMARK INTER + INTRA:          -7.683
REMARK INTER:                  -7.017
REMARK INTRA:                  -0.666
REMARK UNBOUND:                -0.690
REMARK  Name = 
REMARK  6 active torsions:
REMARK  status: ('A' for Active; 'I' for Inactive)
REMARK    1  A    between atoms: C_1  and  C_2
REMARK    2  A    between atoms: C_2  and  C_3
REMARK    3  A    between atoms: C_2  and  C_4
REMARK    4  A    between atoms: C_2  and  C_15
REMARK    5  A    between atoms: C_5  and  C_6
REMARK    6  A    between atoms: C_9  and  C_10
REMARK                            x       y       z     vdW  Elec       q    Type
REMARK                         _______ _______ _______ _____ _____    ______ ____
ROOT
ATOM      1  C   UNL     1      48.277   6.310  14.993  0.00  0.00    +0.000 C 
ATOM      2  C   UNL     1      48.109   6.587  13.687  0.00  0.00    +0.000 C 
ENDROOT
BRANCH   2   3
ATOM      3  C   UNL     1      47.053   6.016  12.845  0.00  0.00    +0.000 A 
ATOM      4  C   UNL     1      46.783   6.476  11.554  0.00  0.00    +0.000 A 
ATOM      5  C   UNL     1      45.758   5.892  10.812  0.00  0.00    +0.000 A 
ATOM      6  C   UNL     1      45.021   4.872  11.397  0.00  0.00    +0.000 A 
ATOM      7  N   UNL     1      45.227   4.414  12.663  0.00  0.00    +0.000 NA
ATOM      8  C   UNL     1      46.234   5.004  13.349  0.00  0.00    +0.000 A 
BRANCH   6   9
ATOM      9  C   UNL     1      43.927   4.216  10.616  0.00  0.00    +0.000 C 
ATOM     10  N   UNL     1      43.858   4.569   9.295  0.00  0.00    +0.000 N 
ATOM     11  O   UNL     1      43.143   3.420  11.111  0.00  0.00    +0.000 OA
ATOM     12  H   UNL     1      44.524   5.237   8.922  0.00  0.00    +0.000 HD
ATOM     13  H   UNL     1      43.137   4.171   8.709  0.00  0.00    +0.000 HD
ENDBRANCH   6   9
ENDBRANCH   2   3
BRANCH   1  15
ATOM     14  C   UNL     1      50.424   7.698  15.155  0.00  0.00    +0.000 C 
ATOM     15  C   UNL     1      49.350   6.890  15.923  0.00  0.00    +0.000 C 
ATOM     16  C   UNL     1      48.625   7.893  16.852  0.00  0.00    +0.000 C 
BRANCH  15  17
ATOM     17  C   UNL     1      50.036   5.740  16.693  0.00  0.00    +0.000 A 
ATOM     18  C   UNL     1      49.335   4.619  17.175  0.00  0.00    +0.000 A 
ATOM     19  C   UNL     1      49.988   3.599  17.874  0.00  0.00    +0.000 A 
ATOM     20  C   UNL     1      51.357   3.672  18.104  0.00  0.00    +0.000 A 
ATOM     21  C   UNL     1      52.075   4.765  17.632  0.00  0.00    +0.000 A 
ATOM     22  C   UNL     1      51.424   5.786  16.934  0.00  0.00    +0.000 A 
ENDBRANCH  15  17
ENDBRANCH   1  15
TORSDOF 4
ENDMDL
MODEL 9
REMARK VINA RESULT:    -5.530      3.412      7.832
REMARK INTER + INTRA:          -7.513
REMARK INTER:                  -6.821
REMARK INTRA:                  -0.693
REMARK UNBOUND:                -0.690
REMARK  Name = 
REMARK  6 active torsions:
REMARK  status: ('A' for Active; 'I' for Inactive)
REMARK    1  A    between atoms: C_1  and  C_2
REMARK    2  A    between atoms: C_2  and  C_3
REMARK    3  A    between atoms: C_2  and  C_4
REMARK    4  A    between atoms: C_2  and  C_15
REMARK    5  A    between atoms: C_5  and  C_6
REMARK    6  A    between atoms: C_9  and  C_10
REMARK                            x       y       z     vdW  Elec       q    Type
REMARK                         _______ _______ _______ _____ _____    ______ ____
ROOT
ATOM      1  C   UNL     1      48.501   6.900  13.688  0.00  0.00    +0.000 C 
ATOM      2  C   UNL     1      47.178   7.005  13.467  0.00  0.00    +0.000 C 
ENDROOT
BRANCH   2   3
ATOM      3  C   UNL     1      46.372   6.009  12.754  0.00  0.00    +0.000 A 
ATOM      4  C   UNL     1      45.965   6.172  11.428  0.00  0.00    +0.000 A 
ATOM      5  C   UNL     1      45.192   5.188  10.815  0.00  0.00    +0.000 A 
ATOM      6  C   UNL     1      44.836   4.072  11.559  0.00  0.00    +0.000 A 
ATOM      7  N   UNL     1      45.183   3.885  12.864  0.00  0.00    +0.000 NA
ATOM      8  C   UNL     1      45.936   4.862  13.421  0.00  0.00    +0.000 A 
BRANCH   6   9
ATOM      9  C   UNL     1      44.023   2.991  10.920  0.00  0.00    +0.000 C 
ATOM     10  N   UNL     1      43.347   2.177  11.789  0.00  0.00    +0.000 N 
ATOM     11  O   UNL     1      43.962   2.834   9.710  0.00  0.00    +0.000 OA
ATOM     12  H   UNL     1      43.428   2.336  12.788  0.00  0.00    +0.000 HD
ATOM     13  H   UNL     1      42.784   1.420  11.427  0.00  0.00    +0.000 HD
ENDBRANCH   6   9
ENDBRANCH   2   3
BRANCH   1  15
ATOM     14  C   UNL     1      50.303   8.710  13.493  0.00  0.00    +0.000 C 
ATOM     15  C   UNL     1      49.387   7.900  14.442  0.00  0.00    +0.000 C 
ATOM     16  C   UNL     1      48.428   8.918  15.104  0.00  0.00    +0.000 C 
BRANCH  15  17
ATOM     17  C   UNL     1      50.261   7.140  15.463  0.00  0.00    +0.000 A 
ATOM     18  C   UNL     1      51.655   7.310  15.550  0.00  0.00    +0.000 A 
ATOM     19  C   UNL     1      52.418   6.601  16.484  0.00  0.00    +0.000 A 
ATOM     20  C   UNL     1      51.805   5.709  17.357  0.00  0.00    +0.000 A 
ATOM     21  C   UNL     1      50.427   5.529  17.299  0.00  0.00    +0.000 A 
ATOM     22  C   UNL     1      49.665   6.236  16.365  0.00  0.00    +0.000 A 
ENDBRANCH  15  17
ENDBRANCH   1  15
TORSDOF 4
ENDMDL
