MODEL 1
REMARK VINA RESULT:    -8.067      0.000      0.000
REMARK INTER + INTRA:         -10.001
REMARK INTER:                  -9.482
REMARK INTRA:                  -0.519
REMARK UNBOUND:                -0.519
REMARK  Name = 
REMARK  3 active torsions:
REMARK  status: ('A' for Active; 'I' for Inactive)
REMARK    1  A    between atoms: C_2  and  C_4
REMARK    2  A    between atoms: C_8  and  C_9
REMARK    3  A    between atoms: C_9  and  N_10
REMARK                            x       y       z     vdW  Elec       q    Type
REMARK                         _______ _______ _______ _____ _____    ______ ____
ROOT
ATOM      1  C   UNL     1      46.370   2.100   7.825  0.00  0.00    +0.000 A 
ATOM      2  C   UNL     1      46.527   3.415   7.369  0.00  0.00    +0.000 A 
ATOM      3  C   UNL     1      45.773   4.440   7.945  0.00  0.00    +0.000 A 
ATOM      4  C   UNL     1      44.873   4.172   8.981  0.00  0.00    +0.000 A 
ATOM      5  C   UNL     1      44.724   2.864   9.469  0.00  0.00    +0.000 A 
ATOM      6  C   UNL     1      45.474   1.843   8.871  0.00  0.00    +0.000 A 
ENDROOT
BRANCH   1   8
ATOM      7  N   UNL     1      46.760  -0.325   7.639  0.00  0.00    +0.000 N 
ATOM      8  C   UNL     1      47.122   0.941   7.277  0.00  0.00    +0.000 C 
ATOM      9  O   UNL     1      48.063   1.104   6.502  0.00  0.00    +0.000 OA
ATOM     10  H   UNL     1      47.318  -1.080   7.261  0.00  0.00    +0.000 HD
ATOM     11  H   UNL     1      46.036  -0.557   8.318  0.00  0.00    +0.000 HD
ENDBRANCH   1   8
BRANCH   5  12
ATOM     12  C   UNL     1      43.836   2.558  10.649  0.00  0.00    +0.000 C 
BRANCH  12  13
ATOM     13  N   UNL     1      43.810   3.616  11.655  0.00  0.00    +0.000 N 
ATOM     14  C   UNL     1      42.894   4.644  11.651  0.00  0.00    +0.000 A 
ATOM     15  C   UNL     1      43.211   5.487  12.691  0.00  0.00    +0.000 A 
ATOM     16  C   UNL     1      44.570   5.225  12.989  0.00  0.00    +0.000 A 
ATOM     17  C   UNL     1      45.596   5.968  13.600  0.00  0.00    +0.000 A 
ATOM     18  C   UNL     1      46.846   5.373  13.787  0.00  0.00    +0.000 A 
ATOM     19  C   UNL     1      47.035   4.028  13.489  0.00  0.00    +0.000 A 
ATOM     20  C   UNL     1      46.038   3.281  12.853  0.00  0.00    +0.000 A 
ATOM     21  C   UNL     1      44.849   3.943  12.511  0.00  0.00    +0.000 A 
ENDBRANCH  12  13
ENDBRANCH   5  12
TORSDOF 3
ENDMDL
MODEL 2
REMARK VINA RESULT:    -7.948      2.598      5.775
REMARK INTER + INTRA:          -9.861
REMARK INTER:                  -9.264
REMARK INTRA:                  -0.597
REMARK UNBOUND:                -0.519
REMARK  Name = 
REMARK  3 active torsions:
REMARK  status: ('A' for Active; 'I' for Inactive)
REMARK    1  A    between atoms: C_2  and  C_4
REMARK    2  A    between atoms: C_8  and  C_9
REMARK    3  A    between atoms: C_9  and  N_10
REMARK                            x       y       z     vdW  Elec       q    Type
REMARK                         _______ _______ _______ _____ _____    ______ ____
ROOT
ATOM      1  C   UNL     1      46.964   5.010  13.560  0.00  0.00    +0.000 A 
ATOM      2  C   UNL     1      47.812   6.095  13.309  0.00  0.00    +0.000 A 
ATOM      3  C   UNL     1      47.594   6.898  12.188  0.00  0.00    +0.000 A 
ATOM      4  C   UNL     1      46.529   6.640  11.319  0.00  0.00    +0.000 A 
ATOM      5  C   UNL     1      45.652   5.574  11.570  0.00  0.00    +0.000 A 
ATOM      6  C   UNL     1      45.892   4.766  12.689  0.00  0.00    +0.000 A 
ENDROOT
BRANCH   1   8
ATOM      7  N   UNL     1      46.770   4.534  15.969  0.00  0.00    +0.000 N 
ATOM      8  C   UNL     1      47.113   4.096  14.722  0.00  0.00    +0.000 C 
ATOM      9  O   UNL     1      47.536   2.950  14.578  0.00  0.00    +0.000 OA
ATOM     10  H   UNL     1      46.915   3.884  16.732  0.00  0.00    +0.000 HD
ATOM     11  H   UNL     1      46.467   5.480  16.196  0.00  0.00    +0.000 HD
ENDBRANCH   1   8
BRANCH   5  12
ATOM     12  C   UNL     1      44.439   5.329  10.709  0.00  0.00    +0.000 C 
BRANCH  12  13
ATOM     13  N   UNL     1      44.450   4.035  10.031  0.00  0.00    +0.000 N 
ATOM     14  C   UNL     1      43.972   2.877  10.601  0.00  0.00    +0.000 A 
ATOM     15  C   UNL     1      44.207   1.850   9.716  0.00  0.00    +0.000 A 
ATOM     16  C   UNL     1      45.241   2.314   8.867  0.00  0.00    +0.000 A 
ATOM     17  C   UNL     1      46.209   1.677   8.070  0.00  0.00    +0.000 A 
ATOM     18  C   UNL     1      47.070   2.457   7.294  0.00  0.00    +0.000 A 
ATOM     19  C   UNL     1      46.889   3.833   7.213  0.00  0.00    +0.000 A 
ATOM     20  C   UNL     1      45.953   4.489   8.020  0.00  0.00    +0.000 A 
ATOM     21  C   UNL     1      45.217   3.710   8.925  0.00  0.00    +0.000 A 
ENDBRANCH  12  13
ENDBRANCH   5  12
TORSDOF 3
ENDMDL
MODEL 3
REMARK VINA RESULT:    -7.529      2.427      6.071
REMARK INTER + INTRA:          -9.368
REMARK INTER:                  -9.022
REMARK INTRA:                  -0.346
REMARK UNBOUND:                -0.519
REMARK  Name = 
REMARK  3 active torsions:
REMARK  status: ('A' for Active; 'I' for Inactive)
REMARK    1  A    between atoms: C_2  and  C_4
REMARK    2  A    between atoms: C_8  and  C_9
REMARK    3  A    between atoms: C_9  and  N_10
REMARK                            x       y       z     vdW  Elec       q    Type
REMARK                         _______ _______ _______ _____ _____    ______ ____
ROOT
ATOM      1  C   UNL     1      45.252   4.758  12.936  0.00  0.00    +0.000 A 
ATOM      2  C   UNL     1      43.945   4.953  13.398  0.00  0.00    +0.000 A 
ATOM      3  C   UNL     1      42.908   5.138  12.481  0.00  0.00    +0.000 A 
ATOM      4  C   UNL     1      43.157   5.117  11.105  0.00  0.00    +0.000 A 
ATOM      5  C   UNL     1      44.457   4.896  10.624  0.00  0.00    +0.000 A 
ATOM      6  C   UNL     1      45.490   4.728  11.555  0.00  0.00    +0.000 A 
ENDROOT
BRANCH   1   8
ATOM      7  N   UNL     1      47.004   5.636  14.429  0.00  0.00    +0.000 N 
ATOM      8  C   UNL     1      46.422   4.556  13.829  0.00  0.00    +0.000 C 
ATOM      9  O   UNL     1      46.873   3.430  14.039  0.00  0.00    +0.000 OA
ATOM     10  H   UNL     1      47.814   5.450  15.007  0.00  0.00    +0.000 HD
ATOM     11  H   UNL     1      46.740   6.607  14.271  0.00  0.00    +0.000 HD
ENDBRANCH   1   8
BRANCH   5  12
ATOM     12  C   UNL     1      44.742   4.770   9.149  0.00  0.00    +0.000 C 
BRANCH  12  13
ATOM     13  N   UNL     1      44.984   3.398   8.711  0.00  0.00    +0.000 N 
ATOM     14  C   UNL     1      44.598   2.292   9.435  0.00  0.00    +0.000 A 
ATOM     15  C   UNL     1      45.050   1.179   8.765  0.00  0.00    +0.000 A 
ATOM     16  C   UNL     1      46.099   1.638   7.933  0.00  0.00    +0.000 A 
ATOM     17  C   UNL     1      47.216   1.022   7.340  0.00  0.00    +0.000 A 
ATOM     18  C   UNL     1      48.048   1.779   6.511  0.00  0.00    +0.000 A 
ATOM     19  C   UNL     1      47.706   3.085   6.176  0.00  0.00    +0.000 A 
ATOM     20  C   UNL     1      46.617   3.725   6.778  0.00  0.00    +0.000 A 
ATOM     21  C   UNL     1      45.896   3.008   7.744  0.00  0.00    +0.000 A 
ENDBRANCH  12  13
ENDBRANCH   5  12
TORSDOF 3
ENDMDL
MODEL 4
REMARK VINA RESULT:    -7.149      1.854      2.297
REMARK INTER + INTRA:          -8.922
REMARK INTER:                  -8.304
REMARK INTRA:                  -0.618
REMARK UNBOUND:                -0.519
REMARK  Name = 
REMARK  3 active torsions:
REMARK  status: ('A' for Active; 'I' for Inactive)
REMARK    1  A    between atoms: C_2  and  C_4
REMARK    2  A    between atoms: C_8  and  C_9
REMARK    3  A    between atoms: C_9  and  N_10
REMARK                            x       y       z     vdW  Elec       q    Type
REMARK                         _______ _______ _______ _____ _____    ______ ____
ROOT
ATOM      1  C   UNL     1      46.547   2.447   7.222  0.00  0.00    +0.000 A 
ATOM      2  C   UNL     1      46.315   1.193   7.799  0.00  0.00    +0.000 A 
ATOM      3  C   UNL     1      45.373   1.065   8.822  0.00  0.00    +0.000 A 
ATOM      4  C   UNL     1      44.648   2.174   9.269  0.00  0.00    +0.000 A 
ATOM      5  C   UNL     1      44.847   3.434   8.683  0.00  0.00    +0.000 A 
ATOM      6  C   UNL     1      45.807   3.551   7.669  0.00  0.00    +0.000 A 
ENDROOT
BRANCH   1   8
ATOM      7  N   UNL     1      48.863   2.568   6.392  0.00  0.00    +0.000 N 
ATOM      8  C   UNL     1      47.528   2.687   6.132  0.00  0.00    +0.000 C 
ATOM      9  O   UNL     1      47.157   2.989   4.999  0.00  0.00    +0.000 OA
ATOM     10  H   UNL     1      49.493   2.767   5.625  0.00  0.00    +0.000 HD
ATOM     11  H   UNL     1      49.268   2.381   7.309  0.00  0.00    +0.000 HD
ENDBRANCH   1   8
BRANCH   5  12
ATOM     12  C   UNL     1      44.013   4.628   9.074  0.00  0.00    +0.000 C 
BRANCH  12  13
ATOM     13  N   UNL     1      44.037   4.919  10.504  0.00  0.00    +0.000 N 
ATOM     14  C   UNL     1      42.922   4.859  11.310  0.00  0.00    +0.000 A 
ATOM     15  C   UNL     1      43.297   5.265  12.570  0.00  0.00    +0.000 A 
ATOM     16  C   UNL     1      44.483   6.016  12.387  0.00  0.00    +0.000 A 
ATOM     17  C   UNL     1      45.127   7.020  13.132  0.00  0.00    +0.000 A 
ATOM     18  C   UNL     1      46.347   7.527  12.676  0.00  0.00    +0.000 A 
ATOM     19  C   UNL     1      46.976   6.958  11.574  0.00  0.00    +0.000 A 
ATOM     20  C   UNL     1      46.339   5.979  10.803  0.00  0.00    +0.000 A 
ATOM     21  C   UNL     1      45.038   5.608  11.171  0.00  0.00    +0.000 A 
ENDBRANCH  12  13
ENDBRANCH   5  12
TORSDOF 3
ENDMDL
MODEL 5
REMARK VINA RESULT:    -6.902      2.762      5.929
REMARK INTER + INTRA:          -8.631
REMARK INTER:                  -8.143
REMARK INTRA:                  -0.488
REMARK UNBOUND:                -0.519
REMARK  Name = 
REMARK  3 active torsions:
REMARK  status: ('A' for Active; 'I' for Inactive)
REMARK    1  A    between atoms: C_2  and  C_4
REMARK    2  A    between atoms: C_8  and  C_9
REMARK    3  A    between atoms: C_9  and  N_10
REMARK                            x       y       z     vdW  Elec       q    Type
REMARK                         _______ _______ _______ _____ _____    ______ ____
ROOT
ATOM      1  C   UNL     1      47.353   6.232  12.669  0.00  0.00    +0.000 A 
ATOM      2  C   UNL     1      47.192   5.456  13.823  0.00  0.00    +0.000 A 
ATOM      3  C   UNL     1      46.076   4.626  13.948  0.00  0.00    +0.000 A 
ATOM      4  C   UNL     1      45.122   4.549  12.927  0.00  0.00    +0.000 A 
ATOM      5  C   UNL     1      45.282   5.300  11.752  0.00  0.00    +0.000 A 
ATOM      6  C   UNL     1      46.397   6.141  11.647  0.00  0.00    +0.000 A 
ENDROOT
BRANCH   1   8
ATOM      7  N   UNL     1      48.269   8.424  12.018  0.00  0.00    +0.000 N 
ATOM      8  C   UNL     1      48.501   7.147  12.442  0.00  0.00    +0.000 C 
ATOM      9  O   UNL     1      49.658   6.773  12.632  0.00  0.00    +0.000 OA
ATOM     10  H   UNL     1      49.084   9.001  11.852  0.00  0.00    +0.000 HD
ATOM     11  H   UNL     1      47.354   8.805  11.778  0.00  0.00    +0.000 HD
ENDBRANCH   1   8
BRANCH   5  12
ATOM     12  C   UNL     1      44.325   5.166  10.594  0.00  0.00    +0.000 C 
BRANCH  12  13
ATOM     13  N   UNL     1      44.420   3.886   9.898  0.00  0.00    +0.000 N 
ATOM     14  C   UNL     1      43.983   2.696  10.435  0.00  0.00    +0.000 A 
ATOM     15  C   UNL     1      44.296   1.697   9.542  0.00  0.00    +0.000 A 
ATOM     16  C   UNL     1      45.330   2.225   8.732  0.00  0.00    +0.000 A 
ATOM     17  C   UNL     1      46.352   1.649   7.956  0.00  0.00    +0.000 A 
ATOM     18  C   UNL     1      47.196   2.483   7.219  0.00  0.00    +0.000 A 
ATOM     19  C   UNL     1      46.951   3.850   7.153  0.00  0.00    +0.000 A 
ATOM     20  C   UNL     1      45.959   4.446   7.941  0.00  0.00    +0.000 A 
ATOM     21  C   UNL     1      45.236   3.617   8.811  0.00  0.00    +0.000 A 
ENDBRANCH  12  13
ENDBRANCH   5  12
TORSDOF 3
ENDMDL
MODEL 6
REMARK VINA RESULT:    -6.728      1.894      2.778
REMARK INTER + INTRA:          -8.427
REMARK INTER:                  -7.805
REMARK INTRA:                  -0.622
REMARK UNBOUND:                -0.519
REMARK  Name = 
REMARK  3 active torsions:
REMARK  status: ('A' for Active; 'I' for Inactive)
REMARK    1  A    between atoms: C_2  and  C_4
REMARK    2  A    between atoms: C_8  and  C_9
REMARK    3  A    between atoms: C_9  and  N_10
REMARK                            x       y       z     vdW  Elec       q    Type
REMARK                         _______ _______ _______ _____ _____    ______ ____
ROOT
ATOM      1  C   UNL     1      45.302   3.501   8.699  0.00  0.00    +0.000 A 
ATOM      2  C   UNL     1      44.961   2.214   9.132  0.00  0.00    +0.000 A 
ATOM      3  C   UNL     1      44.116   2.056  10.232  0.00  0.00    +0.000 A 
ATOM      4  C   UNL     1      43.593   3.169  10.900  0.00  0.00    +0.000 A 
ATOM      5  C   UNL     1      43.903   4.466  10.463  0.00  0.00    +0.000 A 
ATOM      6  C   UNL     1      44.765   4.610   9.368  0.00  0.00    +0.000 A 
ENDROOT
BRANCH   1   8
ATOM      7  N   UNL     1      46.240   2.888   6.506  0.00  0.00    +0.000 N 
ATOM      8  C   UNL     1      46.194   3.775   7.543  0.00  0.00    +0.000 C 
ATOM      9  O   UNL     1      46.890   4.789   7.504  0.00  0.00    +0.000 OA
ATOM     10  H   UNL     1      46.882   3.105   5.754  0.00  0.00    +0.000 HD
ATOM     11  H   UNL     1      45.748   1.996   6.474  0.00  0.00    +0.000 HD
ENDBRANCH   1   8
BRANCH   5  12
ATOM     12  C   UNL     1      43.279   5.683  11.098  0.00  0.00    +0.000 C 
BRANCH  12  13
ATOM     13  N   UNL     1      44.239   6.549  11.778  0.00  0.00    +0.000 N 
ATOM     14  C   UNL     1      44.584   7.802  11.325  0.00  0.00    +0.000 A 
ATOM     15  C   UNL     1      45.559   8.293  12.162  0.00  0.00    +0.000 A 
ATOM     16  C   UNL     1      46.122   7.157  12.794  0.00  0.00    +0.000 A 
ATOM     17  C   UNL     1      47.363   6.892  13.400  0.00  0.00    +0.000 A 
ATOM     18  C   UNL     1      47.578   5.643  13.988  0.00  0.00    +0.000 A 
ATOM     19  C   UNL     1      46.539   4.724  14.085  0.00  0.00    +0.000 A 
ATOM     20  C   UNL     1      45.308   4.956  13.462  0.00  0.00    +0.000 A 
ATOM     21  C   UNL     1      45.167   6.140  12.723  0.00  0.00    +0.000 A 
ENDBRANCH  12  13
ENDBRANCH   5  12
TORSDOF 3
ENDMDL
MODEL 7
REMARK VINA RESULT:    -6.361      3.506      6.318
REMARK INTER + INTRA:          -7.995
REMARK INTER:                  -7.601
REMARK INTRA:                  -0.394
REMARK UNBOUND:                -0.519
REMARK  Name = 
REMARK  3 active torsions:
REMARK  status: ('A' for Active; 'I' for Inactive)
REMARK    1  A    between atoms: C_2  and  C_4
REMARK    2  A    between atoms: C_8  and  C_9
REMARK    3  A    between atoms: C_9  and  N_10
REMARK                            x       y       z     vdW  Elec       q    Type
REMARK                         _______ _______ _______ _____ _____    ______ ____
ROOT
ATOM      1  C   UNL     1      45.866   8.510  11.945  0.00  0.00    +0.000 A 
ATOM      2  C   UNL     1      47.010   7.750  12.217  0.00  0.00    +0.000 A 
ATOM      3  C   UNL     1      46.943   6.356  12.163  0.00  0.00    +0.000 A 
ATOM      4  C   UNL     1      45.749   5.709  11.827  0.00  0.00    +0.000 A 
ATOM      5  C   UNL     1      44.600   6.456  11.525  0.00  0.00    +0.000 A 
ATOM      6  C   UNL     1      44.677   7.853  11.599  0.00  0.00    +0.000 A 
ENDROOT
BRANCH   1   8
ATOM      7  N   UNL     1      44.654  10.635  12.236  0.00  0.00    +0.000 N 
ATOM      8  C   UNL     1      45.833   9.995  11.979  0.00  0.00    +0.000 C 
ATOM      9  O   UNL     1      46.851  10.657  11.782  0.00  0.00    +0.000 OA
ATOM     10  H   UNL     1      44.677  11.647  12.222  0.00  0.00    +0.000 HD
ATOM     11  H   UNL     1      43.751  10.177  12.353  0.00  0.00    +0.000 HD
ENDBRANCH   1   8
BRANCH   5  12
ATOM     12  C   UNL     1      43.326   5.793  11.064  0.00  0.00    +0.000 C 
BRANCH  12  13
ATOM     13  N   UNL     1      43.478   4.372  10.765  0.00  0.00    +0.000 N 
ATOM     14  C   UNL     1      43.303   3.377  11.700  0.00  0.00    +0.000 A 
ATOM     15  C   UNL     1      43.596   2.179  11.091  0.00  0.00    +0.000 A 
ATOM     16  C   UNL     1      44.399   2.509   9.972  0.00  0.00    +0.000 A 
ATOM     17  C   UNL     1      45.346   1.805   9.208  0.00  0.00    +0.000 A 
ATOM     18  C   UNL     1      45.933   2.433   8.107  0.00  0.00    +0.000 A 
ATOM     19  C   UNL     1      45.495   3.688   7.698  0.00  0.00    +0.000 A 
ATOM     20  C   UNL     1      44.577   4.418   8.462  0.00  0.00    +0.000 A 
ATOM     21  C   UNL     1      44.130   3.845   9.662  0.00  0.00    +0.000 A 
ENDBRANCH  12  13
ENDBRANCH   5  12
TORSDOF 3
ENDMDL
MODEL 8
REMARK VINA RESULT:    -6.335      3.081      4.708
REMARK INTER + INTRA:          -7.964
REMARK INTER:                  -7.430
REMARK INTRA:                  -0.534
REMARK UNBOUND:                -0.519
REMARK  Name = 
REMARK  3 active torsions:
REMARK  status: ('A' for Active; 'I' for Inactive)
REMARK    1  A    between atoms: C_2  and  C_4
REMARK    2  A    between atoms: C_8  and  C_9
REMARK    3  A    between atoms: C_9  and  N_10
REMARK                            x       y       z     vdW  Elec       q    Type
REMARK                         _______ _______ _______ _____ _____    ______ ____
ROOT
ATOM      1  C   UNL     1      44.687   3.922  10.062  0.00  0.00    +0.000 A 
ATOM      2  C   UNL     1      43.812   2.944  10.551  0.00  0.00    +0.000 A 
ATOM      3  C   UNL     1      43.514   2.903  11.915  0.00  0.00    +0.000 A 
ATOM      4  C   UNL     1      44.069   3.836  12.798  0.00  0.00    +0.000 A 
ATOM      5  C   UNL     1      44.926   4.839  12.321  0.00  0.00    +0.000 A 
ATOM      6  C   UNL     1      45.229   4.859  10.953  0.00  0.00    +0.000 A 
ENDROOT
BRANCH   1   8
ATOM      7  N   UNL     1      44.436   3.279   7.698  0.00  0.00    +0.000 N 
ATOM      8  C   UNL     1      45.069   4.048   8.632  0.00  0.00    +0.000 C 
ATOM      9  O   UNL     1      45.944   4.836   8.276  0.00  0.00    +0.000 OA
ATOM     10  H   UNL     1      44.749   3.381   6.740  0.00  0.00    +0.000 HD
ATOM     11  H   UNL     1      43.744   2.559   7.902  0.00  0.00    +0.000 HD
ENDBRANCH   1   8
BRANCH   5  12
ATOM     12  C   UNL     1      45.462   5.917  13.228  0.00  0.00    +0.000 C 
BRANCH  12  13
ATOM     13  N   UNL     1      46.527   6.716  12.628  0.00  0.00    +0.000 N 
ATOM     14  C   UNL     1      47.864   6.414  12.755  0.00  0.00    +0.000 A 
ATOM     15  C   UNL     1      48.577   7.413  12.132  0.00  0.00    +0.000 A 
ATOM     16  C   UNL     1      47.699   8.522  12.073  0.00  0.00    +0.000 A 
ATOM     17  C   UNL     1      47.889   9.912  11.969  0.00  0.00    +0.000 A 
ATOM     18  C   UNL     1      46.770  10.745  11.884  0.00  0.00    +0.000 A 
ATOM     19  C   UNL     1      45.495  10.201  11.775  0.00  0.00    +0.000 A 
ATOM     20  C   UNL     1      45.283   8.824  11.907  0.00  0.00    +0.000 A 
ATOM     21  C   UNL     1      46.400   8.017  12.170  0.00  0.00    +0.000 A 
ENDBRANCH  12  13
ENDBRANCH   5  12
TORSDOF 3
ENDMDL
MODEL 9
REMARK VINA RESULT:    -5.925      3.614      5.667
REMARK INTER + INTRA:          -7.483
REMARK INTER:                  -6.868
REMARK INTRA:                  -0.614
REMARK UNBOUND:                -0.519
REMARK  Name = 
REMARK  3 active torsions:
REMARK  status: ('A' for Active; 'I' for Inactive)
REMARK    1  A    between atoms: C_2  and  C_4
REMARK    2  A    between atoms: C_8  and  C_9
REMARK    3  A    between atoms: C_9  and  N_10
REMARK                            x       y       z     vdW  Elec       q    Type
REMARK                         _______ _______ _______ _____ _____    ______ ____
ROOT
ATOM      1  C   UNL     1      44.692   4.960  12.080  0.00  0.00    +0.000 A 
ATOM      2  C   UNL     1      44.176   6.213  11.729  0.00  0.00    +0.000 A 
ATOM      3  C   UNL     1      44.919   7.365  11.992  0.00  0.00    +0.000 A 
ATOM      4  C   UNL     1      46.182   7.282  12.589  0.00  0.00    +0.000 A 
ATOM      5  C   UNL     1      46.726   6.032  12.923  0.00  0.00    +0.000 A 
ATOM      6  C   UNL     1      45.962   4.886  12.669  0.00  0.00    +0.000 A 
ENDROOT
BRANCH   1   8
ATOM      7  N   UNL     1      44.400   2.548  12.488  0.00  0.00    +0.000 N 
ATOM      8  C   UNL     1      43.979   3.677  11.846  0.00  0.00    +0.000 C 
ATOM      9  O   UNL     1      43.014   3.617  11.085  0.00  0.00    +0.000 OA
ATOM     10  H   UNL     1      43.900   1.694  12.276  0.00  0.00    +0.000 HD
ATOM     11  H   UNL     1      45.221   2.486  13.089  0.00  0.00    +0.000 HD
ENDBRANCH   1   8
BRANCH   5  12
ATOM     12  C   UNL     1      48.122   5.902  13.477  0.00  0.00    +0.000 C 
BRANCH  12  13
ATOM     13  N   UNL     1      48.216   6.181  14.907  0.00  0.00    +0.000 N 
ATOM     14  C   UNL     1      48.890   7.263  15.427  0.00  0.00    +0.000 A 
ATOM     15  C   UNL     1      48.834   7.168  16.798  0.00  0.00    +0.000 A 
ATOM     16  C   UNL     1      48.562   5.806  17.072  0.00  0.00    +0.000 A 
ATOM     17  C   UNL     1      48.785   4.969  18.181  0.00  0.00    +0.000 A 
ATOM     18  C   UNL     1      48.334   3.648  18.135  0.00  0.00    +0.000 A 
ATOM     19  C   UNL     1      47.566   3.204  17.064  0.00  0.00    +0.000 A 
ATOM     20  C   UNL     1      47.359   4.010  15.939  0.00  0.00    +0.000 A 
ATOM     21  C   UNL     1      47.970   5.272  15.924  0.00  0.00    +0.000 A 
ENDBRANCH  12  13
ENDBRANCH   5  12
TORSDOF 3
ENDMDL
