MODEL 1
REMARK VINA RESULT:    -8.100      0.000      0.000
REMARK INTER + INTRA:         -10.671
REMARK INTER:                 -10.468
REMARK INTRA:                  -0.203
REMARK UNBOUND:                -0.203
REMARK  Name = 
REMARK  5 active torsions:
REMARK  status: ('A' for Active; 'I' for Inactive)
REMARK    1  A    between atoms: C_7  and  C_8
REMARK    2  A    between atoms: N_10  and  C_11
REMARK    3  A    between atoms: C_11  and  C_12
REMARK    4  A    between atoms: C_15  and  C_16
REMARK    5  A    between atoms: C_16  and  N_17
REMARK                            x       y       z     vdW  Elec       q    Type
REMARK                         _______ _______ _______ _____ _____    ______ ____
ROOT
ATOM      1  C   UNL     1      46.354   4.526  14.244  0.00  0.00    +0.000 C 
ATOM      2  O   UNL     1      46.370   3.348  13.871  0.00  0.00    +0.000 OA
ATOM      3  N   UNL     1      45.342   5.370  13.840  0.00  0.00    +0.000 N 
ATOM      4  H   UNL     1      45.313   6.336  14.168  0.00  0.00    +0.000 HD
ENDROOT
BRANCH   1  11
ATOM      5  N   UNL     1      49.816   4.594  20.026  0.00  0.00    +0.000 N 
ATOM      6  C   UNL     1      49.187   4.675  18.823  0.00  0.00    +0.000 A 
ATOM      7  N   UNL     1      49.572   5.563  17.953  0.00  0.00    +0.000 NA
ATOM      8  C   UNL     1      48.866   5.539  16.802  0.00  0.00    +0.000 A 
ATOM      9  N   UNL     1      49.114   6.374  15.757  0.00  0.00    +0.000 N 
ATOM     10  C   UNL     1      48.232   6.095  14.748  0.00  0.00    +0.000 A 
ATOM     11  C   UNL     1      47.397   5.048  15.133  0.00  0.00    +0.000 A 
ATOM     12  C   UNL     1      47.819   4.714  16.453  0.00  0.00    +0.000 A 
ATOM     13  C   UNL     1      47.412   3.739  17.436  0.00  0.00    +0.000 A 
ATOM     14  O   UNL     1      46.498   2.945  17.247  0.00  0.00    +0.000 OA
ATOM     15  N   UNL     1      48.149   3.796  18.603  0.00  0.00    +0.000 N 
ATOM     16  H   UNL     1      50.420   5.395  20.190  0.00  0.00    +0.000 HD
ATOM     17  H   UNL     1      49.244   4.366  20.827  0.00  0.00    +0.000 HD
ATOM     18  H   UNL     1      49.841   7.078  15.748  0.00  0.00    +0.000 HD
ATOM     19  H   UNL     1      47.929   3.102  19.295  0.00  0.00    +0.000 HD
ENDBRANCH   1  11
BRANCH   3  20
ATOM     20  C   UNL     1      44.295   4.853  12.982  0.00  0.00    +0.000 C 
BRANCH  20  21
ATOM     21  C   UNL     1      44.694   4.770  11.539  0.00  0.00    +0.000 A 
ATOM     22  C   UNL     1      44.250   3.716  10.739  0.00  0.00    +0.000 A 
ATOM     23  C   UNL     1      44.686   3.613   9.423  0.00  0.00    +0.000 A 
ATOM     24  C   UNL     1      45.597   4.545   8.932  0.00  0.00    +0.000 A 
ATOM     25  N   UNL     1      45.986   5.621   9.665  0.00  0.00    +0.000 NA
ATOM     26  C   UNL     1      45.521   5.713  10.938  0.00  0.00    +0.000 A 
BRANCH  24  27
ATOM     27  C   UNL     1      46.196   4.341   7.550  0.00  0.00    +0.000 C 
BRANCH  27  28
ATOM     28  N   UNL     1      46.003   3.047   6.868  0.00  0.00    +0.000 NA
ATOM     29  C   UNL     1      46.466   1.839   7.566  0.00  0.00    +0.000 C 
ATOM     30  C   UNL     1      47.916   1.396   7.272  0.00  0.00    +0.000 C 
ATOM     31  O   UNL     1      48.224   1.398   5.872  0.00  0.00    +0.000 OA
ATOM     32  C   UNL     1      47.930   2.671   5.284  0.00  0.00    +0.000 C 
ATOM     33  C   UNL     1      46.448   3.019   5.468  0.00  0.00    +0.000 C 
ENDBRANCH  27  28
ENDBRANCH  24  27
ENDBRANCH  20  21
ENDBRANCH   3  20
TORSDOF 5
ENDMDL
MODEL 2
REMARK VINA RESULT:    -8.068      4.001      8.507
REMARK INTER + INTRA:         -10.629
REMARK INTER:                  -9.863
REMARK INTRA:                  -0.766
REMARK UNBOUND:                -0.203
REMARK  Name = 
REMARK  5 active torsions:
REMARK  status: ('A' for Active; 'I' for Inactive)
REMARK    1  A    between atoms: C_7  and  C_8
REMARK    2  A    between atoms: N_10  and  C_11
REMARK    3  A    between atoms: C_11  and  C_12
REMARK    4  A    between atoms: C_15  and  C_16
REMARK    5  A    between atoms: C_16  and  N_17
REMARK                            x       y       z     vdW  Elec       q    Type
REMARK                         _______ _______ _______ _____ _____    ______ ____
ROOT
ATOM      1  C   UNL     1      43.997   4.189  10.479  0.00  0.00    +0.000 C 
ATOM      2  O   UNL     1      43.022   3.898  11.181  0.00  0.00    +0.000 OA
ATOM      3  N   UNL     1      44.516   5.466  10.505  0.00  0.00    +0.000 N 
ATOM      4  H   UNL     1      45.336   5.701   9.946  0.00  0.00    +0.000 HD
ENDROOT
BRANCH   1  11
ATOM      5  N   UNL     1      48.343   2.294   5.689  0.00  0.00    +0.000 N 
ATOM      6  C   UNL     1      47.430   2.560   6.661  0.00  0.00    +0.000 A 
ATOM      7  N   UNL     1      46.723   1.589   7.164  0.00  0.00    +0.000 NA
ATOM      8  C   UNL     1      45.855   1.985   8.119  0.00  0.00    +0.000 A 
ATOM      9  N   UNL     1      45.031   1.128   8.780  0.00  0.00    +0.000 N 
ATOM     10  C   UNL     1      44.284   1.839   9.681  0.00  0.00    +0.000 A 
ATOM     11  C   UNL     1      44.631   3.187   9.617  0.00  0.00    +0.000 A 
ATOM     12  C   UNL     1      45.635   3.255   8.606  0.00  0.00    +0.000 A 
ATOM     13  C   UNL     1      46.431   4.313   8.032  0.00  0.00    +0.000 A 
ATOM     14  O   UNL     1      46.334   5.483   8.382  0.00  0.00    +0.000 OA
ATOM     15  N   UNL     1      47.303   3.874   7.054  0.00  0.00    +0.000 N 
ATOM     16  H   UNL     1      48.233   1.355   5.315  0.00  0.00    +0.000 HD
ATOM     17  H   UNL     1      48.456   2.992   4.966  0.00  0.00    +0.000 HD
ATOM     18  H   UNL     1      44.997   0.130   8.620  0.00  0.00    +0.000 HD
ATOM     19  H   UNL     1      47.909   4.572   6.662  0.00  0.00    +0.000 HD
ENDBRANCH   1  11
BRANCH   3  20
ATOM     20  C   UNL     1      43.909   6.455  11.373  0.00  0.00    +0.000 C 
BRANCH  20  21
ATOM     21  C   UNL     1      44.898   7.413  11.967  0.00  0.00    +0.000 A 
ATOM     22  C   UNL     1      44.855   8.769  11.642  0.00  0.00    +0.000 A 
ATOM     23  C   UNL     1      45.821   9.633  12.142  0.00  0.00    +0.000 A 
ATOM     24  C   UNL     1      46.848   9.123  12.933  0.00  0.00    +0.000 A 
ATOM     25  N   UNL     1      46.871   7.823  13.326  0.00  0.00    +0.000 NA
ATOM     26  C   UNL     1      45.897   7.006  12.845  0.00  0.00    +0.000 A 
BRANCH  24  27
ATOM     27  C   UNL     1      47.991  10.036  13.346  0.00  0.00    +0.000 C 
BRANCH  27  28
ATOM     28  N   UNL     1      49.170  10.155  12.466  0.00  0.00    +0.000 NA
ATOM     29  C   UNL     1      49.320   9.157  11.399  0.00  0.00    +0.000 C 
ATOM     30  C   UNL     1      50.134   7.893  11.757  0.00  0.00    +0.000 C 
ATOM     31  O   UNL     1      51.362   8.198  12.429  0.00  0.00    +0.000 OA
ATOM     32  C   UNL     1      51.129   9.021  13.578  0.00  0.00    +0.000 C 
ATOM     33  C   UNL     1      50.446  10.332  13.171  0.00  0.00    +0.000 C 
ENDBRANCH  27  28
ENDBRANCH  24  27
ENDBRANCH  20  21
ENDBRANCH   3  20
TORSDOF 5
ENDMDL
MODEL 3
REMARK VINA RESULT:    -7.857      4.161      9.114
REMARK INTER + INTRA:         -10.357
REMARK INTER:                  -9.442
REMARK INTRA:                  -0.914
REMARK UNBOUND:                -0.203
REMARK  Name = 
REMARK  5 active torsions:
REMARK  status: ('A' for Active; 'I' for Inactive)
REMARK    1  A    between atoms: C_7  and  C_8
REMARK    2  A    between atoms: N_10  and  C_11
REMARK    3  A    between atoms: C_11  and  C_12
REMARK    4  A    between atoms: C_15  and  C_16
REMARK    5  A    between atoms: C_16  and  N_17
REMARK                            x       y       z     vdW  Elec       q    Type
REMARK                         _______ _______ _______ _____ _____    ______ ____
ROOT
ATOM      1  C   UNL     1      48.296   6.200  14.746  0.00  0.00    +0.000 C 
ATOM      2  O   UNL     1      49.358   6.793  14.524  0.00  0.00    +0.000 OA
ATOM      3  N   UNL     1      48.041   5.674  15.994  0.00  0.00    +0.000 N 
ATOM      4  H   UNL     1      47.155   5.207  16.187  0.00  0.00    +0.000 HD
ENDROOT
BRANCH   1  11
ATOM      5  N   UNL     1      44.023   2.573  11.003  0.00  0.00    +0.000 N 
ATOM      6  C   UNL     1      44.849   3.403  11.695  0.00  0.00    +0.000 A 
ATOM      7  N   UNL     1      44.853   4.677  11.428  0.00  0.00    +0.000 NA
ATOM      8  C   UNL     1      45.716   5.389  12.184  0.00  0.00    +0.000 A 
ATOM      9  N   UNL     1      45.867   6.737  12.074  0.00  0.00    +0.000 N 
ATOM     10  C   UNL     1      46.811   7.151  12.976  0.00  0.00    +0.000 A 
ATOM     11  C   UNL     1      47.280   6.056  13.698  0.00  0.00    +0.000 A 
ATOM     12  C   UNL     1      46.569   4.940  13.169  0.00  0.00    +0.000 A 
ATOM     13  C   UNL     1      46.545   3.524  13.444  0.00  0.00    +0.000 A 
ATOM     14  O   UNL     1      47.251   3.000  14.298  0.00  0.00    +0.000 OA
ATOM     15  N   UNL     1      45.657   2.825  12.649  0.00  0.00    +0.000 N 
ATOM     16  H   UNL     1      43.619   3.033  10.192  0.00  0.00    +0.000 HD
ATOM     17  H   UNL     1      44.375   1.649  10.793  0.00  0.00    +0.000 HD
ATOM     18  H   UNL     1      45.351   7.319  11.427  0.00  0.00    +0.000 HD
ATOM     19  H   UNL     1      45.576   1.842  12.842  0.00  0.00    +0.000 HD
ENDBRANCH   1  11
BRANCH   3  20
ATOM     20  C   UNL     1      49.031   5.835  17.040  0.00  0.00    +0.000 C 
BRANCH  20  21
ATOM     21  C   UNL     1      49.837   4.596  17.294  0.00  0.00    +0.000 A 
ATOM     22  C   UNL     1      51.182   4.686  17.653  0.00  0.00    +0.000 A 
ATOM     23  C   UNL     1      51.936   3.529  17.814  0.00  0.00    +0.000 A 
ATOM     24  C   UNL     1      51.345   2.292  17.572  0.00  0.00    +0.000 A 
ATOM     25  N   UNL     1      50.020   2.173  17.296  0.00  0.00    +0.000 NA
ATOM     26  C   UNL     1      49.300   3.319  17.173  0.00  0.00    +0.000 A 
BRANCH  24  27
ATOM     27  C   UNL     1      52.207   1.041  17.591  0.00  0.00    +0.000 C 
BRANCH  27  28
ATOM     28  N   UNL     1      53.675   1.178  17.517  0.00  0.00    +0.000 NA
ATOM     29  C   UNL     1      54.365   0.477  16.426  0.00  0.00    +0.000 C 
ATOM     30  C   UNL     1      54.853  -0.956  16.738  0.00  0.00    +0.000 C 
ATOM     31  O   UNL     1      55.533  -1.048  17.996  0.00  0.00    +0.000 OA
ATOM     32  C   UNL     1      54.727  -0.520  19.056  0.00  0.00    +0.000 C 
ATOM     33  C   UNL     1      54.378   0.948  18.786  0.00  0.00    +0.000 C 
ENDBRANCH  27  28
ENDBRANCH  24  27
ENDBRANCH  20  21
ENDBRANCH   3  20
TORSDOF 5
ENDMDL
MODEL 4
REMARK VINA RESULT:    -7.727      3.600      6.149
REMARK INTER + INTRA:         -10.188
REMARK INTER:                  -9.287
REMARK INTRA:                  -0.901
REMARK UNBOUND:                -0.203
REMARK  Name = 
REMARK  5 active torsions:
REMARK  status: ('A' for Active; 'I' for Inactive)
REMARK    1  A    between atoms: C_7  and  C_8
REMARK    2  A    between atoms: N_10  and  C_11
REMARK    3  A    between atoms: C_11  and  C_12
REMARK    4  A    between atoms: C_15  and  C_16
REMARK    5  A    between atoms: C_16  and  N_17
REMARK                            x       y       z     vdW  Elec       q    Type
REMARK                         _______ _______ _______ _____ _____    ______ ____
ROOT
ATOM      1  C   UNL     1      51.528   5.231  17.419  0.00  0.00    +0.000 C 
ATOM      2  O   UNL     1      51.938   6.094  16.635  0.00  0.00    +0.000 OA
ATOM      3  N   UNL     1      50.204   5.209  17.800  0.00  0.00    +0.000 N 
ATOM      4  H   UNL     1      49.859   4.483  18.427  0.00  0.00    +0.000 HD
ENDROOT
BRANCH   1  11
ATOM      5  N   UNL     1      53.393  -1.164  18.445  0.00  0.00    +0.000 N 
ATOM      6  C   UNL     1      53.116   0.160  18.302  0.00  0.00    +0.000 A 
ATOM      7  N   UNL     1      53.929   1.046  18.801  0.00  0.00    +0.000 NA
ATOM      8  C   UNL     1      53.539   2.322  18.590  0.00  0.00    +0.000 A 
ATOM      9  N   UNL     1      54.251   3.399  19.018  0.00  0.00    +0.000 N 
ATOM     10  C   UNL     1      53.593   4.540  18.645  0.00  0.00    +0.000 A 
ATOM     11  C   UNL     1      52.433   4.206  17.951  0.00  0.00    +0.000 A 
ATOM     12  C   UNL     1      52.418   2.780  17.933  0.00  0.00    +0.000 A 
ATOM     13  C   UNL     1      51.534   1.778  17.390  0.00  0.00    +0.000 A 
ATOM     14  O   UNL     1      50.508   2.055  16.781  0.00  0.00    +0.000 OA
ATOM     15  N   UNL     1      51.958   0.485  17.629  0.00  0.00    +0.000 N 
ATOM     16  H   UNL     1      54.139  -1.322  19.116  0.00  0.00    +0.000 HD
ATOM     17  H   UNL     1      52.606  -1.784  18.581  0.00  0.00    +0.000 HD
ATOM     18  H   UNL     1      55.126   3.342  19.524  0.00  0.00    +0.000 HD
ATOM     19  H   UNL     1      51.395  -0.243  17.226  0.00  0.00    +0.000 HD
ENDBRANCH   1  11
BRANCH   3  20
ATOM     20  C   UNL     1      49.300   6.204  17.259  0.00  0.00    +0.000 C 
BRANCH  20  21
ATOM     21  C   UNL     1      48.464   5.695  16.123  0.00  0.00    +0.000 A 
ATOM     22  C   UNL     1      48.386   6.406  14.925  0.00  0.00    +0.000 A 
ATOM     23  C   UNL     1      47.551   5.961  13.908  0.00  0.00    +0.000 A 
ATOM     24  C   UNL     1      46.768   4.828  14.115  0.00  0.00    +0.000 A 
ATOM     25  N   UNL     1      46.881   4.076  15.241  0.00  0.00    +0.000 NA
ATOM     26  C   UNL     1      47.727   4.519  16.208  0.00  0.00    +0.000 A 
BRANCH  24  27
ATOM     27  C   UNL     1      45.739   4.434  13.068  0.00  0.00    +0.000 C 
BRANCH  27  28
ATOM     28  N   UNL     1      45.168   5.477  12.194  0.00  0.00    +0.000 NA
ATOM     29  C   UNL     1      43.772   5.869  12.432  0.00  0.00    +0.000 C 
ATOM     30  C   UNL     1      42.701   5.090  11.635  0.00  0.00    +0.000 C 
ATOM     31  O   UNL     1      43.028   4.960  10.246  0.00  0.00    +0.000 OA
ATOM     32  C   UNL     1      44.333   4.392  10.076  0.00  0.00    +0.000 C 
ATOM     33  C   UNL     1      45.393   5.265  10.758  0.00  0.00    +0.000 C 
ENDBRANCH  27  28
ENDBRANCH  24  27
ENDBRANCH  20  21
ENDBRANCH   3  20
TORSDOF 5
ENDMDL
MODEL 5
REMARK VINA RESULT:    -7.428      3.405      4.537
REMARK INTER + INTRA:          -9.802
REMARK INTER:                  -9.072
REMARK INTRA:                  -0.730
REMARK UNBOUND:                -0.203
REMARK  Name = 
REMARK  5 active torsions:
REMARK  status: ('A' for Active; 'I' for Inactive)
REMARK    1  A    between atoms: C_7  and  C_8
REMARK    2  A    between atoms: N_10  and  C_11
REMARK    3  A    between atoms: C_11  and  C_12
REMARK    4  A    between atoms: C_15  and  C_16
REMARK    5  A    between atoms: C_16  and  N_17
REMARK                            x       y       z     vdW  Elec       q    Type
REMARK                         _______ _______ _______ _____ _____    ______ ____
ROOT
ATOM      1  C   UNL     1      48.759   8.237  15.459  0.00  0.00    +0.000 C 
ATOM      2  O   UNL     1      49.697   8.076  14.671  0.00  0.00    +0.000 OA
ATOM      3  N   UNL     1      47.573   8.790  15.025  0.00  0.00    +0.000 N 
ATOM      4  H   UNL     1      46.789   8.900  15.668  0.00  0.00    +0.000 HD
ENDROOT
BRANCH   1  11
ATOM      5  N   UNL     1      48.584   3.667  20.410  0.00  0.00    +0.000 N 
ATOM      6  C   UNL     1      48.644   4.673  19.497  0.00  0.00    +0.000 A 
ATOM      7  N   UNL     1      48.931   5.881  19.887  0.00  0.00    +0.000 NA
ATOM      8  C   UNL     1      48.959   6.785  18.884  0.00  0.00    +0.000 A 
ATOM      9  N   UNL     1      49.250   8.100  19.074  0.00  0.00    +0.000 N 
ATOM     10  C   UNL     1      49.197   8.743  17.866  0.00  0.00    +0.000 A 
ATOM     11  C   UNL     1      48.876   7.831  16.864  0.00  0.00    +0.000 A 
ATOM     12  C   UNL     1      48.723   6.586  17.541  0.00  0.00    +0.000 A 
ATOM     13  C   UNL     1      48.407   5.238  17.136  0.00  0.00    +0.000 A 
ATOM     14  O   UNL     1      48.181   4.929  15.971  0.00  0.00    +0.000 OA
ATOM     15  N   UNL     1      48.380   4.341  18.186  0.00  0.00    +0.000 N 
ATOM     16  H   UNL     1      48.587   4.022  21.362  0.00  0.00    +0.000 HD
ATOM     17  H   UNL     1      47.882   2.954  20.260  0.00  0.00    +0.000 HD
ATOM     18  H   UNL     1      49.471   8.513  19.971  0.00  0.00    +0.000 HD
ATOM     19  H   UNL     1      48.210   3.382  17.939  0.00  0.00    +0.000 HD
ENDBRANCH   1  11
BRANCH   3  20
ATOM     20  C   UNL     1      47.443   9.170  13.633  0.00  0.00    +0.000 C 
BRANCH  20  21
ATOM     21  C   UNL     1      46.664   8.183  12.816  0.00  0.00    +0.000 A 
ATOM     22  C   UNL     1      47.120   6.873  12.662  0.00  0.00    +0.000 A 
ATOM     23  C   UNL     1      46.426   5.989  11.844  0.00  0.00    +0.000 A 
ATOM     24  C   UNL     1      45.304   6.438  11.153  0.00  0.00    +0.000 A 
ATOM     25  N   UNL     1      44.796   7.684  11.343  0.00  0.00    +0.000 NA
ATOM     26  C   UNL     1      45.478   8.518  12.172  0.00  0.00    +0.000 A 
BRANCH  24  27
ATOM     27  C   UNL     1      44.642   5.522  10.137  0.00  0.00    +0.000 C 
BRANCH  27  28
ATOM     28  N   UNL     1      43.527   4.657  10.569  0.00  0.00    +0.000 NA
ATOM     29  C   UNL     1      42.685   5.140  11.672  0.00  0.00    +0.000 C 
ATOM     30  C   UNL     1      43.118   4.720  13.095  0.00  0.00    +0.000 C 
ATOM     31  O   UNL     1      43.436   3.326  13.189  0.00  0.00    +0.000 OA
ATOM     32  C   UNL     1      44.410   2.954  12.206  0.00  0.00    +0.000 C 
ATOM     33  C   UNL     1      43.892   3.253  10.795  0.00  0.00    +0.000 C 
ENDBRANCH  27  28
ENDBRANCH  24  27
ENDBRANCH  20  21
ENDBRANCH   3  20
TORSDOF 5
ENDMDL
MODEL 6
REMARK VINA RESULT:    -7.422      3.320      4.952
REMARK INTER + INTRA:          -9.794
REMARK INTER:                  -9.114
REMARK INTRA:                  -0.680
REMARK UNBOUND:                -0.203
REMARK  Name = 
REMARK  5 active torsions:
REMARK  status: ('A' for Active; 'I' for Inactive)
REMARK    1  A    between atoms: C_7  and  C_8
REMARK    2  A    between atoms: N_10  and  C_11
REMARK    3  A    between atoms: C_11  and  C_12
REMARK    4  A    between atoms: C_15  and  C_16
REMARK    5  A    between atoms: C_16  and  N_17
REMARK                            x       y       z     vdW  Elec       q    Type
REMARK                         _______ _______ _______ _____ _____    ______ ____
ROOT
ATOM      1  C   UNL     1      49.780   6.084  17.123  0.00  0.00    +0.000 C 
ATOM      2  O   UNL     1      48.853   6.346  17.897  0.00  0.00    +0.000 OA
ATOM      3  N   UNL     1      49.820   6.650  15.867  0.00  0.00    +0.000 N 
ATOM      4  H   UNL     1      50.597   6.456  15.236  0.00  0.00    +0.000 HD
ENDROOT
BRANCH   1  11
ATOM      5  N   UNL     1      52.460  -0.037  18.001  0.00  0.00    +0.000 N 
ATOM      6  C   UNL     1      52.023   1.244  17.869  0.00  0.00    +0.000 A 
ATOM      7  N   UNL     1      52.807   2.229  18.200  0.00  0.00    +0.000 NA
ATOM      8  C   UNL     1      52.255   3.448  18.022  0.00  0.00    +0.000 A 
ATOM      9  N   UNL     1      52.908   4.610  18.294  0.00  0.00    +0.000 N 
ATOM     10  C   UNL     1      52.079   5.661  18.005  0.00  0.00    +0.000 A 
ATOM     11  C   UNL     1      50.863   5.181  17.524  0.00  0.00    +0.000 A 
ATOM     12  C   UNL     1      50.998   3.761  17.549  0.00  0.00    +0.000 A 
ATOM     13  C   UNL     1      50.150   2.651  17.190  0.00  0.00    +0.000 A 
ATOM     14  O   UNL     1      49.014   2.796  16.754  0.00  0.00    +0.000 OA
ATOM     15  N   UNL     1      50.743   1.420  17.391  0.00  0.00    +0.000 N 
ATOM     16  H   UNL     1      53.318  -0.089  18.542  0.00  0.00    +0.000 HD
ATOM     17  H   UNL     1      51.776  -0.726  18.284  0.00  0.00    +0.000 HD
ATOM     18  H   UNL     1      53.854   4.664  18.647  0.00  0.00    +0.000 HD
ATOM     19  H   UNL     1      50.203   0.621  17.109  0.00  0.00    +0.000 HD
ENDBRANCH   1  11
BRANCH   3  20
ATOM     20  C   UNL     1      48.765   7.563  15.474  0.00  0.00    +0.000 C 
BRANCH  20  21
ATOM     21  C   UNL     1      47.922   7.050  14.346  0.00  0.00    +0.000 A 
ATOM     22  C   UNL     1      47.709   5.680  14.185  0.00  0.00    +0.000 A 
ATOM     23  C   UNL     1      46.986   5.214  13.093  0.00  0.00    +0.000 A 
ATOM     24  C   UNL     1      46.517   6.123  12.148  0.00  0.00    +0.000 A 
ATOM     25  N   UNL     1      46.645   7.464  12.319  0.00  0.00    +0.000 NA
ATOM     26  C   UNL     1      47.331   7.893  13.411  0.00  0.00    +0.000 A 
BRANCH  24  27
ATOM     27  C   UNL     1      45.868   5.603  10.876  0.00  0.00    +0.000 C 
BRANCH  27  28
ATOM     28  N   UNL     1      44.407   5.397  10.847  0.00  0.00    +0.000 NA
ATOM     29  C   UNL     1      43.724   5.221  12.136  0.00  0.00    +0.000 C 
ATOM     30  C   UNL     1      43.579   3.767  12.637  0.00  0.00    +0.000 C 
ATOM     31  O   UNL     1      43.114   2.872  11.619  0.00  0.00    +0.000 OA
ATOM     32  C   UNL     1      43.940   2.951  10.450  0.00  0.00    +0.000 C 
ATOM     33  C   UNL     1      43.949   4.379   9.893  0.00  0.00    +0.000 C 
ENDBRANCH  27  28
ENDBRANCH  24  27
ENDBRANCH  20  21
ENDBRANCH   3  20
TORSDOF 5
ENDMDL
MODEL 7
REMARK VINA RESULT:    -7.418      3.647      9.397
REMARK INTER + INTRA:          -9.789
REMARK INTER:                  -8.951
REMARK INTRA:                  -0.838
REMARK UNBOUND:                -0.203
REMARK  Name = 
REMARK  5 active torsions:
REMARK  status: ('A' for Active; 'I' for Inactive)
REMARK    1  A    between atoms: C_7  and  C_8
REMARK    2  A    between atoms: N_10  and  C_11
REMARK    3  A    between atoms: C_11  and  C_12
REMARK    4  A    between atoms: C_15  and  C_16
REMARK    5  A    between atoms: C_16  and  N_17
REMARK                            x       y       z     vdW  Elec       q    Type
REMARK                         _______ _______ _______ _____ _____    ______ ____
ROOT
ATOM      1  C   UNL     1      44.372   4.251  10.343  0.00  0.00    +0.000 C 
ATOM      2  O   UNL     1      43.229   4.166  10.805  0.00  0.00    +0.000 OA
ATOM      3  N   UNL     1      45.162   5.341  10.636  0.00  0.00    +0.000 N 
ATOM      4  H   UNL     1      46.115   5.401  10.278  0.00  0.00    +0.000 HD
ENDROOT
BRANCH   1  11
ATOM      5  N   UNL     1      48.420   1.998   5.447  0.00  0.00    +0.000 N 
ATOM      6  C   UNL     1      47.561   2.337   6.446  0.00  0.00    +0.000 A 
ATOM      7  N   UNL     1      46.828   1.419   7.006  0.00  0.00    +0.000 NA
ATOM      8  C   UNL     1      46.020   1.887   7.982  0.00  0.00    +0.000 A 
ATOM      9  N   UNL     1      45.183   1.093   8.701  0.00  0.00    +0.000 N 
ATOM     10  C   UNL     1      44.509   1.866   9.608  0.00  0.00    +0.000 A 
ATOM     11  C   UNL     1      44.920   3.192   9.488  0.00  0.00    +0.000 A 
ATOM     12  C   UNL     1      45.884   3.180   8.438  0.00  0.00    +0.000 A 
ATOM     13  C   UNL     1      46.708   4.178   7.800  0.00  0.00    +0.000 A 
ATOM     14  O   UNL     1      46.684   5.362   8.116  0.00  0.00    +0.000 OA
ATOM     15  N   UNL     1      47.516   3.668   6.802  0.00  0.00    +0.000 N 
ATOM     16  H   UNL     1      48.249   1.055   5.108  0.00  0.00    +0.000 HD
ATOM     17  H   UNL     1      48.538   2.667   4.699  0.00  0.00    +0.000 HD
ATOM     18  H   UNL     1      45.092   0.093   8.573  0.00  0.00    +0.000 HD
ATOM     19  H   UNL     1      48.140   4.322   6.366  0.00  0.00    +0.000 HD
ENDBRANCH   1  11
BRANCH   3  20
ATOM     20  C   UNL     1      44.635   6.379  11.501  0.00  0.00    +0.000 C 
BRANCH  20  21
ATOM     21  C   UNL     1      45.679   7.343  11.979  0.00  0.00    +0.000 A 
ATOM     22  C   UNL     1      47.028   7.126  11.696  0.00  0.00    +0.000 A 
ATOM     23  C   UNL     1      47.991   7.989  12.207  0.00  0.00    +0.000 A 
ATOM     24  C   UNL     1      47.597   9.038  13.032  0.00  0.00    +0.000 A 
ATOM     25  N   UNL     1      46.286   9.316  13.261  0.00  0.00    +0.000 NA
ATOM     26  C   UNL     1      45.365   8.473  12.725  0.00  0.00    +0.000 A 
BRANCH  24  27
ATOM     27  C   UNL     1      48.658   9.882  13.719  0.00  0.00    +0.000 C 
BRANCH  27  28
ATOM     28  N   UNL     1      49.374   9.328  14.884  0.00  0.00    +0.000 NA
ATOM     29  C   UNL     1      48.573   8.637  15.904  0.00  0.00    +0.000 C 
ATOM     30  C   UNL     1      48.049   9.510  17.066  0.00  0.00    +0.000 C 
ATOM     31  O   UNL     1      49.060  10.363  17.617  0.00  0.00    +0.000 OA
ATOM     32  C   UNL     1      49.677  11.155  16.595  0.00  0.00    +0.000 C 
ATOM     33  C   UNL     1      50.312  10.256  15.527  0.00  0.00    +0.000 C 
ENDBRANCH  27  28
ENDBRANCH  24  27
ENDBRANCH  20  21
ENDBRANCH   3  20
TORSDOF 5
ENDMDL
MODEL 8
REMARK VINA RESULT:    -7.366      3.693      8.701
REMARK INTER + INTRA:          -9.722
REMARK INTER:                  -8.627
REMARK INTRA:                  -1.096
REMARK UNBOUND:                -0.203
REMARK  Name = 
REMARK  5 active torsions:
REMARK  status: ('A' for Active; 'I' for Inactive)
REMARK    1  A    between atoms: C_7  and  C_8
REMARK    2  A    between atoms: N_10  and  C_11
REMARK    3  A    between atoms: C_11  and  C_12
REMARK    4  A    between atoms: C_15  and  C_16
REMARK    5  A    between atoms: C_16  and  N_17
REMARK                            x       y       z     vdW  Elec       q    Type
REMARK                         _______ _______ _______ _____ _____    ______ ____
ROOT
ATOM      1  C   UNL     1      46.305   8.104  12.715  0.00  0.00    +0.000 C 
ATOM      2  O   UNL     1      45.975   9.180  13.225  0.00  0.00    +0.000 OA
ATOM      3  N   UNL     1      47.631   7.732  12.672  0.00  0.00    +0.000 N 
ATOM      4  H   UNL     1      47.903   6.833  12.275  0.00  0.00    +0.000 HD
ENDROOT
BRANCH   1  11
ATOM      5  N   UNL     1      43.473   2.031  11.987  0.00  0.00    +0.000 N 
ATOM      6  C   UNL     1      43.960   3.299  12.056  0.00  0.00    +0.000 A 
ATOM      7  N   UNL     1      43.374   4.252  11.390  0.00  0.00    +0.000 NA
ATOM      8  C   UNL     1      43.955   5.461  11.544  0.00  0.00    +0.000 A 
ATOM      9  N   UNL     1      43.493   6.592  10.946  0.00  0.00    +0.000 N 
ATOM     10  C   UNL     1      44.296   7.642  11.303  0.00  0.00    +0.000 A 
ATOM     11  C   UNL     1      45.298   7.193  12.161  0.00  0.00    +0.000 A 
ATOM     12  C   UNL     1      45.061   5.794  12.295  0.00  0.00    +0.000 A 
ATOM     13  C   UNL     1      45.692   4.719  13.022  0.00  0.00    +0.000 A 
ATOM     14  O   UNL     1      46.680   4.884  13.729  0.00  0.00    +0.000 OA
ATOM     15  N   UNL     1      45.078   3.496  12.838  0.00  0.00    +0.000 N 
ATOM     16  H   UNL     1      42.788   1.931  11.243  0.00  0.00    +0.000 HD
ATOM     17  H   UNL     1      44.150   1.280  11.999  0.00  0.00    +0.000 HD
ATOM     18  H   UNL     1      42.681   6.629  10.342  0.00  0.00    +0.000 HD
ATOM     19  H   UNL     1      45.458   2.730  13.364  0.00  0.00    +0.000 HD
ENDBRANCH   1  11
BRANCH   3  20
ATOM     20  C   UNL     1      48.629   8.617  13.240  0.00  0.00    +0.000 C 
BRANCH  20  21
ATOM     21  C   UNL     1      49.116   8.178  14.588  0.00  0.00    +0.000 A 
ATOM     22  C   UNL     1      50.257   7.383  14.706  0.00  0.00    +0.000 A 
ATOM     23  C   UNL     1      50.655   6.923  15.956  0.00  0.00    +0.000 A 
ATOM     24  C   UNL     1      49.882   7.228  17.073  0.00  0.00    +0.000 A 
ATOM     25  N   UNL     1      48.811   8.061  16.997  0.00  0.00    +0.000 NA
ATOM     26  C   UNL     1      48.461   8.520  15.767  0.00  0.00    +0.000 A 
BRANCH  24  27
ATOM     27  C   UNL     1      50.226   6.594  18.410  0.00  0.00    +0.000 C 
BRANCH  27  28
ATOM     28  N   UNL     1      49.544   5.349  18.812  0.00  0.00    +0.000 NA
ATOM     29  C   UNL     1      49.197   4.396  17.749  0.00  0.00    +0.000 C 
ATOM     30  C   UNL     1      47.797   4.561  17.116  0.00  0.00    +0.000 C 
ATOM     31  O   UNL     1      46.762   4.726  18.093  0.00  0.00    +0.000 OA
ATOM     32  C   UNL     1      47.069   5.801  18.990  0.00  0.00    +0.000 C 
ATOM     33  C   UNL     1      48.398   5.538  19.709  0.00  0.00    +0.000 C 
ENDBRANCH  27  28
ENDBRANCH  24  27
ENDBRANCH  20  21
ENDBRANCH   3  20
TORSDOF 5
ENDMDL
MODEL 9
REMARK VINA RESULT:    -7.035      3.673      9.441
REMARK INTER + INTRA:          -9.294
REMARK INTER:                  -8.460
REMARK INTRA:                  -0.835
REMARK UNBOUND:                -0.203
REMARK  Name = 
REMARK  5 active torsions:
REMARK  status: ('A' for Active; 'I' for Inactive)
REMARK    1  A    between atoms: C_7  and  C_8
REMARK    2  A    between atoms: N_10  and  C_11
REMARK    3  A    between atoms: C_11  and  C_12
REMARK    4  A    between atoms: C_15  and  C_16
REMARK    5  A    between atoms: C_16  and  N_17
REMARK                            x       y       z     vdW  Elec       q    Type
REMARK                         _______ _______ _______ _____ _____    ______ ____
ROOT
ATOM      1  C   UNL     1      46.505   7.465  12.882  0.00  0.00    +0.000 C 
ATOM      2  O   UNL     1      46.291   8.578  13.374  0.00  0.00    +0.000 OA
ATOM      3  N   UNL     1      47.767   6.912  12.935  0.00  0.00    +0.000 N 
ATOM      4  H   UNL     1      47.940   5.983  12.552  0.00  0.00    +0.000 HD
ENDROOT
BRANCH   1  11
ATOM      5  N   UNL     1      43.199   1.748  11.536  0.00  0.00    +0.000 N 
ATOM      6  C   UNL     1      43.785   2.959  11.736  0.00  0.00    +0.000 A 
ATOM      7  N   UNL     1      43.271   4.022  11.187  0.00  0.00    +0.000 NA
ATOM      8  C   UNL     1      43.947   5.158  11.463  0.00  0.00    +0.000 A 
ATOM      9  N   UNL     1      43.572   6.380  11.000  0.00  0.00    +0.000 N 
ATOM     10  C   UNL     1      44.458   7.319  11.458  0.00  0.00    +0.000 A 
ATOM     11  C   UNL     1      45.427   6.702  12.246  0.00  0.00    +0.000 A 
ATOM     12  C   UNL     1      45.081   5.319  12.230  0.00  0.00    +0.000 A 
ATOM     13  C   UNL     1      45.630   4.125  12.826  0.00  0.00    +0.000 A 
ATOM     14  O   UNL     1      46.631   4.134  13.532  0.00  0.00    +0.000 OA
ATOM     15  N   UNL     1      44.919   2.981  12.518  0.00  0.00    +0.000 N 
ATOM     16  H   UNL     1      42.504   1.784  10.796  0.00  0.00    +0.000 HD
ATOM     17  H   UNL     1      43.815   0.950  11.456  0.00  0.00    +0.000 HD
ATOM     18  H   UNL     1      42.762   6.547  10.415  0.00  0.00    +0.000 HD
ATOM     19  H   UNL     1      45.241   2.134  12.952  0.00  0.00    +0.000 HD
ENDBRANCH   1  11
BRANCH   3  20
ATOM     20  C   UNL     1      48.832   7.651  13.584  0.00  0.00    +0.000 C 
BRANCH  20  21
ATOM     21  C   UNL     1      49.317   7.009  14.849  0.00  0.00    +0.000 A 
ATOM     22  C   UNL     1      50.564   7.340  15.380  0.00  0.00    +0.000 A 
ATOM     23  C   UNL     1      51.032   6.685  16.513  0.00  0.00    +0.000 A 
ATOM     24  C   UNL     1      50.263   5.671  17.080  0.00  0.00    +0.000 A 
ATOM     25  N   UNL     1      49.015   5.381  16.629  0.00  0.00    +0.000 NA
ATOM     26  C   UNL     1      48.570   6.059  15.538  0.00  0.00    +0.000 A 
BRANCH  24  27
ATOM     27  C   UNL     1      50.843   4.847  18.217  0.00  0.00    +0.000 C 
BRANCH  27  28
ATOM     28  N   UNL     1      50.571   5.253  19.610  0.00  0.00    +0.000 NA
ATOM     29  C   UNL     1      49.342   6.018  19.863  0.00  0.00    +0.000 C 
ATOM     30  C   UNL     1      49.470   7.556  19.796  0.00  0.00    +0.000 C 
ATOM     31  O   UNL     1      50.607   8.050  20.515  0.00  0.00    +0.000 OA
ATOM     32  C   UNL     1      51.809   7.398  20.086  0.00  0.00    +0.000 C 
ATOM     33  C   UNL     1      51.705   5.883  20.298  0.00  0.00    +0.000 C 
ENDBRANCH  27  28
ENDBRANCH  24  27
ENDBRANCH  20  21
ENDBRANCH   3  20
TORSDOF 5
ENDMDL
