MODEL 1
REMARK VINA RESULT:    -7.987      0.000      0.000
REMARK INTER + INTRA:         -13.031
REMARK INTER:                 -11.723
REMARK INTRA:                  -1.308
REMARK UNBOUND:                -1.308
REMARK  Name = 
REMARK  9 active torsions:
REMARK  status: ('A' for Active; 'I' for Inactive)
REMARK    1  A    between atoms: C_1  and  O_2
REMARK    2  A    between atoms: O_2  and  C_3
REMARK    3  A    between atoms: C_10  and  C_11
REMARK    4  A    between atoms: N_13  and  C_14
REMARK    5  A    between atoms: C_14  and  C_15
REMARK    6  A    between atoms: C_18  and  C_19
REMARK    7  A    between atoms: C_19  and  N_20
REMARK    8  A    between atoms: N_20  and  C_21
REMARK    9  A    between atoms: C_21  and  C_22
REMARK                            x       y       z     vdW  Elec       q    Type
REMARK                         _______ _______ _______ _____ _____    ______ ____
ROOT
ATOM      1  C   UNL     1      47.985   6.994  13.202  0.00  0.00    +0.000 C 
ENDROOT
BRANCH   1   2
ATOM      2  C   UNL     1      46.925   6.102  12.609  0.00  0.00    +0.000 A 
ATOM      3  C   UNL     1      46.333   6.414  11.378  0.00  0.00    +0.000 A 
ATOM      4  C   UNL     1      45.292   5.628  10.859  0.00  0.00    +0.000 A 
ATOM      5  C   UNL     1      44.829   4.497  11.548  0.00  0.00    +0.000 A 
ATOM      6  C   UNL     1      45.448   4.167  12.763  0.00  0.00    +0.000 A 
ATOM      7  C   UNL     1      46.475   4.964  13.292  0.00  0.00    +0.000 A 
BRANCH   5   8
ATOM      8  C   UNL     1      43.660   3.680  11.028  0.00  0.00    +0.000 C 
BRANCH   8   9
ATOM      9  N   UNL     1      43.790   3.368   9.603  0.00  0.00    +0.000 NA
ATOM     10  H   UNL     1      44.311   4.122   9.155  0.00  0.00    +0.000 HD
BRANCH   9  11
ATOM     11  C   UNL     1      44.503   2.108   9.377  0.00  0.00    +0.000 C 
BRANCH  11  12
ATOM     12  C   UNL     1      45.643   2.290   8.400  0.00  0.00    +0.000 A 
ATOM     13  C   UNL     1      46.436   1.206   8.007  0.00  0.00    +0.000 A 
ATOM     14  C   UNL     1      47.473   1.424   7.115  0.00  0.00    +0.000 A 
ATOM     15  N   UNL     1      47.777   2.630   6.587  0.00  0.00    +0.000 NA
ATOM     16  C   UNL     1      47.000   3.664   6.970  0.00  0.00    +0.000 A 
ATOM     17  C   UNL     1      45.936   3.545   7.853  0.00  0.00    +0.000 A 
ENDBRANCH  11  12
ENDBRANCH   9  11
ENDBRANCH   8   9
ENDBRANCH   5   8
ENDBRANCH   1   2
BRANCH   1  20
ATOM     18  C   UNL     1      49.062   6.981  15.426  0.00  0.00    +0.000 C 
ATOM     19  O   UNL     1      50.180   6.931  14.908  0.00  0.00    +0.000 OA
ATOM     20  N   UNL     1      47.927   7.007  14.649  0.00  0.00    +0.000 N 
ATOM     21  H   UNL     1      47.014   6.999  15.086  0.00  0.00    +0.000 HD
BRANCH  18  29
ATOM     22  C   UNL     1      48.932   4.550  17.874  0.00  0.00    +0.000 A 
ATOM     23  N   UNL     1      48.825   3.832  19.009  0.00  0.00    +0.000 NA
ATOM     24  C   UNL     1      48.649   4.480  20.161  0.00  0.00    +0.000 A 
ATOM     25  N   UNL     1      48.556   5.794  20.323  0.00  0.00    +0.000 NA
ATOM     26  C   UNL     1      48.654   6.476  19.169  0.00  0.00    +0.000 A 
ATOM     27  S   UNL     1      48.549   8.169  19.194  0.00  0.00    +0.000 S 
ATOM     28  C   UNL     1      48.742   8.256  17.509  0.00  0.00    +0.000 A 
ATOM     29  C   UNL     1      48.896   7.015  16.891  0.00  0.00    +0.000 A 
ATOM     30  C   UNL     1      48.842   5.952  17.892  0.00  0.00    +0.000 A 
BRANCH  22  32
ATOM     31  C   UNL     1      48.035   3.044  16.333  0.00  0.00    +0.000 C 
ATOM     32  O   UNL     1      49.149   3.862  16.696  0.00  0.00    +0.000 OA
ENDBRANCH  22  32
ENDBRANCH  18  29
ENDBRANCH   1  20
TORSDOF 8
ENDMDL
MODEL 2
REMARK VINA RESULT:    -7.944      0.546      1.049
REMARK INTER + INTRA:         -12.968
REMARK INTER:                 -11.924
REMARK INTRA:                  -1.043
REMARK UNBOUND:                -1.308
REMARK  Name = 
REMARK  9 active torsions:
REMARK  status: ('A' for Active; 'I' for Inactive)
REMARK    1  A    between atoms: C_1  and  O_2
REMARK    2  A    between atoms: O_2  and  C_3
REMARK    3  A    between atoms: C_10  and  C_11
REMARK    4  A    between atoms: N_13  and  C_14
REMARK    5  A    between atoms: C_14  and  C_15
REMARK    6  A    between atoms: C_18  and  C_19
REMARK    7  A    between atoms: C_19  and  N_20
REMARK    8  A    between atoms: N_20  and  C_21
REMARK    9  A    between atoms: C_21  and  C_22
REMARK                            x       y       z     vdW  Elec       q    Type
REMARK                         _______ _______ _______ _____ _____    ______ ____
ROOT
ATOM      1  C   UNL     1      48.105   6.809  13.368  0.00  0.00    +0.000 C 
ENDROOT
BRANCH   1   2
ATOM      2  C   UNL     1      46.931   6.095  12.749  0.00  0.00    +0.000 A 
ATOM      3  C   UNL     1      46.529   4.837  13.219  0.00  0.00    +0.000 A 
ATOM      4  C   UNL     1      45.486   4.135  12.596  0.00  0.00    +0.000 A 
ATOM      5  C   UNL     1      44.802   4.680  11.499  0.00  0.00    +0.000 A 
ATOM      6  C   UNL     1      45.183   5.954  11.054  0.00  0.00    +0.000 A 
ATOM      7  C   UNL     1      46.240   6.648  11.663  0.00  0.00    +0.000 A 
BRANCH   5   8
ATOM      8  C   UNL     1      43.718   3.900  10.777  0.00  0.00    +0.000 C 
BRANCH   8   9
ATOM      9  N   UNL     1      44.269   2.912   9.847  0.00  0.00    +0.000 NA
ATOM     10  H   UNL     1      43.562   2.197   9.680  0.00  0.00    +0.000 HD
BRANCH   9  11
ATOM     11  C   UNL     1      44.640   3.512   8.562  0.00  0.00    +0.000 C 
BRANCH  11  12
ATOM     12  C   UNL     1      45.799   2.776   7.928  0.00  0.00    +0.000 A 
ATOM     13  C   UNL     1      46.011   1.415   8.177  0.00  0.00    +0.000 A 
ATOM     14  C   UNL     1      47.091   0.786   7.580  0.00  0.00    +0.000 A 
ATOM     15  N   UNL     1      47.966   1.403   6.757  0.00  0.00    +0.000 NA
ATOM     16  C   UNL     1      47.745   2.712   6.520  0.00  0.00    +0.000 A 
ATOM     17  C   UNL     1      46.689   3.428   7.066  0.00  0.00    +0.000 A 
ENDBRANCH  11  12
ENDBRANCH   9  11
ENDBRANCH   8   9
ENDBRANCH   5   8
ENDBRANCH   1   2
BRANCH   1  20
ATOM     18  C   UNL     1      49.126   6.879  15.617  0.00  0.00    +0.000 C 
ATOM     19  O   UNL     1      50.258   6.869  15.128  0.00  0.00    +0.000 OA
ATOM     20  N   UNL     1      48.010   6.842  14.813  0.00  0.00    +0.000 N 
ATOM     21  H   UNL     1      47.088   6.802  15.228  0.00  0.00    +0.000 HD
BRANCH  18  29
ATOM     22  C   UNL     1      48.828   4.471  18.074  0.00  0.00    +0.000 A 
ATOM     23  N   UNL     1      48.661   3.765  19.210  0.00  0.00    +0.000 NA
ATOM     24  C   UNL     1      48.481   4.427  20.353  0.00  0.00    +0.000 A 
ATOM     25  N   UNL     1      48.440   5.745  20.505  0.00  0.00    +0.000 NA
ATOM     26  C   UNL     1      48.597   6.415  19.351  0.00  0.00    +0.000 A 
ATOM     27  S   UNL     1      48.563   8.111  19.364  0.00  0.00    +0.000 S 
ATOM     28  C   UNL     1      48.804   8.180  17.684  0.00  0.00    +0.000 A 
ATOM     29  C   UNL     1      48.922   6.929  17.078  0.00  0.00    +0.000 A 
ATOM     30  C   UNL     1      48.797   5.876  18.082  0.00  0.00    +0.000 A 
BRANCH  22  32
ATOM     31  C   UNL     1      47.835   3.264  16.341  0.00  0.00    +0.000 C 
ATOM     32  O   UNL     1      49.047   3.767  16.905  0.00  0.00    +0.000 OA
ENDBRANCH  22  32
ENDBRANCH  18  29
ENDBRANCH   1  20
TORSDOF 8
ENDMDL
MODEL 3
REMARK VINA RESULT:    -7.565      1.914      3.495
REMARK INTER + INTRA:         -12.411
REMARK INTER:                 -11.064
REMARK INTRA:                  -1.347
REMARK UNBOUND:                -1.308
REMARK  Name = 
REMARK  9 active torsions:
REMARK  status: ('A' for Active; 'I' for Inactive)
REMARK    1  A    between atoms: C_1  and  O_2
REMARK    2  A    between atoms: O_2  and  C_3
REMARK    3  A    between atoms: C_10  and  C_11
REMARK    4  A    between atoms: N_13  and  C_14
REMARK    5  A    between atoms: C_14  and  C_15
REMARK    6  A    between atoms: C_18  and  C_19
REMARK    7  A    between atoms: C_19  and  N_20
REMARK    8  A    between atoms: N_20  and  C_21
REMARK    9  A    between atoms: C_21  and  C_22
REMARK                            x       y       z     vdW  Elec       q    Type
REMARK                         _______ _______ _______ _____ _____    ______ ____
ROOT
ATOM      1  C   UNL     1      47.146   4.347  14.968  0.00  0.00    +0.000 C 
ENDROOT
BRANCH   1   2
ATOM      2  C   UNL     1      46.325   4.405  13.706  0.00  0.00    +0.000 A 
ATOM      3  C   UNL     1      45.807   5.623  13.244  0.00  0.00    +0.000 A 
ATOM      4  C   UNL     1      44.979   5.671  12.112  0.00  0.00    +0.000 A 
ATOM      5  C   UNL     1      44.663   4.505  11.398  0.00  0.00    +0.000 A 
ATOM      6  C   UNL     1      45.212   3.293  11.842  0.00  0.00    +0.000 A 
ATOM      7  C   UNL     1      46.024   3.242  12.985  0.00  0.00    +0.000 A 
BRANCH   5   8
ATOM      8  C   UNL     1      43.715   4.538  10.213  0.00  0.00    +0.000 C 
BRANCH   8   9
ATOM      9  N   UNL     1      44.140   3.640   9.137  0.00  0.00    +0.000 NA
ATOM     10  H   UNL     1      43.348   3.489   8.512  0.00  0.00    +0.000 HD
BRANCH   9  11
ATOM     11  C   UNL     1      45.249   4.199   8.358  0.00  0.00    +0.000 C 
BRANCH  11  12
ATOM     12  C   UNL     1      46.100   3.104   7.753  0.00  0.00    +0.000 A 
ATOM     13  C   UNL     1      46.060   1.799   8.257  0.00  0.00    +0.000 A 
ATOM     14  C   UNL     1      46.863   0.832   7.675  0.00  0.00    +0.000 A 
ATOM     15  N   UNL     1      47.695   1.064   6.635  0.00  0.00    +0.000 NA
ATOM     16  C   UNL     1      47.717   2.325   6.157  0.00  0.00    +0.000 A 
ATOM     17  C   UNL     1      46.947   3.359   6.668  0.00  0.00    +0.000 A 
ENDBRANCH  11  12
ENDBRANCH   9  11
ENDBRANCH   8   9
ENDBRANCH   5   8
ENDBRANCH   1   2
BRANCH   1  20
ATOM     18  C   UNL     1      48.638   5.869  16.217  0.00  0.00    +0.000 C 
ATOM     19  O   UNL     1      49.321   4.919  16.604  0.00  0.00    +0.000 OA
ATOM     20  N   UNL     1      47.540   5.667  15.412  0.00  0.00    +0.000 N 
ATOM     21  H   UNL     1      46.960   6.451  15.141  0.00  0.00    +0.000 HD
BRANCH  18  29
ATOM     22  C   UNL     1      48.724   8.867  14.506  0.00  0.00    +0.000 A 
ATOM     23  N   UNL     1      48.861  10.143  14.096  0.00  0.00    +0.000 NA
ATOM     24  C   UNL     1      49.244  11.062  14.984  0.00  0.00    +0.000 A 
ATOM     25  N   UNL     1      49.520  10.856  16.265  0.00  0.00    +0.000 NA
ATOM     26  C   UNL     1      49.385   9.571  16.635  0.00  0.00    +0.000 A 
ATOM     27  S   UNL     1      49.707   9.131  18.241  0.00  0.00    +0.000 S 
ATOM     28  C   UNL     1      49.344   7.503  17.921  0.00  0.00    +0.000 A 
ATOM     29  C   UNL     1      48.966   7.256  16.601  0.00  0.00    +0.000 A 
ATOM     30  C   UNL     1      48.993   8.499  15.835  0.00  0.00    +0.000 A 
BRANCH  22  32
ATOM     31  C   UNL     1      48.859   8.158  12.287  0.00  0.00    +0.000 C 
ATOM     32  O   UNL     1      48.294   7.937  13.580  0.00  0.00    +0.000 OA
ENDBRANCH  22  32
ENDBRANCH  18  29
ENDBRANCH   1  20
TORSDOF 8
ENDMDL
MODEL 4
REMARK VINA RESULT:    -7.488      1.844      2.781
REMARK INTER + INTRA:         -12.299
REMARK INTER:                 -11.193
REMARK INTRA:                  -1.106
REMARK UNBOUND:                -1.308
REMARK  Name = 
REMARK  9 active torsions:
REMARK  status: ('A' for Active; 'I' for Inactive)
REMARK    1  A    between atoms: C_1  and  O_2
REMARK    2  A    between atoms: O_2  and  C_3
REMARK    3  A    between atoms: C_10  and  C_11
REMARK    4  A    between atoms: N_13  and  C_14
REMARK    5  A    between atoms: C_14  and  C_15
REMARK    6  A    between atoms: C_18  and  C_19
REMARK    7  A    between atoms: C_19  and  N_20
REMARK    8  A    between atoms: N_20  and  C_21
REMARK    9  A    between atoms: C_21  and  C_22
REMARK                            x       y       z     vdW  Elec       q    Type
REMARK                         _______ _______ _______ _____ _____    ______ ____
ROOT
ATOM      1  C   UNL     1      47.153   4.301  14.993  0.00  0.00    +0.000 C 
ENDROOT
BRANCH   1   2
ATOM      2  C   UNL     1      46.344   4.370  13.723  0.00  0.00    +0.000 A 
ATOM      3  C   UNL     1      45.841   5.593  13.260  0.00  0.00    +0.000 A 
ATOM      4  C   UNL     1      45.023   5.651  12.121  0.00  0.00    +0.000 A 
ATOM      5  C   UNL     1      44.703   4.490  11.402  0.00  0.00    +0.000 A 
ATOM      6  C   UNL     1      45.237   3.272  11.848  0.00  0.00    +0.000 A 
ATOM      7  C   UNL     1      46.037   3.211  12.999  0.00  0.00    +0.000 A 
BRANCH   5   8
ATOM      8  C   UNL     1      43.766   4.534  10.208  0.00  0.00    +0.000 C 
BRANCH   8   9
ATOM      9  N   UNL     1      44.123   3.550   9.184  0.00  0.00    +0.000 NA
ATOM     10  H   UNL     1      43.268   3.238   8.724  0.00  0.00    +0.000 HD
BRANCH   9  11
ATOM     11  C   UNL     1      45.022   4.110   8.171  0.00  0.00    +0.000 C 
BRANCH  11  12
ATOM     12  C   UNL     1      45.965   3.057   7.632  0.00  0.00    +0.000 A 
ATOM     13  C   UNL     1      46.802   3.329   6.544  0.00  0.00    +0.000 A 
ATOM     14  C   UNL     1      47.643   2.331   6.081  0.00  0.00    +0.000 A 
ATOM     15  N   UNL     1      47.715   1.092   6.616  0.00  0.00    +0.000 NA
ATOM     16  C   UNL     1      46.907   0.848   7.668  0.00  0.00    +0.000 A 
ATOM     17  C   UNL     1      46.035   1.783   8.207  0.00  0.00    +0.000 A 
ENDBRANCH  11  12
ENDBRANCH   9  11
ENDBRANCH   8   9
ENDBRANCH   5   8
ENDBRANCH   1   2
BRANCH   1  20
ATOM     18  C   UNL     1      48.630   5.824  16.259  0.00  0.00    +0.000 C 
ATOM     19  O   UNL     1      49.334   4.879  16.618  0.00  0.00    +0.000 OA
ATOM     20  N   UNL     1      47.528   5.619  15.461  0.00  0.00    +0.000 N 
ATOM     21  H   UNL     1      46.930   6.397  15.213  0.00  0.00    +0.000 HD
BRANCH  18  29
ATOM     22  C   UNL     1      47.732   7.773  18.964  0.00  0.00    +0.000 A 
ATOM     23  N   UNL     1      47.531   8.746  19.875  0.00  0.00    +0.000 NA
ATOM     24  C   UNL     1      48.118   9.928  19.687  0.00  0.00    +0.000 A 
ATOM     25  N   UNL     1      48.897  10.270  18.668  0.00  0.00    +0.000 NA
ATOM     26  C   UNL     1      49.064   9.281  17.775  0.00  0.00    +0.000 A 
ATOM     27  S   UNL     1      50.028   9.553  16.405  0.00  0.00    +0.000 S 
ATOM     28  C   UNL     1      49.754   7.976  15.837  0.00  0.00    +0.000 A 
ATOM     29  C   UNL     1      48.937   7.208  16.668  0.00  0.00    +0.000 A 
ATOM     30  C   UNL     1      48.527   7.997  17.827  0.00  0.00    +0.000 A 
BRANCH  22  32
ATOM     31  C   UNL     1      47.957   5.697  20.006  0.00  0.00    +0.000 C 
ATOM     32  O   UNL     1      47.143   6.545  19.195  0.00  0.00    +0.000 OA
ENDBRANCH  22  32
ENDBRANCH  18  29
ENDBRANCH   1  20
TORSDOF 8
ENDMDL
MODEL 5
REMARK VINA RESULT:    -6.840      3.133      4.149
REMARK INTER + INTRA:         -11.347
REMARK INTER:                 -10.170
REMARK INTRA:                  -1.177
REMARK UNBOUND:                -1.308
REMARK  Name = 
REMARK  9 active torsions:
REMARK  status: ('A' for Active; 'I' for Inactive)
REMARK    1  A    between atoms: C_1  and  O_2
REMARK    2  A    between atoms: O_2  and  C_3
REMARK    3  A    between atoms: C_10  and  C_11
REMARK    4  A    between atoms: N_13  and  C_14
REMARK    5  A    between atoms: C_14  and  C_15
REMARK    6  A    between atoms: C_18  and  C_19
REMARK    7  A    between atoms: C_19  and  N_20
REMARK    8  A    between atoms: N_20  and  C_21
REMARK    9  A    between atoms: C_21  and  C_22
REMARK                            x       y       z     vdW  Elec       q    Type
REMARK                         _______ _______ _______ _____ _____    ______ ____
ROOT
ATOM      1  C   UNL     1      45.854   8.027  12.961  0.00  0.00    +0.000 C 
ENDROOT
BRANCH   1   2
ATOM      2  C   UNL     1      45.274   6.704  12.530  0.00  0.00    +0.000 A 
ATOM      3  C   UNL     1      45.939   5.504  12.816  0.00  0.00    +0.000 A 
ATOM      4  C   UNL     1      45.443   4.276  12.350  0.00  0.00    +0.000 A 
ATOM      5  C   UNL     1      44.257   4.213  11.603  0.00  0.00    +0.000 A 
ATOM      6  C   UNL     1      43.575   5.413  11.349  0.00  0.00    +0.000 A 
ATOM      7  C   UNL     1      44.082   6.642  11.797  0.00  0.00    +0.000 A 
BRANCH   5   8
ATOM      8  C   UNL     1      43.748   2.899  11.039  0.00  0.00    +0.000 C 
BRANCH   8   9
ATOM      9  N   UNL     1      44.666   2.325  10.054  0.00  0.00    +0.000 NA
ATOM     10  H   UNL     1      44.339   1.389   9.815  0.00  0.00    +0.000 HD
BRANCH   9  11
ATOM     11  C   UNL     1      44.730   3.125   8.827  0.00  0.00    +0.000 C 
BRANCH  11  12
ATOM     12  C   UNL     1      45.814   2.620   7.899  0.00  0.00    +0.000 A 
ATOM     13  C   UNL     1      46.385   1.356   8.080  0.00  0.00    +0.000 A 
ATOM     14  C   UNL     1      47.379   0.940   7.210  0.00  0.00    +0.000 A 
ATOM     15  N   UNL     1      47.842   1.682   6.180  0.00  0.00    +0.000 NA
ATOM     16  C   UNL     1      47.277   2.895   6.014  0.00  0.00    +0.000 A 
ATOM     17  C   UNL     1      46.272   3.397   6.829  0.00  0.00    +0.000 A 
ENDBRANCH  11  12
ENDBRANCH   9  11
ENDBRANCH   8   9
ENDBRANCH   5   8
ENDBRANCH   1   2
BRANCH   1  20
ATOM     18  C   UNL     1      48.066   8.978  12.408  0.00  0.00    +0.000 C 
ATOM     19  O   UNL     1      47.537   9.925  11.822  0.00  0.00    +0.000 OA
ATOM     20  N   UNL     1      47.301   7.994  12.990  0.00  0.00    +0.000 N 
ATOM     21  H   UNL     1      47.748   7.197  13.425  0.00  0.00    +0.000 HD
BRANCH  18  29
ATOM     22  C   UNL     1      50.220   7.971  14.911  0.00  0.00    +0.000 A 
ATOM     23  N   UNL     1      51.271   7.658  15.694  0.00  0.00    +0.000 NA
ATOM     24  C   UNL     1      52.500   7.778  15.191  0.00  0.00    +0.000 A 
ATOM     25  N   UNL     1      52.818   8.190  13.970  0.00  0.00    +0.000 NA
ATOM     26  C   UNL     1      51.746   8.505  13.223  0.00  0.00    +0.000 A 
ATOM     27  S   UNL     1      51.974   9.056  11.635  0.00  0.00    +0.000 S 
ATOM     28  C   UNL     1      50.300   9.223  11.400  0.00  0.00    +0.000 A 
ATOM     29  C   UNL     1      49.533   8.861  12.508  0.00  0.00    +0.000 A 
ATOM     30  C   UNL     1      50.406   8.432  13.597  0.00  0.00    +0.000 A 
BRANCH  22  32
ATOM     31  C   UNL     1      48.533   8.943  16.198  0.00  0.00    +0.000 C 
ATOM     32  O   UNL     1      48.954   7.808  15.439  0.00  0.00    +0.000 OA
ENDBRANCH  22  32
ENDBRANCH  18  29
ENDBRANCH   1  20
TORSDOF 8
ENDMDL
MODEL 6
REMARK VINA RESULT:    -6.836      2.489      3.146
REMARK INTER + INTRA:         -11.342
REMARK INTER:                 -10.345
REMARK INTRA:                  -0.997
REMARK UNBOUND:                -1.308
REMARK  Name = 
REMARK  9 active torsions:
REMARK  status: ('A' for Active; 'I' for Inactive)
REMARK    1  A    between atoms: C_1  and  O_2
REMARK    2  A    between atoms: O_2  and  C_3
REMARK    3  A    between atoms: C_10  and  C_11
REMARK    4  A    between atoms: N_13  and  C_14
REMARK    5  A    between atoms: C_14  and  C_15
REMARK    6  A    between atoms: C_18  and  C_19
REMARK    7  A    between atoms: C_19  and  N_20
REMARK    8  A    between atoms: N_20  and  C_21
REMARK    9  A    between atoms: C_21  and  C_22
REMARK                            x       y       z     vdW  Elec       q    Type
REMARK                         _______ _______ _______ _____ _____    ______ ____
ROOT
ATOM      1  C   UNL     1      47.077   4.796  15.030  0.00  0.00    +0.000 C 
ENDROOT
BRANCH   1   2
ATOM      2  C   UNL     1      46.283   4.713  13.751  0.00  0.00    +0.000 A 
ATOM      3  C   UNL     1      45.734   5.866  13.174  0.00  0.00    +0.000 A 
ATOM      4  C   UNL     1      44.929   5.784  12.026  0.00  0.00    +0.000 A 
ATOM      5  C   UNL     1      44.670   4.549  11.413  0.00  0.00    +0.000 A 
ATOM      6  C   UNL     1      45.251   3.402  11.973  0.00  0.00    +0.000 A 
ATOM      7  C   UNL     1      46.038   3.481  13.132  0.00  0.00    +0.000 A 
BRANCH   5   8
ATOM      8  C   UNL     1      43.748   4.443  10.212  0.00  0.00    +0.000 C 
BRANCH   8   9
ATOM      9  N   UNL     1      44.173   3.399   9.276  0.00  0.00    +0.000 NA
ATOM     10  H   UNL     1      43.342   2.918   8.931  0.00  0.00    +0.000 HD
BRANCH   9  11
ATOM     11  C   UNL     1      44.903   3.950   8.131  0.00  0.00    +0.000 C 
BRANCH  11  12
ATOM     12  C   UNL     1      45.925   2.965   7.607  0.00  0.00    +0.000 A 
ATOM     13  C   UNL     1      46.047   1.688   8.166  0.00  0.00    +0.000 A 
ATOM     14  C   UNL     1      47.002   0.824   7.658  0.00  0.00    +0.000 A 
ATOM     15  N   UNL     1      47.838   1.131   6.642  0.00  0.00    +0.000 NA
ATOM     16  C   UNL     1      47.704   2.362   6.109  0.00  0.00    +0.000 A 
ATOM     17  C   UNL     1      46.774   3.296   6.544  0.00  0.00    +0.000 A 
ENDBRANCH  11  12
ENDBRANCH   9  11
ENDBRANCH   8   9
ENDBRANCH   5   8
ENDBRANCH   1   2
BRANCH   1  20
ATOM     18  C   UNL     1      48.775   6.259  16.070  0.00  0.00    +0.000 C 
ATOM     19  O   UNL     1      48.493   5.828  17.190  0.00  0.00    +0.000 OA
ATOM     20  N   UNL     1      48.113   5.805  14.952  0.00  0.00    +0.000 N 
ATOM     21  H   UNL     1      48.320   6.202  14.045  0.00  0.00    +0.000 HD
BRANCH  18  29
ATOM     22  C   UNL     1      52.168   6.336  16.703  0.00  0.00    +0.000 A 
ATOM     23  N   UNL     1      53.469   6.648  16.861  0.00  0.00    +0.000 NA
ATOM     24  C   UNL     1      53.886   7.858  16.485  0.00  0.00    +0.000 A 
ATOM     25  N   UNL     1      53.140   8.824  15.963  0.00  0.00    +0.000 NA
ATOM     26  C   UNL     1      51.847   8.481  15.833  0.00  0.00    +0.000 A 
ATOM     27  S   UNL     1      50.752   9.604  15.187  0.00  0.00    +0.000 S 
ATOM     28  C   UNL     1      49.461   8.512  15.346  0.00  0.00    +0.000 A 
ATOM     29  C   UNL     1      49.827   7.277  15.882  0.00  0.00    +0.000 A 
ATOM     30  C   UNL     1      51.258   7.266  16.172  0.00  0.00    +0.000 A 
BRANCH  22  32
ATOM     31  C   UNL     1      51.672   4.912  18.484  0.00  0.00    +0.000 C 
ATOM     32  O   UNL     1      51.763   5.066  17.067  0.00  0.00    +0.000 OA
ENDBRANCH  22  32
ENDBRANCH  18  29
ENDBRANCH   1  20
TORSDOF 8
ENDMDL
MODEL 7
REMARK VINA RESULT:    -6.635      4.845      9.292
REMARK INTER + INTRA:         -11.047
REMARK INTER:                 -10.119
REMARK INTRA:                  -0.927
REMARK UNBOUND:                -1.308
REMARK  Name = 
REMARK  9 active torsions:
REMARK  status: ('A' for Active; 'I' for Inactive)
REMARK    1  A    between atoms: C_1  and  O_2
REMARK    2  A    between atoms: O_2  and  C_3
REMARK    3  A    between atoms: C_10  and  C_11
REMARK    4  A    between atoms: N_13  and  C_14
REMARK    5  A    between atoms: C_14  and  C_15
REMARK    6  A    between atoms: C_18  and  C_19
REMARK    7  A    between atoms: C_19  and  N_20
REMARK    8  A    between atoms: N_20  and  C_21
REMARK    9  A    between atoms: C_21  and  C_22
REMARK                            x       y       z     vdW  Elec       q    Type
REMARK                         _______ _______ _______ _____ _____    ______ ____
ROOT
ATOM      1  C   UNL     1      47.185   3.384  16.812  0.00  0.00    +0.000 C 
ENDROOT
BRANCH   1   2
ATOM      2  C   UNL     1      48.664   3.277  17.077  0.00  0.00    +0.000 A 
ATOM      3  C   UNL     1      49.355   2.087  16.813  0.00  0.00    +0.000 A 
ATOM      4  C   UNL     1      50.716   1.958  17.130  0.00  0.00    +0.000 A 
ATOM      5  C   UNL     1      51.429   3.024  17.700  0.00  0.00    +0.000 A 
ATOM      6  C   UNL     1      50.743   4.225  17.930  0.00  0.00    +0.000 A 
ATOM      7  C   UNL     1      49.378   4.348  17.632  0.00  0.00    +0.000 A 
BRANCH   5   8
ATOM      8  C   UNL     1      52.884   2.872  18.107  0.00  0.00    +0.000 C 
BRANCH   8   9
ATOM      9  N   UNL     1      53.532   1.741  17.441  0.00  0.00    +0.000 NA
ATOM     10  H   UNL     1      54.166   2.106  16.730  0.00  0.00    +0.000 HD
BRANCH   9  11
ATOM     11  C   UNL     1      54.304   0.918  18.377  0.00  0.00    +0.000 C 
BRANCH  11  12
ATOM     12  C   UNL     1      54.536  -0.471  17.823  0.00  0.00    +0.000 A 
ATOM     13  C   UNL     1      54.811  -0.668  16.466  0.00  0.00    +0.000 A 
ATOM     14  C   UNL     1      55.008  -1.959  16.004  0.00  0.00    +0.000 A 
ATOM     15  N   UNL     1      54.956  -3.059  16.786  0.00  0.00    +0.000 NA
ATOM     16  C   UNL     1      54.697  -2.852  18.093  0.00  0.00    +0.000 A 
ATOM     17  C   UNL     1      54.491  -1.599  18.651  0.00  0.00    +0.000 A 
ENDBRANCH  11  12
ENDBRANCH   9  11
ENDBRANCH   8   9
ENDBRANCH   5   8
ENDBRANCH   1   2
BRANCH   1  20
ATOM     18  C   UNL     1      46.887   4.229  14.509  0.00  0.00    +0.000 C 
ATOM     19  O   UNL     1      47.163   3.122  14.043  0.00  0.00    +0.000 OA
ATOM     20  N   UNL     1      46.884   4.441  15.869  0.00  0.00    +0.000 N 
ATOM     21  H   UNL     1      46.703   5.366  16.237  0.00  0.00    +0.000 HD
BRANCH  18  29
ATOM     22  C   UNL     1      44.098   5.082  12.662  0.00  0.00    +0.000 A 
ATOM     23  N   UNL     1      43.179   5.642  11.849  0.00  0.00    +0.000 NA
ATOM     24  C   UNL     1      43.475   6.795  11.249  0.00  0.00    +0.000 A 
ATOM     25  N   UNL     1      44.609   7.474  11.358  0.00  0.00    +0.000 NA
ATOM     26  C   UNL     1      45.506   6.881  12.165  0.00  0.00    +0.000 A 
ATOM     27  S   UNL     1      47.016   7.614  12.410  0.00  0.00    +0.000 S 
ATOM     28  C   UNL     1      47.512   6.361  13.445  0.00  0.00    +0.000 A 
ATOM     29  C   UNL     1      46.550   5.368  13.633  0.00  0.00    +0.000 A 
ATOM     30  C   UNL     1      45.351   5.685  12.863  0.00  0.00    +0.000 A 
BRANCH  22  32
ATOM     31  C   UNL     1      43.603   2.818  12.386  0.00  0.00    +0.000 C 
ATOM     32  O   UNL     1      43.759   3.905  13.300  0.00  0.00    +0.000 OA
ENDBRANCH  22  32
ENDBRANCH  18  29
ENDBRANCH   1  20
TORSDOF 8
ENDMDL
MODEL 8
REMARK VINA RESULT:    -6.605      3.773      8.729
REMARK INTER + INTRA:         -11.003
REMARK INTER:                  -9.737
REMARK INTRA:                  -1.265
REMARK UNBOUND:                -1.308
REMARK  Name = 
REMARK  9 active torsions:
REMARK  status: ('A' for Active; 'I' for Inactive)
REMARK    1  A    between atoms: C_1  and  O_2
REMARK    2  A    between atoms: O_2  and  C_3
REMARK    3  A    between atoms: C_10  and  C_11
REMARK    4  A    between atoms: N_13  and  C_14
REMARK    5  A    between atoms: C_14  and  C_15
REMARK    6  A    between atoms: C_18  and  C_19
REMARK    7  A    between atoms: C_19  and  N_20
REMARK    8  A    between atoms: N_20  and  C_21
REMARK    9  A    between atoms: C_21  and  C_22
REMARK                            x       y       z     vdW  Elec       q    Type
REMARK                         _______ _______ _______ _____ _____    ______ ____
ROOT
ATOM      1  C   UNL     1      47.252   3.390  16.742  0.00  0.00    +0.000 C 
ENDROOT
BRANCH   1   2
ATOM      2  C   UNL     1      48.727   3.487  17.032  0.00  0.00    +0.000 A 
ATOM      3  C   UNL     1      49.539   2.345  17.008  0.00  0.00    +0.000 A 
ATOM      4  C   UNL     1      50.898   2.419  17.353  0.00  0.00    +0.000 A 
ATOM      5  C   UNL     1      51.487   3.641  17.711  0.00  0.00    +0.000 A 
ATOM      6  C   UNL     1      50.679   4.789  17.699  0.00  0.00    +0.000 A 
ATOM      7  C   UNL     1      49.317   4.711  17.375  0.00  0.00    +0.000 A 
BRANCH   5   8
ATOM      8  C   UNL     1      52.938   3.720  18.150  0.00  0.00    +0.000 C 
BRANCH   8   9
ATOM      9  N   UNL     1      53.494   5.065  17.991  0.00  0.00    +0.000 NA
ATOM     10  H   UNL     1      53.908   5.350  18.878  0.00  0.00    +0.000 HD
BRANCH   9  11
ATOM     11  C   UNL     1      54.531   5.114  16.955  0.00  0.00    +0.000 C 
BRANCH  11  12
ATOM     12  C   UNL     1      54.201   6.146  15.899  0.00  0.00    +0.000 A 
ATOM     13  C   UNL     1      55.041   6.342  14.797  0.00  0.00    +0.000 A 
ATOM     14  C   UNL     1      54.702   7.304  13.860  0.00  0.00    +0.000 A 
ATOM     15  N   UNL     1      53.597   8.078  13.935  0.00  0.00    +0.000 NA
ATOM     16  C   UNL     1      52.794   7.873  14.998  0.00  0.00    +0.000 A 
ATOM     17  C   UNL     1      53.045   6.931  15.986  0.00  0.00    +0.000 A 
ENDBRANCH  11  12
ENDBRANCH   9  11
ENDBRANCH   8   9
ENDBRANCH   5   8
ENDBRANCH   1   2
BRANCH   1  20
ATOM     18  C   UNL     1      46.829   4.244  14.462  0.00  0.00    +0.000 C 
ATOM     19  O   UNL     1      47.231   3.188  13.968  0.00  0.00    +0.000 OA
ATOM     20  N   UNL     1      46.817   4.424  15.826  0.00  0.00    +0.000 N 
ATOM     21  H   UNL     1      46.531   5.312  16.217  0.00  0.00    +0.000 HD
BRANCH  18  29
ATOM     22  C   UNL     1      43.954   4.781  12.628  0.00  0.00    +0.000 A 
ATOM     23  N   UNL     1      42.971   5.239  11.828  0.00  0.00    +0.000 NA
ATOM     24  C   UNL     1      43.116   6.437  11.260  0.00  0.00    +0.000 A 
ATOM     25  N   UNL     1      44.154   7.253  11.391  0.00  0.00    +0.000 NA
ATOM     26  C   UNL     1      45.119   6.758  12.184  0.00  0.00    +0.000 A 
ATOM     27  S   UNL     1      46.522   7.672  12.454  0.00  0.00    +0.000 S 
ATOM     28  C   UNL     1      47.175   6.466  13.457  0.00  0.00    +0.000 A 
ATOM     29  C   UNL     1      46.349   5.353  13.616  0.00  0.00    +0.000 A 
ATOM     30  C   UNL     1      45.119   5.534  12.850  0.00  0.00    +0.000 A 
BRANCH  22  32
ATOM     31  C   UNL     1      43.549   2.508  12.285  0.00  0.00    +0.000 C 
ATOM     32  O   UNL     1      43.769   3.553  13.234  0.00  0.00    +0.000 OA
ENDBRANCH  22  32
ENDBRANCH  18  29
ENDBRANCH   1  20
TORSDOF 8
ENDMDL
MODEL 9
REMARK VINA RESULT:    -6.571      3.135      5.116
REMARK INTER + INTRA:         -10.952
REMARK INTER:                  -9.420
REMARK INTRA:                  -1.532
REMARK UNBOUND:                -1.308
REMARK  Name = 
REMARK  9 active torsions:
REMARK  status: ('A' for Active; 'I' for Inactive)
REMARK    1  A    between atoms: C_1  and  O_2
REMARK    2  A    between atoms: O_2  and  C_3
REMARK    3  A    between atoms: C_10  and  C_11
REMARK    4  A    between atoms: N_13  and  C_14
REMARK    5  A    between atoms: C_14  and  C_15
REMARK    6  A    between atoms: C_18  and  C_19
REMARK    7  A    between atoms: C_19  and  N_20
REMARK    8  A    between atoms: N_20  and  C_21
REMARK    9  A    between atoms: C_21  and  C_22
REMARK                            x       y       z     vdW  Elec       q    Type
REMARK                         _______ _______ _______ _____ _____    ______ ____
ROOT
ATOM      1  C   UNL     1      47.647   3.378  17.142  0.00  0.00    +0.000 C 
ENDROOT
BRANCH   1   2
ATOM      2  C   UNL     1      47.572   4.256  15.919  0.00  0.00    +0.000 A 
ATOM      3  C   UNL     1      48.217   5.500  15.890  0.00  0.00    +0.000 A 
ATOM      4  C   UNL     1      48.086   6.353  14.783  0.00  0.00    +0.000 A 
ATOM      5  C   UNL     1      47.324   5.977  13.667  0.00  0.00    +0.000 A 
ATOM      6  C   UNL     1      46.710   4.716  13.684  0.00  0.00    +0.000 A 
ATOM      7  C   UNL     1      46.823   3.872  14.799  0.00  0.00    +0.000 A 
BRANCH   5   8
ATOM      8  C   UNL     1      47.123   6.920  12.494  0.00  0.00    +0.000 C 
BRANCH   8   9
ATOM      9  N   UNL     1      45.718   7.286  12.310  0.00  0.00    +0.000 NA
ATOM     10  H   UNL     1      45.627   8.294  12.441  0.00  0.00    +0.000 HD
BRANCH   9  11
ATOM     11  C   UNL     1      45.229   6.943  10.972  0.00  0.00    +0.000 C 
BRANCH  11  12
ATOM     12  C   UNL     1      44.621   5.557  10.949  0.00  0.00    +0.000 A 
ATOM     13  C   UNL     1      45.069   4.589  10.043  0.00  0.00    +0.000 A 
ATOM     14  C   UNL     1      44.476   3.337  10.055  0.00  0.00    +0.000 A 
ATOM     15  N   UNL     1      43.481   2.978  10.895  0.00  0.00    +0.000 NA
ATOM     16  C   UNL     1      43.066   3.920  11.767  0.00  0.00    +0.000 A 
ATOM     17  C   UNL     1      43.600   5.198  11.836  0.00  0.00    +0.000 A 
ENDBRANCH  11  12
ENDBRANCH   9  11
ENDBRANCH   8   9
ENDBRANCH   5   8
ENDBRANCH   1   2
BRANCH   1  20
ATOM     18  C   UNL     1      49.883   2.342  16.963  0.00  0.00    +0.000 C 
ATOM     19  O   UNL     1      49.520   1.674  15.993  0.00  0.00    +0.000 OA
ATOM     20  N   UNL     1      49.012   3.202  17.592  0.00  0.00    +0.000 N 
ATOM     21  H   UNL     1      49.307   3.709  18.417  0.00  0.00    +0.000 HD
BRANCH  18  29
ATOM     22  C   UNL     1      52.135   4.650  18.197  0.00  0.00    +0.000 A 
ATOM     23  N   UNL     1      53.197   5.316  18.692  0.00  0.00    +0.000 NA
ATOM     24  C   UNL     1      54.294   4.626  19.008  0.00  0.00    +0.000 A 
ATOM     25  N   UNL     1      54.467   3.317  18.881  0.00  0.00    +0.000 NA
ATOM     26  C   UNL     1      53.394   2.688  18.374  0.00  0.00    +0.000 A 
ATOM     27  S   UNL     1      53.449   1.009  18.139  0.00  0.00    +0.000 S 
ATOM     28  C   UNL     1      51.865   0.992  17.525  0.00  0.00    +0.000 A 
ATOM     29  C   UNL     1      51.258   2.248  17.489  0.00  0.00    +0.000 A 
ATOM     30  C   UNL     1      52.180   3.259  17.999  0.00  0.00    +0.000 A 
BRANCH  22  32
ATOM     31  C   UNL     1      50.532   6.126  19.032  0.00  0.00    +0.000 C 
ATOM     32  O   UNL     1      50.997   5.378  17.908  0.00  0.00    +0.000 OA
ENDBRANCH  22  32
ENDBRANCH  18  29
ENDBRANCH   1  20
TORSDOF 8
ENDMDL
