MODEL 1
REMARK VINA RESULT:    -9.303      0.000      0.000
REMARK INTER + INTRA:         -12.084
REMARK INTER:                 -11.478
REMARK INTRA:                  -0.606
REMARK UNBOUND:                -0.606
REMARK  Name = 
REMARK  5 active torsions:
REMARK  status: ('A' for Active; 'I' for Inactive)
REMARK    1  A    between atoms: C_1  and  C_2
REMARK    2  A    between atoms: C_12  and  C_13
REMARK    3  A    between atoms: C_13  and  N_14
REMARK    4  A    between atoms: N_14  and  C_15
REMARK    5  A    between atoms: C_18  and  C_19
REMARK                            x       y       z     vdW  Elec       q    Type
REMARK                         _______ _______ _______ _____ _____    ______ ____
ROOT
ATOM      1  C   UNL     1      43.984   4.850  11.486  0.00  0.00    +0.000 C 
ATOM      2  C   UNL     1      43.388   6.249  11.431  0.00  0.00    +0.000 C 
ATOM      3  C   UNL     1      42.725   5.215  12.276  0.00  0.00    +0.000 C 
ENDROOT
BRANCH   1  15
ATOM      4  C   UNL     1      48.230   7.393  11.465  0.00  0.00    +0.000 C 
ATOM      5  C   UNL     1      48.755   7.263  12.892  0.00  0.00    +0.000 C 
ATOM      6  C   UNL     1      49.031   8.683  13.461  0.00  0.00    +0.000 C 
ATOM      7  O   UNL     1      49.578   8.633  14.791  0.00  0.00    +0.000 OA
ATOM      8  C   UNL     1      48.672   7.959  15.678  0.00  0.00    +0.000 C 
ATOM      9  C   UNL     1      48.427   6.521  15.209  0.00  0.00    +0.000 C 
ATOM     10  N   UNL     1      47.858   6.552  13.847  0.00  0.00    +0.000 N 
ATOM     11  C   UNL     1      47.118   5.450  13.435  0.00  0.00    +0.000 A 
ATOM     12  C   UNL     1      47.296   4.178  13.959  0.00  0.00    +0.000 A 
ATOM     13  N   UNL     1      46.496   3.142  13.647  0.00  0.00    +0.000 NA
ATOM     14  N   UNL     1      45.465   3.377  12.817  0.00  0.00    +0.000 NA
ATOM     15  C   UNL     1      45.263   4.627  12.325  0.00  0.00    +0.000 A 
ATOM     16  N   UNL     1      46.091   5.668  12.590  0.00  0.00    +0.000 NA
ENDBRANCH   1  15
BRANCH   1  17
ATOM     17  N   UNL     1      43.759   3.866  10.394  0.00  0.00    +0.000 N 
ATOM     18  H   UNL     1      43.182   3.069  10.656  0.00  0.00    +0.000 HD
BRANCH  17  19
ATOM     19  C   UNL     1      44.751   3.513   9.455  0.00  0.00    +0.000 A 
ATOM     20  C   UNL     1      45.067   2.159   9.280  0.00  0.00    +0.000 A 
ATOM     21  C   UNL     1      45.964   1.762   8.289  0.00  0.00    +0.000 A 
ATOM     22  C   UNL     1      46.508   2.744   7.475  0.00  0.00    +0.000 A 
ATOM     23  N   UNL     1      46.219   4.068   7.588  0.00  0.00    +0.000 NA
ATOM     24  C   UNL     1      45.346   4.408   8.565  0.00  0.00    +0.000 A 
BRANCH  22  25
ATOM     25  C   UNL     1      47.470   2.380   6.394  0.00  0.00    +0.000 C 
ATOM     26  N   UNL     1      47.416   3.182   5.286  0.00  0.00    +0.000 N 
ATOM     27  O   UNL     1      48.245   1.439   6.479  0.00  0.00    +0.000 OA
ATOM     28  H   UNL     1      46.747   3.944   5.265  0.00  0.00    +0.000 HD
ATOM     29  H   UNL     1      48.031   3.004   4.507  0.00  0.00    +0.000 HD
ENDBRANCH  22  25
ENDBRANCH  17  19
ENDBRANCH   1  17
TORSDOF 4
ENDMDL
MODEL 2
REMARK VINA RESULT:    -7.628      1.458      2.480
REMARK INTER + INTRA:         -10.017
REMARK INTER:                 -10.070
REMARK INTRA:                   0.053
REMARK UNBOUND:                -0.606
REMARK  Name = 
REMARK  5 active torsions:
REMARK  status: ('A' for Active; 'I' for Inactive)
REMARK    1  A    between atoms: C_1  and  C_2
REMARK    2  A    between atoms: C_12  and  C_13
REMARK    3  A    between atoms: C_13  and  N_14
REMARK    4  A    between atoms: N_14  and  C_15
REMARK    5  A    between atoms: C_18  and  C_19
REMARK                            x       y       z     vdW  Elec       q    Type
REMARK                         _______ _______ _______ _____ _____    ______ ____
ROOT
ATOM      1  C   UNL     1      44.319   4.311  11.663  0.00  0.00    +0.000 C 
ATOM      2  C   UNL     1      43.730   3.617  12.883  0.00  0.00    +0.000 C 
ATOM      3  C   UNL     1      45.124   3.289  12.470  0.00  0.00    +0.000 C 
ENDROOT
BRANCH   1  15
ATOM      4  C   UNL     1      47.822   6.256  14.566  0.00  0.00    +0.000 C 
ATOM      5  C   UNL     1      48.337   7.461  13.782  0.00  0.00    +0.000 C 
ATOM      6  C   UNL     1      49.880   7.348  13.638  0.00  0.00    +0.000 C 
ATOM      7  O   UNL     1      50.440   8.481  12.949  0.00  0.00    +0.000 OA
ATOM      8  C   UNL     1      49.871   8.598  11.636  0.00  0.00    +0.000 C 
ATOM      9  C   UNL     1      48.353   8.794  11.721  0.00  0.00    +0.000 C 
ATOM     10  N   UNL     1      47.760   7.637  12.419  0.00  0.00    +0.000 N 
ATOM     11  C   UNL     1      46.420   7.360  12.177  0.00  0.00    +0.000 A 
ATOM     12  C   UNL     1      45.507   8.325  11.776  0.00  0.00    +0.000 A 
ATOM     13  N   UNL     1      44.241   8.030  11.425  0.00  0.00    +0.000 NA
ATOM     14  N   UNL     1      43.875   6.737  11.438  0.00  0.00    +0.000 NA
ATOM     15  C   UNL     1      44.771   5.782  11.799  0.00  0.00    +0.000 A 
ATOM     16  N   UNL     1      46.033   6.069  12.204  0.00  0.00    +0.000 NA
ENDBRANCH   1  15
BRANCH   1  17
ATOM     17  N   UNL     1      43.983   3.873  10.282  0.00  0.00    +0.000 N 
ATOM     18  H   UNL     1      43.145   3.300  10.212  0.00  0.00    +0.000 HD
BRANCH  17  19
ATOM     19  C   UNL     1      44.956   3.504   9.330  0.00  0.00    +0.000 A 
ATOM     20  C   UNL     1      45.236   2.144   9.140  0.00  0.00    +0.000 A 
ATOM     21  C   UNL     1      46.113   1.733   8.137  0.00  0.00    +0.000 A 
ATOM     22  C   UNL     1      46.674   2.709   7.326  0.00  0.00    +0.000 A 
ATOM     23  N   UNL     1      46.419   4.038   7.452  0.00  0.00    +0.000 NA
ATOM     24  C   UNL     1      45.565   4.392   8.442  0.00  0.00    +0.000 A 
BRANCH  22  25
ATOM     25  C   UNL     1      47.615   2.331   6.232  0.00  0.00    +0.000 C 
ATOM     26  N   UNL     1      47.526   3.105   5.106  0.00  0.00    +0.000 N 
ATOM     27  O   UNL     1      48.403   1.401   6.321  0.00  0.00    +0.000 OA
ATOM     28  H   UNL     1      46.847   3.857   5.083  0.00  0.00    +0.000 HD
ATOM     29  H   UNL     1      48.125   2.915   4.318  0.00  0.00    +0.000 HD
ENDBRANCH  22  25
ENDBRANCH  17  19
ENDBRANCH   1  17
TORSDOF 4
ENDMDL
MODEL 3
REMARK VINA RESULT:    -7.145      2.102      7.520
REMARK INTER + INTRA:          -9.421
REMARK INTER:                  -8.789
REMARK INTRA:                  -0.632
REMARK UNBOUND:                -0.606
REMARK  Name = 
REMARK  5 active torsions:
REMARK  status: ('A' for Active; 'I' for Inactive)
REMARK    1  A    between atoms: C_1  and  C_2
REMARK    2  A    between atoms: C_12  and  C_13
REMARK    3  A    between atoms: C_13  and  N_14
REMARK    4  A    between atoms: N_14  and  C_15
REMARK    5  A    between atoms: C_18  and  C_19
REMARK                            x       y       z     vdW  Elec       q    Type
REMARK                         _______ _______ _______ _____ _____    ______ ____
ROOT
ATOM      1  C   UNL     1      45.615   5.792  12.057  0.00  0.00    +0.000 C 
ATOM      2  C   UNL     1      44.692   6.712  12.844  0.00  0.00    +0.000 C 
ATOM      3  C   UNL     1      45.310   7.216  11.584  0.00  0.00    +0.000 C 
ENDROOT
BRANCH   1  15
ATOM      4  C   UNL     1      46.362   4.613   7.309  0.00  0.00    +0.000 C 
ATOM      5  C   UNL     1      46.142   3.103   7.256  0.00  0.00    +0.000 C 
ATOM      6  C   UNL     1      47.389   2.433   6.615  0.00  0.00    +0.000 C 
ATOM      7  O   UNL     1      47.229   1.008   6.487  0.00  0.00    +0.000 OA
ATOM      8  C   UNL     1      47.009   0.414   7.775  0.00  0.00    +0.000 C 
ATOM      9  C   UNL     1      45.741   0.980   8.422  0.00  0.00    +0.000 C 
ATOM     10  N   UNL     1      45.890   2.442   8.568  0.00  0.00    +0.000 N 
ATOM     11  C   UNL     1      45.123   3.071   9.541  0.00  0.00    +0.000 A 
ATOM     12  C   UNL     1      43.917   2.563  10.002  0.00  0.00    +0.000 A 
ATOM     13  N   UNL     1      43.239   3.110  11.028  0.00  0.00    +0.000 NA
ATOM     14  N   UNL     1      43.788   4.172  11.643  0.00  0.00    +0.000 NA
ATOM     15  C   UNL     1      44.985   4.656  11.220  0.00  0.00    +0.000 A 
ATOM     16  N   UNL     1      45.653   4.148  10.155  0.00  0.00    +0.000 NA
ENDBRANCH   1  15
BRANCH   1  17
ATOM     17  N   UNL     1      47.027   5.572  12.468  0.00  0.00    +0.000 N 
ATOM     18  H   UNL     1      47.628   5.203  11.734  0.00  0.00    +0.000 HD
BRANCH  17  19
ATOM     19  C   UNL     1      47.396   5.093  13.743  0.00  0.00    +0.000 A 
ATOM     20  C   UNL     1      47.928   5.992  14.676  0.00  0.00    +0.000 A 
ATOM     21  C   UNL     1      48.205   5.582  15.979  0.00  0.00    +0.000 A 
ATOM     22  C   UNL     1      47.916   4.269  16.321  0.00  0.00    +0.000 A 
ATOM     23  N   UNL     1      47.379   3.363  15.461  0.00  0.00    +0.000 NA
ATOM     24  C   UNL     1      47.130   3.804  14.206  0.00  0.00    +0.000 A 
BRANCH  22  25
ATOM     25  C   UNL     1      48.186   3.772  17.702  0.00  0.00    +0.000 C 
ATOM     26  N   UNL     1      47.268   2.875  18.178  0.00  0.00    +0.000 N 
ATOM     27  O   UNL     1      49.145   4.136  18.366  0.00  0.00    +0.000 OA
ATOM     28  H   UNL     1      46.486   2.615  17.587  0.00  0.00    +0.000 HD
ATOM     29  H   UNL     1      47.374   2.491  19.104  0.00  0.00    +0.000 HD
ENDBRANCH  22  25
ENDBRANCH  17  19
ENDBRANCH   1  17
TORSDOF 4
ENDMDL
MODEL 4
REMARK VINA RESULT:    -6.979      3.259      5.673
REMARK INTER + INTRA:          -9.217
REMARK INTER:                  -8.703
REMARK INTRA:                  -0.513
REMARK UNBOUND:                -0.606
REMARK  Name = 
REMARK  5 active torsions:
REMARK  status: ('A' for Active; 'I' for Inactive)
REMARK    1  A    between atoms: C_1  and  C_2
REMARK    2  A    between atoms: C_12  and  C_13
REMARK    3  A    between atoms: C_13  and  N_14
REMARK    4  A    between atoms: N_14  and  C_15
REMARK    5  A    between atoms: C_18  and  C_19
REMARK                            x       y       z     vdW  Elec       q    Type
REMARK                         _______ _______ _______ _____ _____    ______ ____
ROOT
ATOM      1  C   UNL     1      48.038   7.438  13.611  0.00  0.00    +0.000 C 
ATOM      2  C   UNL     1      49.001   7.101  12.481  0.00  0.00    +0.000 C 
ATOM      3  C   UNL     1      48.792   8.530  12.848  0.00  0.00    +0.000 C 
ENDROOT
BRANCH   1  15
ATOM      4  C   UNL     1      47.897   3.280  16.291  0.00  0.00    +0.000 C 
ATOM      5  C   UNL     1      49.085   3.403  17.240  0.00  0.00    +0.000 C 
ATOM      6  C   UNL     1      49.975   2.136  17.101  0.00  0.00    +0.000 C 
ATOM      7  O   UNL     1      51.093   2.161  18.008  0.00  0.00    +0.000 OA
ATOM      8  C   UNL     1      51.909   3.316  17.762  0.00  0.00    +0.000 C 
ATOM      9  C   UNL     1      51.101   4.602  17.965  0.00  0.00    +0.000 C 
ATOM     10  N   UNL     1      49.953   4.598  17.037  0.00  0.00    +0.000 N 
ATOM     11  C   UNL     1      49.397   5.825  16.698  0.00  0.00    +0.000 A 
ATOM     12  C   UNL     1      49.479   6.946  17.512  0.00  0.00    +0.000 A 
ATOM     13  N   UNL     1      49.048   8.161  17.126  0.00  0.00    +0.000 NA
ATOM     14  N   UNL     1      48.551   8.281  15.883  0.00  0.00    +0.000 NA
ATOM     15  C   UNL     1      48.497   7.197  15.067  0.00  0.00    +0.000 A 
ATOM     16  N   UNL     1      48.880   5.957  15.460  0.00  0.00    +0.000 NA
ENDBRANCH   1  15
BRANCH   1  17
ATOM     17  N   UNL     1      46.566   7.449  13.400  0.00  0.00    +0.000 N 
ATOM     18  H   UNL     1      46.041   7.953  14.111  0.00  0.00    +0.000 HD
BRANCH  17  19
ATOM     19  C   UNL     1      45.849   6.341  12.900  0.00  0.00    +0.000 A 
ATOM     20  C   UNL     1      45.406   6.366  11.572  0.00  0.00    +0.000 A 
ATOM     21  C   UNL     1      44.787   5.250  11.009  0.00  0.00    +0.000 A 
ATOM     22  C   UNL     1      44.650   4.117  11.798  0.00  0.00    +0.000 A 
ATOM     23  N   UNL     1      45.083   4.033  13.084  0.00  0.00    +0.000 NA
ATOM     24  C   UNL     1      45.674   5.141  13.591  0.00  0.00    +0.000 A 
BRANCH  22  25
ATOM     25  C   UNL     1      44.001   2.890  11.250  0.00  0.00    +0.000 C 
ATOM     26  N   UNL     1      44.581   2.394  10.114  0.00  0.00    +0.000 N 
ATOM     27  O   UNL     1      43.025   2.365  11.765  0.00  0.00    +0.000 OA
ATOM     28  H   UNL     1      45.384   2.875   9.724  0.00  0.00    +0.000 HD
ATOM     29  H   UNL     1      44.203   1.568   9.677  0.00  0.00    +0.000 HD
ENDBRANCH  22  25
ENDBRANCH  17  19
ENDBRANCH   1  17
TORSDOF 4
ENDMDL
MODEL 5
REMARK VINA RESULT:    -6.636      4.673      8.317
REMARK INTER + INTRA:          -8.794
REMARK INTER:                  -8.535
REMARK INTRA:                  -0.259
REMARK UNBOUND:                -0.606
REMARK  Name = 
REMARK  5 active torsions:
REMARK  status: ('A' for Active; 'I' for Inactive)
REMARK    1  A    between atoms: C_1  and  C_2
REMARK    2  A    between atoms: C_12  and  C_13
REMARK    3  A    between atoms: C_13  and  N_14
REMARK    4  A    between atoms: N_14  and  C_15
REMARK    5  A    between atoms: C_18  and  C_19
REMARK                            x       y       z     vdW  Elec       q    Type
REMARK                         _______ _______ _______ _____ _____    ______ ____
ROOT
ATOM      1  C   UNL     1      48.338   4.734  17.211  0.00  0.00    +0.000 C 
ATOM      2  C   UNL     1      47.207   3.772  17.542  0.00  0.00    +0.000 C 
ATOM      3  C   UNL     1      47.168   5.152  18.105  0.00  0.00    +0.000 C 
ENDROOT
BRANCH   1  15
ATOM      4  C   UNL     1      46.152   3.240  13.030  0.00  0.00    +0.000 C 
ATOM      5  C   UNL     1      45.883   4.532  12.263  0.00  0.00    +0.000 C 
ATOM      6  C   UNL     1      44.375   4.593  11.888  0.00  0.00    +0.000 C 
ATOM      7  O   UNL     1      44.059   5.766  11.116  0.00  0.00    +0.000 OA
ATOM      8  C   UNL     1      44.390   6.952  11.854  0.00  0.00    +0.000 C 
ATOM      9  C   UNL     1      45.887   6.985  12.180  0.00  0.00    +0.000 C 
ATOM     10  N   UNL     1      46.229   5.792  12.979  0.00  0.00    +0.000 N 
ATOM     11  C   UNL     1      47.361   5.861  13.782  0.00  0.00    +0.000 A 
ATOM     12  C   UNL     1      48.429   6.706  13.518  0.00  0.00    +0.000 A 
ATOM     13  N   UNL     1      49.466   6.858  14.362  0.00  0.00    +0.000 NA
ATOM     14  N   UNL     1      49.430   6.181  15.522  0.00  0.00    +0.000 NA
ATOM     15  C   UNL     1      48.373   5.376  15.805  0.00  0.00    +0.000 A 
ATOM     16  N   UNL     1      47.347   5.173  14.942  0.00  0.00    +0.000 NA
ENDBRANCH   1  15
BRANCH   1  17
ATOM     17  N   UNL     1      49.649   4.663  17.911  0.00  0.00    +0.000 N 
ATOM     18  H   UNL     1      50.120   5.559  18.020  0.00  0.00    +0.000 HD
BRANCH  17  19
ATOM     19  C   UNL     1      50.564   3.604  17.731  0.00  0.00    +0.000 A 
ATOM     20  C   UNL     1      51.894   3.783  18.134  0.00  0.00    +0.000 A 
ATOM     21  C   UNL     1      52.803   2.728  18.072  0.00  0.00    +0.000 A 
ATOM     22  C   UNL     1      52.341   1.500  17.623  0.00  0.00    +0.000 A 
ATOM     23  N   UNL     1      51.057   1.266  17.242  0.00  0.00    +0.000 NA
ATOM     24  C   UNL     1      50.210   2.320  17.315  0.00  0.00    +0.000 A 
BRANCH  22  25
ATOM     25  C   UNL     1      53.265   0.331  17.539  0.00  0.00    +0.000 C 
ATOM     26  N   UNL     1      53.047  -0.641  18.478  0.00  0.00    +0.000 N 
ATOM     27  O   UNL     1      54.153   0.242  16.704  0.00  0.00    +0.000 OA
ATOM     28  H   UNL     1      52.301  -0.510  19.153  0.00  0.00    +0.000 HD
ATOM     29  H   UNL     1      53.628  -1.464  18.494  0.00  0.00    +0.000 HD
ENDBRANCH  22  25
ENDBRANCH  17  19
ENDBRANCH   1  17
TORSDOF 4
ENDMDL
