MODEL 1
REMARK VINA RESULT:    -8.254      0.000      0.000
REMARK INTER + INTRA:         -12.102
REMARK INTER:                 -11.149
REMARK INTRA:                  -0.953
REMARK UNBOUND:                -0.953
REMARK  Name = 
REMARK  7 active torsions:
REMARK  status: ('A' for Active; 'I' for Inactive)
REMARK    1  A    between atoms: C_1  and  O_2
REMARK    2  A    between atoms: O_2  and  C_3
REMARK    3  A    between atoms: C_5  and  C_6
REMARK    4  A    between atoms: N_11  and  C_12
REMARK    5  A    between atoms: C_12  and  C_13
REMARK    6  A    between atoms: C_17  and  C_18
REMARK    7  A    between atoms: C_22  and  C_23
REMARK                            x       y       z     vdW  Elec       q    Type
REMARK                         _______ _______ _______ _____ _____    ______ ____
ROOT
ATOM      1  C   UNL     1      48.947   6.780  14.946  0.00  0.00    +0.000 C 
ENDROOT
BRANCH   1   7
ATOM      2  C   UNL     1      48.530   4.909  19.242  0.00  0.00    +0.000 A 
ATOM      3  C   UNL     1      48.956   3.673  18.852  0.00  0.00    +0.000 A 
ATOM      4  C   UNL     1      49.264   3.581  17.521  0.00  0.00    +0.000 A 
ATOM      5  N   UNL     1      49.138   4.597  16.628  0.00  0.00    +0.000 NA
ATOM      6  C   UNL     1      48.698   5.756  17.119  0.00  0.00    +0.000 A 
ATOM      7  N   UNL     1      48.456   6.831  16.296  0.00  0.00    +0.000 N 
ATOM      8  N   UNL     1      48.427   5.960  18.410  0.00  0.00    +0.000 NA
ATOM      9  H   UNL     1      48.565   7.696  16.810  0.00  0.00    +0.000 HD
BRANCH   4  10
ATOM     10  C   UNL     1      49.781   2.284  16.985  0.00  0.00    +0.000 C 
ATOM     11  N   UNL     1      50.794   1.709  17.710  0.00  0.00    +0.000 N 
ATOM     12  O   UNL     1      49.334   1.758  15.979  0.00  0.00    +0.000 OA
ATOM     13  H   UNL     1      51.147   2.167  18.542  0.00  0.00    +0.000 HD
ATOM     14  H   UNL     1      51.190   0.831  17.401  0.00  0.00    +0.000 HD
ENDBRANCH   4  10
BRANCH   2  16
ATOM     15  C   UNL     1      47.383   6.211  20.809  0.00  0.00    +0.000 C 
ATOM     16  O   UNL     1      48.184   5.056  20.569  0.00  0.00    +0.000 OA
ENDBRANCH   2  16
ENDBRANCH   1   7
BRANCH   1  17
ATOM     17  C   UNL     1      47.794   6.966  13.986  0.00  0.00    +0.000 A 
ATOM     18  C   UNL     1      47.489   8.232  13.475  0.00  0.00    +0.000 A 
ATOM     19  C   UNL     1      46.440   8.388  12.572  0.00  0.00    +0.000 A 
ATOM     20  C   UNL     1      45.688   7.281  12.174  0.00  0.00    +0.000 A 
ATOM     21  C   UNL     1      45.956   5.993  12.671  0.00  0.00    +0.000 A 
ATOM     22  C   UNL     1      47.007   5.865  13.598  0.00  0.00    +0.000 A 
BRANCH  21  23
ATOM     23  C   UNL     1      45.190   4.818  12.209  0.00  0.00    +0.000 A 
ATOM     24  C   UNL     1      44.199   4.229  12.996  0.00  0.00    +0.000 A 
ATOM     25  N   UNL     1      43.445   3.160  12.636  0.00  0.00    +0.000 NA
ATOM     26  C   UNL     1      43.674   2.639  11.412  0.00  0.00    +0.000 A 
ATOM     27  C   UNL     1      44.622   3.133  10.532  0.00  0.00    +0.000 A 
ATOM     28  C   UNL     1      45.386   4.235  10.947  0.00  0.00    +0.000 A 
BRANCH  27  29
ATOM     29  C   UNL     1      44.810   2.513   9.183  0.00  0.00    +0.000 C 
ATOM     30  F   UNL     1      46.115   2.349   8.832  0.00  0.00    +0.000 F 
ATOM     31  F   UNL     1      44.244   1.277   9.098  0.00  0.00    +0.000 F 
ATOM     32  F   UNL     1      44.246   3.250   8.187  0.00  0.00    +0.000 F 
ENDBRANCH  27  29
ENDBRANCH  21  23
ENDBRANCH   1  17
TORSDOF 6
ENDMDL
MODEL 2
REMARK VINA RESULT:    -7.843      1.594      1.749
REMARK INTER + INTRA:         -11.548
REMARK INTER:                 -10.631
REMARK INTRA:                  -0.917
REMARK UNBOUND:                -0.953
REMARK  Name = 
REMARK  7 active torsions:
REMARK  status: ('A' for Active; 'I' for Inactive)
REMARK    1  A    between atoms: C_1  and  O_2
REMARK    2  A    between atoms: O_2  and  C_3
REMARK    3  A    between atoms: C_5  and  C_6
REMARK    4  A    between atoms: N_11  and  C_12
REMARK    5  A    between atoms: C_12  and  C_13
REMARK    6  A    between atoms: C_17  and  C_18
REMARK    7  A    between atoms: C_22  and  C_23
REMARK                            x       y       z     vdW  Elec       q    Type
REMARK                         _______ _______ _______ _____ _____    ______ ____
ROOT
ATOM      1  C   UNL     1      49.058   7.204  13.809  0.00  0.00    +0.000 C 
ENDROOT
BRANCH   1   7
ATOM      2  C   UNL     1      48.993   6.415  18.447  0.00  0.00    +0.000 A 
ATOM      3  C   UNL     1      48.629   5.106  18.318  0.00  0.00    +0.000 A 
ATOM      4  C   UNL     1      48.466   4.695  17.022  0.00  0.00    +0.000 A 
ATOM      5  N   UNL     1      48.612   5.496  15.934  0.00  0.00    +0.000 NA
ATOM      6  C   UNL     1      48.956   6.761  16.181  0.00  0.00    +0.000 A 
ATOM      7  N   UNL     1      49.055   7.682  15.164  0.00  0.00    +0.000 N 
ATOM      8  N   UNL     1      49.193   7.240  17.404  0.00  0.00    +0.000 NA
ATOM      9  H   UNL     1      49.713   8.409  15.415  0.00  0.00    +0.000 HD
BRANCH   4  10
ATOM     10  C   UNL     1      48.106   3.268  16.754  0.00  0.00    +0.000 C 
ATOM     11  N   UNL     1      47.040   2.785  17.472  0.00  0.00    +0.000 N 
ATOM     12  O   UNL     1      48.704   2.575  15.948  0.00  0.00    +0.000 OA
ATOM     13  H   UNL     1      46.562   3.382  18.134  0.00  0.00    +0.000 HD
ATOM     14  H   UNL     1      46.746   1.827  17.338  0.00  0.00    +0.000 HD
ENDBRANCH   4  10
BRANCH   2  16
ATOM     15  C   UNL     1      47.925   7.326  20.315  0.00  0.00    +0.000 C 
ATOM     16  O   UNL     1      49.151   6.892  19.731  0.00  0.00    +0.000 OA
ENDBRANCH   2  16
ENDBRANCH   1   7
BRANCH   1  17
ATOM     17  C   UNL     1      47.668   7.335  13.228  0.00  0.00    +0.000 A 
ATOM     18  C   UNL     1      46.924   8.504  13.417  0.00  0.00    +0.000 A 
ATOM     19  C   UNL     1      45.655   8.624  12.857  0.00  0.00    +0.000 A 
ATOM     20  C   UNL     1      45.119   7.577  12.105  0.00  0.00    +0.000 A 
ATOM     21  C   UNL     1      45.829   6.381  11.899  0.00  0.00    +0.000 A 
ATOM     22  C   UNL     1      47.101   6.276  12.493  0.00  0.00    +0.000 A 
BRANCH  21  23
ATOM     23  C   UNL     1      45.279   5.296  11.062  0.00  0.00    +0.000 A 
ATOM     24  C   UNL     1      44.117   4.608  11.418  0.00  0.00    +0.000 A 
ATOM     25  N   UNL     1      43.545   3.613  10.696  0.00  0.00    +0.000 NA
ATOM     26  C   UNL     1      44.149   3.276   9.537  0.00  0.00    +0.000 A 
ATOM     27  C   UNL     1      45.301   3.885   9.067  0.00  0.00    +0.000 A 
ATOM     28  C   UNL     1      45.867   4.904   9.849  0.00  0.00    +0.000 A 
BRANCH  27  29
ATOM     29  C   UNL     1      45.908   3.469   7.764  0.00  0.00    +0.000 C 
ATOM     30  F   UNL     1      46.804   4.365   7.265  0.00  0.00    +0.000 F 
ATOM     31  F   UNL     1      46.579   2.287   7.859  0.00  0.00    +0.000 F 
ATOM     32  F   UNL     1      44.976   3.291   6.788  0.00  0.00    +0.000 F 
ENDBRANCH  27  29
ENDBRANCH  21  23
ENDBRANCH   1  17
TORSDOF 6
ENDMDL
MODEL 3
REMARK VINA RESULT:    -7.381      2.039      2.978
REMARK INTER + INTRA:         -10.923
REMARK INTER:                  -9.892
REMARK INTRA:                  -1.031
REMARK UNBOUND:                -0.953
REMARK  Name = 
REMARK  7 active torsions:
REMARK  status: ('A' for Active; 'I' for Inactive)
REMARK    1  A    between atoms: C_1  and  O_2
REMARK    2  A    between atoms: O_2  and  C_3
REMARK    3  A    between atoms: C_5  and  C_6
REMARK    4  A    between atoms: N_11  and  C_12
REMARK    5  A    between atoms: C_12  and  C_13
REMARK    6  A    between atoms: C_17  and  C_18
REMARK    7  A    between atoms: C_22  and  C_23
REMARK                            x       y       z     vdW  Elec       q    Type
REMARK                         _______ _______ _______ _____ _____    ______ ____
ROOT
ATOM      1  C   UNL     1      49.445   8.316  15.802  0.00  0.00    +0.000 C 
ENDROOT
BRANCH   1   7
ATOM      2  C   UNL     1      50.876   4.127  17.395  0.00  0.00    +0.000 A 
ATOM      3  C   UNL     1      49.620   3.721  17.744  0.00  0.00    +0.000 A 
ATOM      4  C   UNL     1      48.642   4.645  17.490  0.00  0.00    +0.000 A 
ATOM      5  N   UNL     1      48.865   5.881  16.972  0.00  0.00    +0.000 NA
ATOM      6  C   UNL     1      50.133   6.175  16.683  0.00  0.00    +0.000 A 
ATOM      7  N   UNL     1      50.488   7.423  16.228  0.00  0.00    +0.000 N 
ATOM      8  N   UNL     1      51.147   5.321  16.840  0.00  0.00    +0.000 NA
ATOM      9  H   UNL     1      51.326   7.363  15.663  0.00  0.00    +0.000 HD
BRANCH   4  10
ATOM     10  C   UNL     1      47.219   4.297  17.793  0.00  0.00    +0.000 C 
ATOM     11  N   UNL     1      46.548   5.196  18.583  0.00  0.00    +0.000 N 
ATOM     12  O   UNL     1      46.679   3.291  17.363  0.00  0.00    +0.000 OA
ATOM     13  H   UNL     1      47.021   6.023  18.926  0.00  0.00    +0.000 HD
ATOM     14  H   UNL     1      45.582   5.018  18.826  0.00  0.00    +0.000 HD
ENDBRANCH   4  10
BRANCH   2  16
ATOM     15  C   UNL     1      51.529   1.883  17.452  0.00  0.00    +0.000 C 
ATOM     16  O   UNL     1      51.905   3.244  17.647  0.00  0.00    +0.000 OA
ENDBRANCH   2  16
ENDBRANCH   1   7
BRANCH   1  17
ATOM     17  C   UNL     1      49.177   8.106  14.329  0.00  0.00    +0.000 A 
ATOM     18  C   UNL     1      50.130   8.470  13.372  0.00  0.00    +0.000 A 
ATOM     19  C   UNL     1      49.883   8.249  12.020  0.00  0.00    +0.000 A 
ATOM     20  C   UNL     1      48.681   7.665  11.612  0.00  0.00    +0.000 A 
ATOM     21  C   UNL     1      47.693   7.294  12.541  0.00  0.00    +0.000 A 
ATOM     22  C   UNL     1      47.958   7.546  13.901  0.00  0.00    +0.000 A 
BRANCH  21  23
ATOM     23  C   UNL     1      46.446   6.631  12.111  0.00  0.00    +0.000 A 
ATOM     24  C   UNL     1      45.252   6.774  12.822  0.00  0.00    +0.000 A 
ATOM     25  N   UNL     1      44.067   6.211  12.483  0.00  0.00    +0.000 NA
ATOM     26  C   UNL     1      44.047   5.462  11.360  0.00  0.00    +0.000 A 
ATOM     27  C   UNL     1      45.159   5.246  10.562  0.00  0.00    +0.000 A 
ATOM     28  C   UNL     1      46.369   5.841  10.953  0.00  0.00    +0.000 A 
BRANCH  27  29
ATOM     29  C   UNL     1      45.060   4.416   9.321  0.00  0.00    +0.000 C 
ATOM     30  F   UNL     1      45.927   4.789   8.340  0.00  0.00    +0.000 F 
ATOM     31  F   UNL     1      45.312   3.098   9.559  0.00  0.00    +0.000 F 
ATOM     32  F   UNL     1      43.820   4.463   8.760  0.00  0.00    +0.000 F 
ENDBRANCH  27  29
ENDBRANCH  21  23
ENDBRANCH   1  17
TORSDOF 6
ENDMDL
MODEL 4
REMARK VINA RESULT:    -7.347      2.335      3.124
REMARK INTER + INTRA:         -10.878
REMARK INTER:                 -10.112
REMARK INTRA:                  -0.766
REMARK UNBOUND:                -0.953
REMARK  Name = 
REMARK  7 active torsions:
REMARK  status: ('A' for Active; 'I' for Inactive)
REMARK    1  A    between atoms: C_1  and  O_2
REMARK    2  A    between atoms: O_2  and  C_3
REMARK    3  A    between atoms: C_5  and  C_6
REMARK    4  A    between atoms: N_11  and  C_12
REMARK    5  A    between atoms: C_12  and  C_13
REMARK    6  A    between atoms: C_17  and  C_18
REMARK    7  A    between atoms: C_22  and  C_23
REMARK                            x       y       z     vdW  Elec       q    Type
REMARK                         _______ _______ _______ _____ _____    ______ ____
ROOT
ATOM      1  C   UNL     1      47.937   7.989  14.160  0.00  0.00    +0.000 C 
ENDROOT
BRANCH   1   7
ATOM      2  C   UNL     1      49.964   5.011  17.188  0.00  0.00    +0.000 A 
ATOM      3  C   UNL     1      51.197   5.584  17.077  0.00  0.00    +0.000 A 
ATOM      4  C   UNL     1      51.247   6.646  16.214  0.00  0.00    +0.000 A 
ATOM      5  N   UNL     1      50.192   7.098  15.487  0.00  0.00    +0.000 NA
ATOM      6  C   UNL     1      49.038   6.453  15.664  0.00  0.00    +0.000 A 
ATOM      7  N   UNL     1      47.924   6.771  14.925  0.00  0.00    +0.000 N 
ATOM      8  N   UNL     1      48.877   5.445  16.525  0.00  0.00    +0.000 NA
ATOM      9  H   UNL     1      47.084   6.542  15.442  0.00  0.00    +0.000 HD
BRANCH   4  10
ATOM     10  C   UNL     1      52.538   7.380  16.041  0.00  0.00    +0.000 C 
ATOM     11  N   UNL     1      53.515   6.701  15.356  0.00  0.00    +0.000 N 
ATOM     12  O   UNL     1      52.719   8.510  16.465  0.00  0.00    +0.000 OA
ATOM     13  H   UNL     1      53.338   5.765  15.015  0.00  0.00    +0.000 HD
ATOM     14  H   UNL     1      54.413   7.142  15.206  0.00  0.00    +0.000 HD
ENDBRANCH   4  10
BRANCH   2  16
ATOM     15  C   UNL     1      49.852   2.681  17.328  0.00  0.00    +0.000 C 
ATOM     16  O   UNL     1      49.858   3.923  18.028  0.00  0.00    +0.000 OA
ENDBRANCH   2  16
ENDBRANCH   1   7
BRANCH   1  17
ATOM     17  C   UNL     1      46.770   7.990  13.200  0.00  0.00    +0.000 A 
ATOM     18  C   UNL     1      46.069   9.172  12.933  0.00  0.00    +0.000 A 
ATOM     19  C   UNL     1      45.011   9.167  12.028  0.00  0.00    +0.000 A 
ATOM     20  C   UNL     1      44.644   7.984  11.382  0.00  0.00    +0.000 A 
ATOM     21  C   UNL     1      45.317   6.774  11.630  0.00  0.00    +0.000 A 
ATOM     22  C   UNL     1      46.369   6.799  12.565  0.00  0.00    +0.000 A 
BRANCH  21  23
ATOM     23  C   UNL     1      44.959   5.536  10.909  0.00  0.00    +0.000 A 
ATOM     24  C   UNL     1      43.897   4.726  11.318  0.00  0.00    +0.000 A 
ATOM     25  N   UNL     1      43.500   3.586  10.700  0.00  0.00    +0.000 NA
ATOM     26  C   UNL     1      44.186   3.220   9.598  0.00  0.00    +0.000 A 
ATOM     27  C   UNL     1      45.254   3.938   9.084  0.00  0.00    +0.000 A 
ATOM     28  C   UNL     1      45.638   5.108   9.757  0.00  0.00    +0.000 A 
BRANCH  27  29
ATOM     29  C   UNL     1      45.958   3.479   7.846  0.00  0.00    +0.000 C 
ATOM     30  F   UNL     1      46.577   2.273   7.983  0.00  0.00    +0.000 F 
ATOM     31  F   UNL     1      45.112   3.344   6.788  0.00  0.00    +0.000 F 
ATOM     32  F   UNL     1      46.924   4.349   7.442  0.00  0.00    +0.000 F 
ENDBRANCH  27  29
ENDBRANCH  21  23
ENDBRANCH   1  17
TORSDOF 6
ENDMDL
MODEL 5
REMARK VINA RESULT:    -7.337      2.213      3.296
REMARK INTER + INTRA:         -10.864
REMARK INTER:                 -10.346
REMARK INTRA:                  -0.518
REMARK UNBOUND:                -0.953
REMARK  Name = 
REMARK  7 active torsions:
REMARK  status: ('A' for Active; 'I' for Inactive)
REMARK    1  A    between atoms: C_1  and  O_2
REMARK    2  A    between atoms: O_2  and  C_3
REMARK    3  A    between atoms: C_5  and  C_6
REMARK    4  A    between atoms: N_11  and  C_12
REMARK    5  A    between atoms: C_12  and  C_13
REMARK    6  A    between atoms: C_17  and  C_18
REMARK    7  A    between atoms: C_22  and  C_23
REMARK                            x       y       z     vdW  Elec       q    Type
REMARK                         _______ _______ _______ _____ _____    ______ ____
ROOT
ATOM      1  C   UNL     1      49.821   8.087  15.993  0.00  0.00    +0.000 C 
ENDROOT
BRANCH   1   7
ATOM      2  C   UNL     1      50.902   3.760  17.492  0.00  0.00    +0.000 A 
ATOM      3  C   UNL     1      49.612   3.440  17.804  0.00  0.00    +0.000 A 
ATOM      4  C   UNL     1      48.711   4.442  17.559  0.00  0.00    +0.000 A 
ATOM      5  N   UNL     1      49.037   5.672  17.081  0.00  0.00    +0.000 NA
ATOM      6  C   UNL     1      50.329   5.878  16.825  0.00  0.00    +0.000 A 
ATOM      7  N   UNL     1      50.786   7.108  16.413  0.00  0.00    +0.000 N 
ATOM      8  N   UNL     1      51.273   4.945  16.976  0.00  0.00    +0.000 NA
ATOM      9  H   UNL     1      51.628   7.000  15.862  0.00  0.00    +0.000 HD
BRANCH   4  10
ATOM     10  C   UNL     1      47.260   4.193  17.824  0.00  0.00    +0.000 C 
ATOM     11  N   UNL     1      46.618   5.168  18.545  0.00  0.00    +0.000 N 
ATOM     12  O   UNL     1      46.675   3.202  17.422  0.00  0.00    +0.000 OA
ATOM     13  H   UNL     1      47.128   5.981  18.867  0.00  0.00    +0.000 HD
ATOM     14  H   UNL     1      45.636   5.060  18.760  0.00  0.00    +0.000 HD
ENDBRANCH   4  10
BRANCH   2  16
ATOM     15  C   UNL     1      51.440   1.491  17.346  0.00  0.00    +0.000 C 
ATOM     16  O   UNL     1      51.857   2.797  17.737  0.00  0.00    +0.000 OA
ENDBRANCH   2  16
ENDBRANCH   1   7
BRANCH   1  17
ATOM     17  C   UNL     1      49.375   7.778  14.582  0.00  0.00    +0.000 A 
ATOM     18  C   UNL     1      50.031   8.350  13.486  0.00  0.00    +0.000 A 
ATOM     19  C   UNL     1      49.628   8.040  12.190  0.00  0.00    +0.000 A 
ATOM     20  C   UNL     1      48.567   7.157  11.978  0.00  0.00    +0.000 A 
ATOM     21  C   UNL     1      47.875   6.570  13.051  0.00  0.00    +0.000 A 
ATOM     22  C   UNL     1      48.287   6.915  14.352  0.00  0.00    +0.000 A 
BRANCH  21  23
ATOM     23  C   UNL     1      46.786   5.599  12.823  0.00  0.00    +0.000 A 
ATOM     24  C   UNL     1      46.825   4.308  13.355  0.00  0.00    +0.000 A 
ATOM     25  N   UNL     1      45.860   3.368  13.202  0.00  0.00    +0.000 NA
ATOM     26  C   UNL     1      44.774   3.722  12.483  0.00  0.00    +0.000 A 
ATOM     27  C   UNL     1      44.608   4.972  11.908  0.00  0.00    +0.000 A 
ATOM     28  C   UNL     1      45.634   5.913  12.084  0.00  0.00    +0.000 A 
BRANCH  27  29
ATOM     29  C   UNL     1      43.368   5.299  11.137  0.00  0.00    +0.000 C 
ATOM     30  F   UNL     1      42.230   4.794  11.687  0.00  0.00    +0.000 F 
ATOM     31  F   UNL     1      43.165   6.642  11.029  0.00  0.00    +0.000 F 
ATOM     32  F   UNL     1      43.407   4.825   9.861  0.00  0.00    +0.000 F 
ENDBRANCH  27  29
ENDBRANCH  21  23
ENDBRANCH   1  17
TORSDOF 6
ENDMDL
MODEL 6
REMARK VINA RESULT:    -7.243      2.038      3.581
REMARK INTER + INTRA:         -10.736
REMARK INTER:                  -9.800
REMARK INTRA:                  -0.937
REMARK UNBOUND:                -0.953
REMARK  Name = 
REMARK  7 active torsions:
REMARK  status: ('A' for Active; 'I' for Inactive)
REMARK    1  A    between atoms: C_1  and  O_2
REMARK    2  A    between atoms: O_2  and  C_3
REMARK    3  A    between atoms: C_5  and  C_6
REMARK    4  A    between atoms: N_11  and  C_12
REMARK    5  A    between atoms: C_12  and  C_13
REMARK    6  A    between atoms: C_17  and  C_18
REMARK    7  A    between atoms: C_22  and  C_23
REMARK                            x       y       z     vdW  Elec       q    Type
REMARK                         _______ _______ _______ _____ _____    ______ ____
ROOT
ATOM      1  C   UNL     1      48.917   8.230  13.016  0.00  0.00    +0.000 C 
ENDROOT
BRANCH   1   7
ATOM      2  C   UNL     1      48.881   5.878  17.091  0.00  0.00    +0.000 A 
ATOM      3  C   UNL     1      48.594   6.983  17.839  0.00  0.00    +0.000 A 
ATOM      4  C   UNL     1      48.473   8.136  17.111  0.00  0.00    +0.000 A 
ATOM      5  N   UNL     1      48.649   8.221  15.766  0.00  0.00    +0.000 NA
ATOM      6  C   UNL     1      48.941   7.081  15.141  0.00  0.00    +0.000 A 
ATOM      7  N   UNL     1      49.219   7.059  13.794  0.00  0.00    +0.000 N 
ATOM      8  N   UNL     1      49.024   5.898  15.754  0.00  0.00    +0.000 NA
ATOM      9  H   UNL     1      48.985   6.154  13.404  0.00  0.00    +0.000 HD
BRANCH   4  10
ATOM     10  C   UNL     1      48.118   9.406  17.818  0.00  0.00    +0.000 C 
ATOM     11  N   UNL     1      47.860  10.480  17.004  0.00  0.00    +0.000 N 
ATOM     12  O   UNL     1      48.050   9.490  19.032  0.00  0.00    +0.000 OA
ATOM     13  H   UNL     1      47.924  10.383  15.998  0.00  0.00    +0.000 HD
ATOM     14  H   UNL     1      47.616  11.370  17.419  0.00  0.00    +0.000 HD
ENDBRANCH   4  10
BRANCH   2  16
ATOM     15  C   UNL     1      47.868   3.873  17.737  0.00  0.00    +0.000 C 
ATOM     16  O   UNL     1      49.036   4.690  17.774  0.00  0.00    +0.000 OA
ENDBRANCH   2  16
ENDBRANCH   1   7
BRANCH   1  17
ATOM     17  C   UNL     1      47.489   8.152  12.526  0.00  0.00    +0.000 A 
ATOM     18  C   UNL     1      46.645   9.264  12.613  0.00  0.00    +0.000 A 
ATOM     19  C   UNL     1      45.339   9.189  12.136  0.00  0.00    +0.000 A 
ATOM     20  C   UNL     1      44.865   8.002  11.570  0.00  0.00    +0.000 A 
ATOM     21  C   UNL     1      45.679   6.860  11.473  0.00  0.00    +0.000 A 
ATOM     22  C   UNL     1      46.988   6.954  11.981  0.00  0.00    +0.000 A 
BRANCH  21  23
ATOM     23  C   UNL     1      45.191   5.623  10.829  0.00  0.00    +0.000 A 
ATOM     24  C   UNL     1      44.117   4.897  11.348  0.00  0.00    +0.000 A 
ATOM     25  N   UNL     1      43.604   3.764  10.807  0.00  0.00    +0.000 NA
ATOM     26  C   UNL     1      44.179   3.318   9.671  0.00  0.00    +0.000 A 
ATOM     27  C   UNL     1      45.245   3.948   9.051  0.00  0.00    +0.000 A 
ATOM     28  C   UNL     1      45.752   5.113   9.648  0.00  0.00    +0.000 A 
BRANCH  27  29
ATOM     29  C   UNL     1      45.823   3.404   7.783  0.00  0.00    +0.000 C 
ATOM     30  F   UNL     1      46.364   2.161   7.916  0.00  0.00    +0.000 F 
ATOM     31  F   UNL     1      44.894   3.300   6.792  0.00  0.00    +0.000 F 
ATOM     32  F   UNL     1      46.816   4.189   7.282  0.00  0.00    +0.000 F 
ENDBRANCH  27  29
ENDBRANCH  21  23
ENDBRANCH   1  17
TORSDOF 6
ENDMDL
MODEL 7
REMARK VINA RESULT:    -6.969      1.421      1.675
REMARK INTER + INTRA:         -10.367
REMARK INTER:                  -9.504
REMARK INTRA:                  -0.863
REMARK UNBOUND:                -0.953
REMARK  Name = 
REMARK  7 active torsions:
REMARK  status: ('A' for Active; 'I' for Inactive)
REMARK    1  A    between atoms: C_1  and  O_2
REMARK    2  A    between atoms: O_2  and  C_3
REMARK    3  A    between atoms: C_5  and  C_6
REMARK    4  A    between atoms: N_11  and  C_12
REMARK    5  A    between atoms: C_12  and  C_13
REMARK    6  A    between atoms: C_17  and  C_18
REMARK    7  A    between atoms: C_22  and  C_23
REMARK                            x       y       z     vdW  Elec       q    Type
REMARK                         _______ _______ _______ _____ _____    ______ ____
ROOT
ATOM      1  C   UNL     1      48.721   6.873  14.771  0.00  0.00    +0.000 C 
ENDROOT
BRANCH   1   7
ATOM      2  C   UNL     1      48.705   7.438  19.442  0.00  0.00    +0.000 A 
ATOM      3  C   UNL     1      48.614   6.101  19.702  0.00  0.00    +0.000 A 
ATOM      4  C   UNL     1      48.568   5.315  18.582  0.00  0.00    +0.000 A 
ATOM      5  N   UNL     1      48.576   5.786  17.307  0.00  0.00    +0.000 NA
ATOM      6  C   UNL     1      48.653   7.111  17.174  0.00  0.00    +0.000 A 
ATOM      7  N   UNL     1      48.589   7.706  15.936  0.00  0.00    +0.000 N 
ATOM      8  N   UNL     1      48.760   7.955  18.203  0.00  0.00    +0.000 NA
ATOM      9  H   UNL     1      49.082   8.590  15.948  0.00  0.00    +0.000 HD
BRANCH   4  10
ATOM     10  C   UNL     1      48.509   3.829  18.741  0.00  0.00    +0.000 C 
ATOM     11  N   UNL     1      48.399   3.379  20.033  0.00  0.00    +0.000 N 
ATOM     12  O   UNL     1      48.543   3.060  17.795  0.00  0.00    +0.000 OA
ATOM     13  H   UNL     1      48.372   4.039  20.800  0.00  0.00    +0.000 HD
ATOM     14  H   UNL     1      48.355   2.384  20.210  0.00  0.00    +0.000 HD
ENDBRANCH   4  10
BRANCH   2  16
ATOM     15  C   UNL     1      49.816   9.207  20.490  0.00  0.00    +0.000 C 
ATOM     16  O   UNL     1      48.733   8.281  20.533  0.00  0.00    +0.000 OA
ENDBRANCH   2  16
ENDBRANCH   1   7
BRANCH   1  17
ATOM     17  C   UNL     1      47.504   7.047  13.891  0.00  0.00    +0.000 A 
ATOM     18  C   UNL     1      47.059   8.324  13.535  0.00  0.00    +0.000 A 
ATOM     19  C   UNL     1      45.952   8.472  12.703  0.00  0.00    +0.000 A 
ATOM     20  C   UNL     1      45.280   7.346  12.223  0.00  0.00    +0.000 A 
ATOM     21  C   UNL     1      45.689   6.045  12.566  0.00  0.00    +0.000 A 
ATOM     22  C   UNL     1      46.798   5.922  13.424  0.00  0.00    +0.000 A 
BRANCH  21  23
ATOM     23  C   UNL     1      45.006   4.857  12.016  0.00  0.00    +0.000 A 
ATOM     24  C   UNL     1      44.002   4.191  12.722  0.00  0.00    +0.000 A 
ATOM     25  N   UNL     1      43.321   3.105  12.279  0.00  0.00    +0.000 NA
ATOM     26  C   UNL     1      43.641   2.646  11.051  0.00  0.00    +0.000 A 
ATOM     27  C   UNL     1      44.612   3.218  10.246  0.00  0.00    +0.000 A 
ATOM     28  C   UNL     1      45.299   4.336  10.746  0.00  0.00    +0.000 A 
BRANCH  27  29
ATOM     29  C   UNL     1      44.903   2.663   8.887  0.00  0.00    +0.000 C 
ATOM     30  F   UNL     1      46.227   2.659   8.568  0.00  0.00    +0.000 F 
ATOM     31  F   UNL     1      44.484   1.374   8.754  0.00  0.00    +0.000 F 
ATOM     32  F   UNL     1      44.283   3.361   7.895  0.00  0.00    +0.000 F 
ENDBRANCH  27  29
ENDBRANCH  21  23
ENDBRANCH   1  17
TORSDOF 6
ENDMDL
MODEL 8
REMARK VINA RESULT:    -6.621      4.840      8.818
REMARK INTER + INTRA:          -9.897
REMARK INTER:                  -9.144
REMARK INTRA:                  -0.753
REMARK UNBOUND:                -0.953
REMARK  Name = 
REMARK  7 active torsions:
REMARK  status: ('A' for Active; 'I' for Inactive)
REMARK    1  A    between atoms: C_1  and  O_2
REMARK    2  A    between atoms: O_2  and  C_3
REMARK    3  A    between atoms: C_5  and  C_6
REMARK    4  A    between atoms: N_11  and  C_12
REMARK    5  A    between atoms: C_12  and  C_13
REMARK    6  A    between atoms: C_17  and  C_18
REMARK    7  A    between atoms: C_22  and  C_23
REMARK                            x       y       z     vdW  Elec       q    Type
REMARK                         _______ _______ _______ _____ _____    ______ ____
ROOT
ATOM      1  C   UNL     1      47.182   4.019  15.521  0.00  0.00    +0.000 C 
ENDROOT
BRANCH   1   7
ATOM      2  C   UNL     1      45.061   6.448  12.096  0.00  0.00    +0.000 A 
ATOM      3  C   UNL     1      44.412   5.359  11.590  0.00  0.00    +0.000 A 
ATOM      4  C   UNL     1      44.673   4.192  12.258  0.00  0.00    +0.000 A 
ATOM      5  N   UNL     1      45.523   4.081  13.313  0.00  0.00    +0.000 NA
ATOM      6  C   UNL     1      46.112   5.208  13.712  0.00  0.00    +0.000 A 
ATOM      7  N   UNL     1      47.050   5.204  14.717  0.00  0.00    +0.000 N 
ATOM      8  N   UNL     1      45.878   6.403  13.162  0.00  0.00    +0.000 NA
ATOM      9  H   UNL     1      47.065   6.101  15.185  0.00  0.00    +0.000 HD
BRANCH   4  10
ATOM     10  C   UNL     1      43.987   2.937  11.821  0.00  0.00    +0.000 C 
ATOM     11  N   UNL     1      44.203   2.572  10.516  0.00  0.00    +0.000 N 
ATOM     12  O   UNL     1      43.290   2.270  12.567  0.00  0.00    +0.000 OA
ATOM     13  H   UNL     1      44.787   3.145   9.918  0.00  0.00    +0.000 HD
ATOM     14  H   UNL     1      43.767   1.734  10.156  0.00  0.00    +0.000 HD
ENDBRANCH   4  10
BRANCH   2  16
ATOM     15  C   UNL     1      45.436   8.755  12.134  0.00  0.00    +0.000 C 
ATOM     16  O   UNL     1      44.853   7.649  11.449  0.00  0.00    +0.000 OA
ENDBRANCH   2  16
ENDBRANCH   1   7
BRANCH   1  17
ATOM     17  C   UNL     1      47.869   4.370  16.821  0.00  0.00    +0.000 A 
ATOM     18  C   UNL     1      47.177   5.041  17.835  0.00  0.00    +0.000 A 
ATOM     19  C   UNL     1      47.812   5.337  19.038  0.00  0.00    +0.000 A 
ATOM     20  C   UNL     1      49.143   4.966  19.238  0.00  0.00    +0.000 A 
ATOM     21  C   UNL     1      49.877   4.299  18.242  0.00  0.00    +0.000 A 
ATOM     22  C   UNL     1      49.220   4.029  17.026  0.00  0.00    +0.000 A 
BRANCH  21  23
ATOM     23  C   UNL     1      51.269   3.864  18.476  0.00  0.00    +0.000 A 
ATOM     24  C   UNL     1      52.115   4.543  19.356  0.00  0.00    +0.000 A 
ATOM     25  N   UNL     1      53.396   4.197  19.634  0.00  0.00    +0.000 NA
ATOM     26  C   UNL     1      53.879   3.101  19.012  0.00  0.00    +0.000 A 
ATOM     27  C   UNL     1      53.143   2.336  18.122  0.00  0.00    +0.000 A 
ATOM     28  C   UNL     1      51.823   2.734  17.856  0.00  0.00    +0.000 A 
BRANCH  27  29
ATOM     29  C   UNL     1      53.741   1.124  17.480  0.00  0.00    +0.000 C 
ATOM     30  F   UNL     1      54.287   0.247  18.367  0.00  0.00    +0.000 F 
ATOM     31  F   UNL     1      52.825   0.410  16.768  0.00  0.00    +0.000 F 
ATOM     32  F   UNL     1      54.735   1.434  16.603  0.00  0.00    +0.000 F 
ENDBRANCH  27  29
ENDBRANCH  21  23
ENDBRANCH   1  17
TORSDOF 6
ENDMDL
MODEL 9
REMARK VINA RESULT:    -6.540      3.673      5.304
REMARK INTER + INTRA:          -9.788
REMARK INTER:                  -8.893
REMARK INTRA:                  -0.894
REMARK UNBOUND:                -0.953
REMARK  Name = 
REMARK  7 active torsions:
REMARK  status: ('A' for Active; 'I' for Inactive)
REMARK    1  A    between atoms: C_1  and  O_2
REMARK    2  A    between atoms: O_2  and  C_3
REMARK    3  A    between atoms: C_5  and  C_6
REMARK    4  A    between atoms: N_11  and  C_12
REMARK    5  A    between atoms: C_12  and  C_13
REMARK    6  A    between atoms: C_17  and  C_18
REMARK    7  A    between atoms: C_22  and  C_23
REMARK                            x       y       z     vdW  Elec       q    Type
REMARK                         _______ _______ _______ _____ _____    ______ ____
ROOT
ATOM      1  C   UNL     1      47.012   3.695  14.512  0.00  0.00    +0.000 C 
ENDROOT
BRANCH   1   7
ATOM      2  C   UNL     1      48.434   5.017  18.797  0.00  0.00    +0.000 A 
ATOM      3  C   UNL     1      49.559   4.245  18.770  0.00  0.00    +0.000 A 
ATOM      4  C   UNL     1      49.713   3.520  17.618  0.00  0.00    +0.000 A 
ATOM      5  N   UNL     1      48.829   3.516  16.585  0.00  0.00    +0.000 NA
ATOM      6  C   UNL     1      47.758   4.298  16.728  0.00  0.00    +0.000 A 
ATOM      7  N   UNL     1      46.759   4.315  15.784  0.00  0.00    +0.000 N 
ATOM      8  N   UNL     1      47.549   5.084  17.787  0.00  0.00    +0.000 NA
ATOM      9  H   UNL     1      46.286   5.210  15.792  0.00  0.00    +0.000 HD
BRANCH   4  10
ATOM     10  C   UNL     1      50.930   2.666  17.455  0.00  0.00    +0.000 C 
ATOM     11  N   UNL     1      50.712   1.427  16.909  0.00  0.00    +0.000 N 
ATOM     12  O   UNL     1      52.047   3.040  17.773  0.00  0.00    +0.000 OA
ATOM     13  H   UNL     1      49.774   1.142  16.653  0.00  0.00    +0.000 HD
ATOM     14  H   UNL     1      51.493   0.800  16.773  0.00  0.00    +0.000 HD
ENDBRANCH   4  10
BRANCH   2  16
ATOM     15  C   UNL     1      48.890   7.009  19.931  0.00  0.00    +0.000 C 
ATOM     16  O   UNL     1      48.215   5.754  19.942  0.00  0.00    +0.000 OA
ENDBRANCH   2  16
ENDBRANCH   1   7
BRANCH   1  17
ATOM     17  C   UNL     1      46.690   4.672  13.404  0.00  0.00    +0.000 A 
ATOM     18  C   UNL     1      45.530   4.522  12.636  0.00  0.00    +0.000 A 
ATOM     19  C   UNL     1      45.230   5.442  11.636  0.00  0.00    +0.000 A 
ATOM     20  C   UNL     1      46.086   6.519  11.392  0.00  0.00    +0.000 A 
ATOM     21  C   UNL     1      47.266   6.700  12.135  0.00  0.00    +0.000 A 
ATOM     22  C   UNL     1      47.559   5.745  13.127  0.00  0.00    +0.000 A 
BRANCH  21  23
ATOM     23  C   UNL     1      48.143   7.867  11.909  0.00  0.00    +0.000 A 
ATOM     24  C   UNL     1      47.689   9.175  12.089  0.00  0.00    +0.000 A 
ATOM     25  N   UNL     1      48.436  10.294  11.916  0.00  0.00    +0.000 NA
ATOM     26  C   UNL     1      49.723  10.116  11.550  0.00  0.00    +0.000 A 
ATOM     27  C   UNL     1      50.298   8.873  11.345  0.00  0.00    +0.000 A 
ATOM     28  C   UNL     1      49.488   7.741  11.527  0.00  0.00    +0.000 A 
BRANCH  27  29
ATOM     29  C   UNL     1      51.737   8.751  10.955  0.00  0.00    +0.000 C 
ATOM     30  F   UNL     1      51.959   7.867   9.943  0.00  0.00    +0.000 F 
ATOM     31  F   UNL     1      52.261   9.936  10.534  0.00  0.00    +0.000 F 
ATOM     32  F   UNL     1      52.525   8.341  11.987  0.00  0.00    +0.000 F 
ENDBRANCH  27  29
ENDBRANCH  21  23
ENDBRANCH   1  17
TORSDOF 6
ENDMDL
