MODEL 1
REMARK VINA RESULT:    -7.256      0.000      0.000
REMARK INTER + INTRA:         -11.538
REMARK INTER:                 -10.225
REMARK INTRA:                  -1.313
REMARK UNBOUND:                -1.313
REMARK  Name = 
REMARK  9 active torsions:
REMARK  status: ('A' for Active; 'I' for Inactive)
REMARK    1  A    between atoms: C_1  and  C_2
REMARK    2  A    between atoms: C_2  and  C_3
REMARK    3  A    between atoms: C_2  and  C_18
REMARK    4  A    between atoms: C_3  and  N_4
REMARK    5  A    between atoms: N_4  and  C_5
REMARK    6  A    between atoms: C_8  and  C_9
REMARK    7  A    between atoms: N_11  and  S_12
REMARK    8  A    between atoms: S_12  and  C_13
REMARK    9  A    between atoms: C_22  and  C_23
REMARK                            x       y       z     vdW  Elec       q    Type
REMARK                         _______ _______ _______ _____ _____    ______ ____
ROOT
ATOM      1  C   UNL     1      44.609   5.532  12.981  0.00  0.00    +0.000 A 
ATOM      2  C   UNL     1      45.668   4.865  13.613  0.00  0.00    +0.000 A 
ATOM      3  C   UNL     1      46.964   5.408  13.643  0.00  0.00    +0.000 A 
ATOM      4  C   UNL     1      47.226   6.628  13.011  0.00  0.00    +0.000 A 
ATOM      5  C   UNL     1      46.185   7.282  12.344  0.00  0.00    +0.000 A 
ATOM      6  C   UNL     1      44.899   6.731  12.320  0.00  0.00    +0.000 A 
ENDROOT
BRANCH   4   7
ATOM      7  C   UNL     1      48.571   7.252  12.978  0.00  0.00    +0.000 C 
ATOM      8  O   UNL     1      49.502   6.763  13.598  0.00  0.00    +0.000 OA
ATOM      9  N   UNL     1      48.685   8.451  12.255  0.00  0.00    +0.000 N 
ATOM     10  H   UNL     1      47.952   8.787  11.641  0.00  0.00    +0.000 HD
BRANCH   9  11
ATOM     11  S   UNL     1      50.123   9.256  12.018  0.00  0.00    +0.000 S 
ATOM     12  C   UNL     1      49.635  10.661  11.035  0.00  0.00    +0.000 C 
ATOM     13  O   UNL     1      50.640   9.695  13.290  0.00  0.00    +0.000 OA
ATOM     14  O   UNL     1      50.901   8.374  11.168  0.00  0.00    +0.000 OA
ENDBRANCH   9  11
ENDBRANCH   4   7
BRANCH   1  15
ATOM     15  N   UNL     1      43.305   5.020  12.866  0.00  0.00    +0.000 N 
ATOM     16  H   UNL     1      42.657   5.619  13.375  0.00  0.00    +0.000 HD
BRANCH  15  17
ATOM     17  C   UNL     1      42.815   4.726  11.526  0.00  0.00    +0.000 C 
BRANCH  17  19
ATOM     18  C   UNL     1      43.510   2.287  12.045  0.00  0.00    +0.000 C 
ATOM     19  C   UNL     1      43.340   3.399  11.043  0.00  0.00    +0.000 C 
BRANCH  19  20
ATOM     20  C   UNL     1      44.287   3.385   9.900  0.00  0.00    +0.000 A 
ATOM     21  C   UNL     1      44.762   4.582   9.342  0.00  0.00    +0.000 A 
ATOM     22  C   UNL     1      45.755   4.578   8.359  0.00  0.00    +0.000 A 
ATOM     23  C   UNL     1      46.285   3.371   7.912  0.00  0.00    +0.000 A 
ATOM     24  C   UNL     1      45.800   2.165   8.426  0.00  0.00    +0.000 A 
ATOM     25  C   UNL     1      44.795   2.176   9.404  0.00  0.00    +0.000 A 
BRANCH  24  26
ATOM     26  C   UNL     1      46.360   0.924   7.979  0.00  0.00    +0.000 C 
ATOM     27  N   UNL     1      46.822  -0.082   7.630  0.00  0.00    +0.000 NA
ENDBRANCH  24  26
ENDBRANCH  19  20
ENDBRANCH  17  19
ENDBRANCH  15  17
ENDBRANCH   1  15
TORSDOF 7
ENDMDL
MODEL 2
REMARK VINA RESULT:    -6.768      1.671      2.355
REMARK INTER + INTRA:         -10.851
REMARK INTER:                  -9.833
REMARK INTRA:                  -1.017
REMARK UNBOUND:                -1.313
REMARK  Name = 
REMARK  9 active torsions:
REMARK  status: ('A' for Active; 'I' for Inactive)
REMARK    1  A    between atoms: C_1  and  C_2
REMARK    2  A    between atoms: C_2  and  C_3
REMARK    3  A    between atoms: C_2  and  C_18
REMARK    4  A    between atoms: C_3  and  N_4
REMARK    5  A    between atoms: N_4  and  C_5
REMARK    6  A    between atoms: C_8  and  C_9
REMARK    7  A    between atoms: N_11  and  S_12
REMARK    8  A    between atoms: S_12  and  C_13
REMARK    9  A    between atoms: C_22  and  C_23
REMARK                            x       y       z     vdW  Elec       q    Type
REMARK                         _______ _______ _______ _____ _____    ______ ____
ROOT
ATOM      1  C   UNL     1      44.866   5.908  12.835  0.00  0.00    +0.000 A 
ATOM      2  C   UNL     1      45.226   7.223  12.507  0.00  0.00    +0.000 A 
ATOM      3  C   UNL     1      46.499   7.732  12.811  0.00  0.00    +0.000 A 
ATOM      4  C   UNL     1      47.432   6.933  13.479  0.00  0.00    +0.000 A 
ATOM      5  C   UNL     1      47.070   5.633  13.845  0.00  0.00    +0.000 A 
ATOM      6  C   UNL     1      45.798   5.136  13.538  0.00  0.00    +0.000 A 
ENDROOT
BRANCH   4   7
ATOM      7  C   UNL     1      48.786   7.407  13.856  0.00  0.00    +0.000 C 
ATOM      8  O   UNL     1      49.614   7.677  13.000  0.00  0.00    +0.000 OA
ATOM      9  N   UNL     1      49.068   7.464  15.231  0.00  0.00    +0.000 N 
ATOM     10  H   UNL     1      48.348   7.364  15.937  0.00  0.00    +0.000 HD
BRANCH   9  11
ATOM     11  S   UNL     1      50.490   8.057  15.860  0.00  0.00    +0.000 S 
ATOM     12  C   UNL     1      50.274   7.828  17.615  0.00  0.00    +0.000 C 
ATOM     13  O   UNL     1      51.592   7.256  15.387  0.00  0.00    +0.000 OA
ATOM     14  O   UNL     1      50.443   9.482  15.594  0.00  0.00    +0.000 OA
ENDBRANCH   9  11
ENDBRANCH   4   7
BRANCH   1  15
ATOM     15  N   UNL     1      43.594   5.354  12.611  0.00  0.00    +0.000 N 
ATOM     16  H   UNL     1      42.892   5.895  13.115  0.00  0.00    +0.000 HD
BRANCH  15  17
ATOM     17  C   UNL     1      43.195   5.124  11.228  0.00  0.00    +0.000 C 
BRANCH  17  19
ATOM     18  C   UNL     1      43.551   2.632  11.828  0.00  0.00    +0.000 C 
ATOM     19  C   UNL     1      43.551   3.727  10.794  0.00  0.00    +0.000 C 
BRANCH  19  20
ATOM     20  C   UNL     1      44.511   3.555   9.676  0.00  0.00    +0.000 A 
ATOM     21  C   UNL     1      45.115   4.665   9.065  0.00  0.00    +0.000 A 
ATOM     22  C   UNL     1      46.119   4.507   8.107  0.00  0.00    +0.000 A 
ATOM     23  C   UNL     1      46.533   3.230   7.739  0.00  0.00    +0.000 A 
ATOM     24  C   UNL     1      45.920   2.110   8.306  0.00  0.00    +0.000 A 
ATOM     25  C   UNL     1      44.904   2.275   9.258  0.00  0.00    +0.000 A 
BRANCH  24  26
ATOM     26  C   UNL     1      46.360   0.796   7.939  0.00  0.00    +0.000 C 
ATOM     27  N   UNL     1      46.723  -0.263   7.630  0.00  0.00    +0.000 NA
ENDBRANCH  24  26
ENDBRANCH  19  20
ENDBRANCH  17  19
ENDBRANCH  15  17
ENDBRANCH   1  15
TORSDOF 7
ENDMDL
MODEL 3
REMARK VINA RESULT:    -6.368      2.758      3.623
REMARK INTER + INTRA:         -10.287
REMARK INTER:                 -10.205
REMARK INTRA:                  -0.082
REMARK UNBOUND:                -1.313
REMARK  Name = 
REMARK  9 active torsions:
REMARK  status: ('A' for Active; 'I' for Inactive)
REMARK    1  A    between atoms: C_1  and  C_2
REMARK    2  A    between atoms: C_2  and  C_3
REMARK    3  A    between atoms: C_2  and  C_18
REMARK    4  A    between atoms: C_3  and  N_4
REMARK    5  A    between atoms: N_4  and  C_5
REMARK    6  A    between atoms: C_8  and  C_9
REMARK    7  A    between atoms: N_11  and  S_12
REMARK    8  A    between atoms: S_12  and  C_13
REMARK    9  A    between atoms: C_22  and  C_23
REMARK                            x       y       z     vdW  Elec       q    Type
REMARK                         _______ _______ _______ _____ _____    ______ ____
ROOT
ATOM      1  C   UNL     1      46.166   5.909  11.954  0.00  0.00    +0.000 A 
ATOM      2  C   UNL     1      46.177   4.920  12.947  0.00  0.00    +0.000 A 
ATOM      3  C   UNL     1      46.952   5.057  14.111  0.00  0.00    +0.000 A 
ATOM      4  C   UNL     1      47.756   6.188  14.287  0.00  0.00    +0.000 A 
ATOM      5  C   UNL     1      47.782   7.162  13.284  0.00  0.00    +0.000 A 
ATOM      6  C   UNL     1      47.007   7.014  12.129  0.00  0.00    +0.000 A 
ENDROOT
BRANCH   4   7
ATOM      7  C   UNL     1      48.619   6.393  15.476  0.00  0.00    +0.000 C 
ATOM      8  O   UNL     1      49.577   7.149  15.429  0.00  0.00    +0.000 OA
ATOM      9  N   UNL     1      48.307   5.630  16.613  0.00  0.00    +0.000 N 
ATOM     10  H   UNL     1      47.445   5.104  16.694  0.00  0.00    +0.000 HD
BRANCH   9  11
ATOM     11  S   UNL     1      49.092   5.783  18.073  0.00  0.00    +0.000 S 
ATOM     12  C   UNL     1      48.349   4.497  19.060  0.00  0.00    +0.000 C 
ATOM     13  O   UNL     1      50.497   5.519  17.890  0.00  0.00    +0.000 OA
ATOM     14  O   UNL     1      48.641   7.057  18.601  0.00  0.00    +0.000 OA
ENDBRANCH   9  11
ENDBRANCH   4   7
BRANCH   1  15
ATOM     15  N   UNL     1      45.459   5.810  10.742  0.00  0.00    +0.000 N 
ATOM     16  H   UNL     1      46.011   5.282  10.068  0.00  0.00    +0.000 HD
BRANCH  15  17
ATOM     17  C   UNL     1      44.087   5.325  10.803  0.00  0.00    +0.000 C 
BRANCH  17  19
ATOM     18  C   UNL     1      43.580   2.820  11.212  0.00  0.00    +0.000 C 
ATOM     19  C   UNL     1      43.992   3.920  10.269  0.00  0.00    +0.000 C 
BRANCH  19  20
ATOM     20  C   UNL     1      44.904   3.517   9.170  0.00  0.00    +0.000 A 
ATOM     21  C   UNL     1      45.559   4.479   8.386  0.00  0.00    +0.000 A 
ATOM     22  C   UNL     1      46.521   4.110   7.442  0.00  0.00    +0.000 A 
ATOM     23  C   UNL     1      46.838   2.767   7.262  0.00  0.00    +0.000 A 
ATOM     24  C   UNL     1      46.171   1.789   8.004  0.00  0.00    +0.000 A 
ATOM     25  C   UNL     1      45.198   2.164   8.941  0.00  0.00    +0.000 A 
BRANCH  24  26
ATOM     26  C   UNL     1      46.513   0.408   7.831  0.00  0.00    +0.000 C 
ATOM     27  N   UNL     1      46.799  -0.707   7.679  0.00  0.00    +0.000 NA
ENDBRANCH  24  26
ENDBRANCH  19  20
ENDBRANCH  17  19
ENDBRANCH  15  17
ENDBRANCH   1  15
TORSDOF 7
ENDMDL
MODEL 4
REMARK VINA RESULT:    -6.208      3.520      4.587
REMARK INTER + INTRA:         -10.061
REMARK INTER:                  -9.408
REMARK INTRA:                  -0.652
REMARK UNBOUND:                -1.313
REMARK  Name = 
REMARK  9 active torsions:
REMARK  status: ('A' for Active; 'I' for Inactive)
REMARK    1  A    between atoms: C_1  and  C_2
REMARK    2  A    between atoms: C_2  and  C_3
REMARK    3  A    between atoms: C_2  and  C_18
REMARK    4  A    between atoms: C_3  and  N_4
REMARK    5  A    between atoms: N_4  and  C_5
REMARK    6  A    between atoms: C_8  and  C_9
REMARK    7  A    between atoms: N_11  and  S_12
REMARK    8  A    between atoms: S_12  and  C_13
REMARK    9  A    between atoms: C_22  and  C_23
REMARK                            x       y       z     vdW  Elec       q    Type
REMARK                         _______ _______ _______ _____ _____    ______ ____
ROOT
ATOM      1  C   UNL     1      46.676   5.783  12.869  0.00  0.00    +0.000 A 
ATOM      2  C   UNL     1      46.318   4.634  13.589  0.00  0.00    +0.000 A 
ATOM      3  C   UNL     1      46.880   4.353  14.846  0.00  0.00    +0.000 A 
ATOM      4  C   UNL     1      47.836   5.212  15.394  0.00  0.00    +0.000 A 
ATOM      5  C   UNL     1      48.229   6.340  14.666  0.00  0.00    +0.000 A 
ATOM      6  C   UNL     1      47.664   6.610  13.415  0.00  0.00    +0.000 A 
ENDROOT
BRANCH   4   7
ATOM      7  C   UNL     1      48.492   4.970  16.703  0.00  0.00    +0.000 C 
ATOM      8  O   UNL     1      49.435   4.200  16.796  0.00  0.00    +0.000 OA
ATOM      9  N   UNL     1      47.928   5.620  17.813  0.00  0.00    +0.000 N 
ATOM     10  H   UNL     1      47.233   6.351  17.719  0.00  0.00    +0.000 HD
BRANCH   9  11
ATOM     11  S   UNL     1      48.570   5.555  19.348  0.00  0.00    +0.000 S 
ATOM     12  C   UNL     1      47.409   6.511  20.305  0.00  0.00    +0.000 C 
ATOM     13  O   UNL     1      48.581   4.186  19.803  0.00  0.00    +0.000 OA
ATOM     14  O   UNL     1      49.802   6.316  19.263  0.00  0.00    +0.000 OA
ENDBRANCH   9  11
ENDBRANCH   4   7
BRANCH   1  15
ATOM     15  N   UNL     1      46.196   6.096  11.585  0.00  0.00    +0.000 N 
ATOM     16  H   UNL     1      46.258   5.273  10.987  0.00  0.00    +0.000 HD
BRANCH  15  17
ATOM     17  C   UNL     1      44.883   6.722  11.493  0.00  0.00    +0.000 C 
BRANCH  17  19
ATOM     18  C   UNL     1      42.558   5.608  11.723  0.00  0.00    +0.000 C 
ATOM     19  C   UNL     1      43.860   5.744  10.978  0.00  0.00    +0.000 C 
BRANCH  19  20
ATOM     20  C   UNL     1      44.334   4.521  10.284  0.00  0.00    +0.000 A 
ATOM     21  C   UNL     1      43.980   3.244  10.746  0.00  0.00    +0.000 A 
ATOM     22  C   UNL     1      44.308   2.096  10.022  0.00  0.00    +0.000 A 
ATOM     23  C   UNL     1      45.006   2.206   8.823  0.00  0.00    +0.000 A 
ATOM     24  C   UNL     1      45.403   3.464   8.362  0.00  0.00    +0.000 A 
ATOM     25  C   UNL     1      45.081   4.613   9.099  0.00  0.00    +0.000 A 
BRANCH  24  26
ATOM     26  C   UNL     1      46.105   3.577   7.118  0.00  0.00    +0.000 C 
ATOM     27  N   UNL     1      46.684   3.660   6.115  0.00  0.00    +0.000 NA
ENDBRANCH  24  26
ENDBRANCH  19  20
ENDBRANCH  17  19
ENDBRANCH  15  17
ENDBRANCH   1  15
TORSDOF 7
ENDMDL
MODEL 5
REMARK VINA RESULT:    -6.121      3.128      3.775
REMARK INTER + INTRA:          -9.939
REMARK INTER:                  -9.309
REMARK INTRA:                  -0.630
REMARK UNBOUND:                -1.313
REMARK  Name = 
REMARK  9 active torsions:
REMARK  status: ('A' for Active; 'I' for Inactive)
REMARK    1  A    between atoms: C_1  and  C_2
REMARK    2  A    between atoms: C_2  and  C_3
REMARK    3  A    between atoms: C_2  and  C_18
REMARK    4  A    between atoms: C_3  and  N_4
REMARK    5  A    between atoms: N_4  and  C_5
REMARK    6  A    between atoms: C_8  and  C_9
REMARK    7  A    between atoms: N_11  and  S_12
REMARK    8  A    between atoms: S_12  and  C_13
REMARK    9  A    between atoms: C_22  and  C_23
REMARK                            x       y       z     vdW  Elec       q    Type
REMARK                         _______ _______ _______ _____ _____    ______ ____
ROOT
ATOM      1  C   UNL     1      46.836   4.610  13.548  0.00  0.00    +0.000 A 
ATOM      2  C   UNL     1      47.460   5.838  13.288  0.00  0.00    +0.000 A 
ATOM      3  C   UNL     1      48.184   6.518  14.282  0.00  0.00    +0.000 A 
ATOM      4  C   UNL     1      48.275   5.984  15.571  0.00  0.00    +0.000 A 
ATOM      5  C   UNL     1      47.623   4.779  15.851  0.00  0.00    +0.000 A 
ATOM      6  C   UNL     1      46.903   4.111  14.854  0.00  0.00    +0.000 A 
ENDROOT
BRANCH   4   7
ATOM      7  C   UNL     1      49.000   6.653  16.678  0.00  0.00    +0.000 C 
ATOM      8  O   UNL     1      50.197   6.471  16.840  0.00  0.00    +0.000 OA
ATOM      9  N   UNL     1      48.227   7.442  17.545  0.00  0.00    +0.000 N 
ATOM     10  H   UNL     1      47.267   7.694  17.339  0.00  0.00    +0.000 HD
BRANCH   9  11
ATOM     11  S   UNL     1      48.863   8.349  18.787  0.00  0.00    +0.000 S 
ATOM     12  C   UNL     1      47.422   9.134  19.485  0.00  0.00    +0.000 C 
ATOM     13  O   UNL     1      49.469   7.471  19.757  0.00  0.00    +0.000 OA
ATOM     14  O   UNL     1      49.647   9.376  18.128  0.00  0.00    +0.000 OA
ENDBRANCH   9  11
ENDBRANCH   4   7
BRANCH   1  15
ATOM     15  N   UNL     1      46.050   3.906  12.619  0.00  0.00    +0.000 N 
ATOM     16  H   UNL     1      45.881   2.961  12.961  0.00  0.00    +0.000 HD
BRANCH  15  17
ATOM     17  C   UNL     1      44.816   4.537  12.168  0.00  0.00    +0.000 C 
BRANCH  17  19
ATOM     18  C   UNL     1      43.238   2.589  11.528  0.00  0.00    +0.000 C 
ATOM     19  C   UNL     1      44.150   3.709  11.102  0.00  0.00    +0.000 C 
BRANCH  19  20
ATOM     20  C   UNL     1      44.861   3.504   9.816  0.00  0.00    +0.000 A 
ATOM     21  C   UNL     1      45.260   4.596   9.029  0.00  0.00    +0.000 A 
ATOM     22  C   UNL     1      46.047   4.418   7.889  0.00  0.00    +0.000 A 
ATOM     23  C   UNL     1      46.445   3.138   7.512  0.00  0.00    +0.000 A 
ATOM     24  C   UNL     1      46.028   2.033   8.258  0.00  0.00    +0.000 A 
ATOM     25  C   UNL     1      45.227   2.217   9.395  0.00  0.00    +0.000 A 
BRANCH  24  26
ATOM     26  C   UNL     1      46.453   0.717   7.880  0.00  0.00    +0.000 C 
ATOM     27  N   UNL     1      46.787  -0.354   7.583  0.00  0.00    +0.000 NA
ENDBRANCH  24  26
ENDBRANCH  19  20
ENDBRANCH  17  19
ENDBRANCH  15  17
ENDBRANCH   1  15
TORSDOF 7
ENDMDL
MODEL 6
REMARK VINA RESULT:    -5.938      4.589      7.753
REMARK INTER + INTRA:          -9.681
REMARK INTER:                  -8.488
REMARK INTRA:                  -1.193
REMARK UNBOUND:                -1.313
REMARK  Name = 
REMARK  9 active torsions:
REMARK  status: ('A' for Active; 'I' for Inactive)
REMARK    1  A    between atoms: C_1  and  C_2
REMARK    2  A    between atoms: C_2  and  C_3
REMARK    3  A    between atoms: C_2  and  C_18
REMARK    4  A    between atoms: C_3  and  N_4
REMARK    5  A    between atoms: N_4  and  C_5
REMARK    6  A    between atoms: C_8  and  C_9
REMARK    7  A    between atoms: N_11  and  S_12
REMARK    8  A    between atoms: S_12  and  C_13
REMARK    9  A    between atoms: C_22  and  C_23
REMARK                            x       y       z     vdW  Elec       q    Type
REMARK                         _______ _______ _______ _____ _____    ______ ____
ROOT
ATOM      1  C   UNL     1      48.696   7.750  14.206  0.00  0.00    +0.000 A 
ATOM      2  C   UNL     1      48.599   6.475  13.631  0.00  0.00    +0.000 A 
ATOM      3  C   UNL     1      47.466   6.085  12.898  0.00  0.00    +0.000 A 
ATOM      4  C   UNL     1      46.390   6.966  12.751  0.00  0.00    +0.000 A 
ATOM      5  C   UNL     1      46.460   8.225  13.354  0.00  0.00    +0.000 A 
ATOM      6  C   UNL     1      47.593   8.603  14.082  0.00  0.00    +0.000 A 
ENDROOT
BRANCH   4   7
ATOM      7  C   UNL     1      45.151   6.618  12.013  0.00  0.00    +0.000 C 
ATOM      8  O   UNL     1      44.546   7.465  11.374  0.00  0.00    +0.000 OA
ATOM      9  N   UNL     1      44.694   5.296  12.147  0.00  0.00    +0.000 N 
ATOM     10  H   UNL     1      45.258   4.567  12.569  0.00  0.00    +0.000 HD
BRANCH   9  11
ATOM     11  S   UNL     1      43.382   4.683  11.328  0.00  0.00    +0.000 S 
ATOM     12  C   UNL     1      43.347   2.979  11.852  0.00  0.00    +0.000 C 
ATOM     13  O   UNL     1      42.187   5.361  11.764  0.00  0.00    +0.000 OA
ATOM     14  O   UNL     1      43.777   4.705   9.932  0.00  0.00    +0.000 OA
ENDBRANCH   9  11
ENDBRANCH   4   7
BRANCH   1  15
ATOM     15  N   UNL     1      49.774   8.185  14.997  0.00  0.00    +0.000 N 
ATOM     16  H   UNL     1      49.488   8.991  15.550  0.00  0.00    +0.000 HD
BRANCH  15  17
ATOM     17  C   UNL     1      50.448   7.188  15.820  0.00  0.00    +0.000 C 
BRANCH  17  19
ATOM     18  C   UNL     1      49.810   7.541  18.303  0.00  0.00    +0.000 C 
ATOM     19  C   UNL     1      49.598   6.809  17.004  0.00  0.00    +0.000 C 
BRANCH  19  20
ATOM     20  C   UNL     1      49.139   5.403  17.126  0.00  0.00    +0.000 A 
ATOM     21  C   UNL     1      47.778   5.076  17.019  0.00  0.00    +0.000 A 
ATOM     22  C   UNL     1      47.354   3.745  16.996  0.00  0.00    +0.000 A 
ATOM     23  C   UNL     1      48.287   2.716  17.086  0.00  0.00    +0.000 A 
ATOM     24  C   UNL     1      49.644   3.019  17.231  0.00  0.00    +0.000 A 
ATOM     25  C   UNL     1      50.063   4.357  17.267  0.00  0.00    +0.000 A 
BRANCH  24  26
ATOM     26  C   UNL     1      50.605   1.959  17.306  0.00  0.00    +0.000 C 
ATOM     27  N   UNL     1      51.374   1.091  17.371  0.00  0.00    +0.000 NA
ENDBRANCH  24  26
ENDBRANCH  19  20
ENDBRANCH  17  19
ENDBRANCH  15  17
ENDBRANCH   1  15
TORSDOF 7
ENDMDL
MODEL 7
REMARK VINA RESULT:    -5.800      3.911      7.578
REMARK INTER + INTRA:          -9.487
REMARK INTER:                  -7.929
REMARK INTRA:                  -1.558
REMARK UNBOUND:                -1.313
REMARK  Name = 
REMARK  9 active torsions:
REMARK  status: ('A' for Active; 'I' for Inactive)
REMARK    1  A    between atoms: C_1  and  C_2
REMARK    2  A    between atoms: C_2  and  C_3
REMARK    3  A    between atoms: C_2  and  C_18
REMARK    4  A    between atoms: C_3  and  N_4
REMARK    5  A    between atoms: N_4  and  C_5
REMARK    6  A    between atoms: C_8  and  C_9
REMARK    7  A    between atoms: N_11  and  S_12
REMARK    8  A    between atoms: S_12  and  C_13
REMARK    9  A    between atoms: C_22  and  C_23
REMARK                            x       y       z     vdW  Elec       q    Type
REMARK                         _______ _______ _______ _____ _____    ______ ____
ROOT
ATOM      1  C   UNL     1      48.634   8.428  13.955  0.00  0.00    +0.000 A 
ATOM      2  C   UNL     1      49.165   7.372  13.201  0.00  0.00    +0.000 A 
ATOM      3  C   UNL     1      48.340   6.528  12.439  0.00  0.00    +0.000 A 
ATOM      4  C   UNL     1      46.954   6.713  12.443  0.00  0.00    +0.000 A 
ATOM      5  C   UNL     1      46.411   7.739  13.224  0.00  0.00    +0.000 A 
ATOM      6  C   UNL     1      47.242   8.573  13.979  0.00  0.00    +0.000 A 
ENDROOT
BRANCH   4   7
ATOM      7  C   UNL     1      46.016   5.848  11.686  0.00  0.00    +0.000 C 
ATOM      8  O   UNL     1      45.778   6.067  10.508  0.00  0.00    +0.000 OA
ATOM      9  N   UNL     1      45.388   4.823  12.411  0.00  0.00    +0.000 N 
ATOM     10  H   UNL     1      45.679   4.563  13.347  0.00  0.00    +0.000 HD
BRANCH   9  11
ATOM     11  S   UNL     1      44.379   3.689  11.727  0.00  0.00    +0.000 S 
ATOM     12  C   UNL     1      42.963   4.658  11.243  0.00  0.00    +0.000 C 
ATOM     13  O   UNL     1      45.016   3.124  10.564  0.00  0.00    +0.000 OA
ATOM     14  O   UNL     1      43.975   2.842  12.834  0.00  0.00    +0.000 OA
ENDBRANCH   9  11
ENDBRANCH   4   7
BRANCH   1  15
ATOM     15  N   UNL     1      49.395   9.274  14.781  0.00  0.00    +0.000 N 
ATOM     16  H   UNL     1      49.345  10.229  14.430  0.00  0.00    +0.000 HD
BRANCH  15  17
ATOM     17  C   UNL     1      49.137   9.222  16.215  0.00  0.00    +0.000 C 
BRANCH  17  19
ATOM     18  C   UNL     1      51.240   7.740  16.499  0.00  0.00    +0.000 C 
ATOM     19  C   UNL     1      49.798   8.018  16.833  0.00  0.00    +0.000 C 
BRANCH  19  20
ATOM     20  C   UNL     1      48.965   6.826  17.129  0.00  0.00    +0.000 A 
ATOM     21  C   UNL     1      48.352   6.666  18.381  0.00  0.00    +0.000 A 
ATOM     22  C   UNL     1      47.459   5.619  18.620  0.00  0.00    +0.000 A 
ATOM     23  C   UNL     1      47.169   4.707  17.609  0.00  0.00    +0.000 A 
ATOM     24  C   UNL     1      47.798   4.824  16.367  0.00  0.00    +0.000 A 
ATOM     25  C   UNL     1      48.703   5.870  16.136  0.00  0.00    +0.000 A 
BRANCH  24  26
ATOM     26  C   UNL     1      47.485   3.896  15.320  0.00  0.00    +0.000 C 
ATOM     27  N   UNL     1      47.239   3.153  14.463  0.00  0.00    +0.000 NA
ENDBRANCH  24  26
ENDBRANCH  19  20
ENDBRANCH  17  19
ENDBRANCH  15  17
ENDBRANCH   1  15
TORSDOF 7
ENDMDL
MODEL 8
REMARK VINA RESULT:    -5.697      4.328      7.975
REMARK INTER + INTRA:          -9.341
REMARK INTER:                  -8.320
REMARK INTRA:                  -1.020
REMARK UNBOUND:                -1.313
REMARK  Name = 
REMARK  9 active torsions:
REMARK  status: ('A' for Active; 'I' for Inactive)
REMARK    1  A    between atoms: C_1  and  C_2
REMARK    2  A    between atoms: C_2  and  C_3
REMARK    3  A    between atoms: C_2  and  C_18
REMARK    4  A    between atoms: C_3  and  N_4
REMARK    5  A    between atoms: N_4  and  C_5
REMARK    6  A    between atoms: C_8  and  C_9
REMARK    7  A    between atoms: N_11  and  S_12
REMARK    8  A    between atoms: S_12  and  C_13
REMARK    9  A    between atoms: C_22  and  C_23
REMARK                            x       y       z     vdW  Elec       q    Type
REMARK                         _______ _______ _______ _____ _____    ______ ____
ROOT
ATOM      1  C   UNL     1      48.772   7.967  13.661  0.00  0.00    +0.000 A 
ATOM      2  C   UNL     1      48.796   6.625  13.257  0.00  0.00    +0.000 A 
ATOM      3  C   UNL     1      47.626   5.957  12.862  0.00  0.00    +0.000 A 
ATOM      4  C   UNL     1      46.396   6.622  12.890  0.00  0.00    +0.000 A 
ATOM      5  C   UNL     1      46.355   7.949  13.327  0.00  0.00    +0.000 A 
ATOM      6  C   UNL     1      47.527   8.605  13.720  0.00  0.00    +0.000 A 
ENDROOT
BRANCH   4   7
ATOM      7  C   UNL     1      45.115   5.977  12.511  0.00  0.00    +0.000 C 
ATOM      8  O   UNL     1      44.169   5.966  13.284  0.00  0.00    +0.000 OA
ATOM      9  N   UNL     1      45.082   5.340  11.260  0.00  0.00    +0.000 N 
ATOM     10  H   UNL     1      45.816   5.458  10.571  0.00  0.00    +0.000 HD
BRANCH   9  11
ATOM     11  S   UNL     1      43.717   4.644  10.611  0.00  0.00    +0.000 S 
ATOM     12  C   UNL     1      43.568   3.125  11.534  0.00  0.00    +0.000 C 
ATOM     13  O   UNL     1      42.580   5.494  10.866  0.00  0.00    +0.000 OA
ATOM     14  O   UNL     1      44.091   4.298   9.253  0.00  0.00    +0.000 OA
ENDBRANCH   9  11
ENDBRANCH   4   7
BRANCH   1  15
ATOM     15  N   UNL     1      49.894   8.678  14.121  0.00  0.00    +0.000 N 
ATOM     16  H   UNL     1      49.588   9.505  14.633  0.00  0.00    +0.000 HD
BRANCH  15  17
ATOM     17  C   UNL     1      50.902   7.934  14.865  0.00  0.00    +0.000 C 
BRANCH  17  19
ATOM     18  C   UNL     1      50.732   8.596  17.362  0.00  0.00    +0.000 C 
ATOM     19  C   UNL     1      50.417   7.622  16.257  0.00  0.00    +0.000 C 
BRANCH  19  20
ATOM     20  C   UNL     1      50.304   6.200  16.665  0.00  0.00    +0.000 A 
ATOM     21  C   UNL     1      51.425   5.488  17.120  0.00  0.00    +0.000 A 
ATOM     22  C   UNL     1      51.300   4.195  17.634  0.00  0.00    +0.000 A 
ATOM     23  C   UNL     1      50.049   3.588  17.695  0.00  0.00    +0.000 A 
ATOM     24  C   UNL     1      48.925   4.264  17.212  0.00  0.00    +0.000 A 
ATOM     25  C   UNL     1      49.057   5.557  16.686  0.00  0.00    +0.000 A 
BRANCH  24  26
ATOM     26  C   UNL     1      47.634   3.645  17.293  0.00  0.00    +0.000 C 
ATOM     27  N   UNL     1      46.593   3.136  17.346  0.00  0.00    +0.000 NA
ENDBRANCH  24  26
ENDBRANCH  19  20
ENDBRANCH  17  19
ENDBRANCH  15  17
ENDBRANCH   1  15
TORSDOF 7
ENDMDL
MODEL 9
REMARK VINA RESULT:    -5.671      4.488      8.215
REMARK INTER + INTRA:          -9.305
REMARK INTER:                  -8.212
REMARK INTRA:                  -1.093
REMARK UNBOUND:                -1.313
REMARK  Name = 
REMARK  9 active torsions:
REMARK  status: ('A' for Active; 'I' for Inactive)
REMARK    1  A    between atoms: C_1  and  C_2
REMARK    2  A    between atoms: C_2  and  C_3
REMARK    3  A    between atoms: C_2  and  C_18
REMARK    4  A    between atoms: C_3  and  N_4
REMARK    5  A    between atoms: N_4  and  C_5
REMARK    6  A    between atoms: C_8  and  C_9
REMARK    7  A    between atoms: N_11  and  S_12
REMARK    8  A    between atoms: S_12  and  C_13
REMARK    9  A    between atoms: C_22  and  C_23
REMARK                            x       y       z     vdW  Elec       q    Type
REMARK                         _______ _______ _______ _____ _____    ______ ____
ROOT
ATOM      1  C   UNL     1      48.106   7.783  13.864  0.00  0.00    +0.000 A 
ATOM      2  C   UNL     1      46.965   8.439  13.382  0.00  0.00    +0.000 A 
ATOM      3  C   UNL     1      45.868   7.725  12.872  0.00  0.00    +0.000 A 
ATOM      4  C   UNL     1      45.908   6.328  12.814  0.00  0.00    +0.000 A 
ATOM      5  C   UNL     1      47.057   5.665  13.257  0.00  0.00    +0.000 A 
ATOM      6  C   UNL     1      48.144   6.388  13.761  0.00  0.00    +0.000 A 
ENDROOT
BRANCH   4   7
ATOM      7  C   UNL     1      44.800   5.506  12.268  0.00  0.00    +0.000 C 
ATOM      8  O   UNL     1      43.666   5.617  12.705  0.00  0.00    +0.000 OA
ATOM      9  N   UNL     1      45.147   4.568  11.282  0.00  0.00    +0.000 N 
ATOM     10  H   UNL     1      46.055   4.563  10.832  0.00  0.00    +0.000 HD
BRANCH   9  11
ATOM     11  S   UNL     1      44.040   3.619  10.478  0.00  0.00    +0.000 S 
ATOM     12  C   UNL     1      45.074   2.486   9.569  0.00  0.00    +0.000 C 
ATOM     13  O   UNL     1      43.240   2.901  11.438  0.00  0.00    +0.000 OA
ATOM     14  O   UNL     1      43.419   4.513   9.518  0.00  0.00    +0.000 OA
ENDBRANCH   9  11
ENDBRANCH   4   7
BRANCH   1  15
ATOM     15  N   UNL     1      49.259   8.436  14.334  0.00  0.00    +0.000 N 
ATOM     16  H   UNL     1      49.552   9.140  13.658  0.00  0.00    +0.000 HD
BRANCH  15  17
ATOM     17  C   UNL     1      49.218   8.982  15.685  0.00  0.00    +0.000 C 
BRANCH  17  19
ATOM     18  C   UNL     1      51.159   7.372  16.266  0.00  0.00    +0.000 C 
ATOM     19  C   UNL     1      49.869   8.039  16.663  0.00  0.00    +0.000 C 
BRANCH  19  20
ATOM     20  C   UNL     1      49.001   7.264  17.585  0.00  0.00    +0.000 A 
ATOM     21  C   UNL     1      48.519   7.835  18.773  0.00  0.00    +0.000 A 
ATOM     22  C   UNL     1      47.595   7.162  19.575  0.00  0.00    +0.000 A 
ATOM     23  C   UNL     1      47.142   5.899  19.205  0.00  0.00    +0.000 A 
ATOM     24  C   UNL     1      47.637   5.296  18.046  0.00  0.00    +0.000 A 
ATOM     25  C   UNL     1      48.574   5.971  17.251  0.00  0.00    +0.000 A 
BRANCH  24  26
ATOM     26  C   UNL     1      47.156   4.003  17.655  0.00  0.00    +0.000 C 
ATOM     27  N   UNL     1      46.780   2.953  17.334  0.00  0.00    +0.000 NA
ENDBRANCH  24  26
ENDBRANCH  19  20
ENDBRANCH  17  19
ENDBRANCH  15  17
ENDBRANCH   1  15
TORSDOF 7
ENDMDL
