MODEL 1
REMARK VINA RESULT:    -6.330      0.000      0.000
REMARK INTER + INTRA:          -7.761
REMARK INTER:                  -7.440
REMARK INTRA:                  -0.321
REMARK UNBOUND:                -0.321
REMARK  Name = 
REMARK  4 active torsions:
REMARK  status: ('A' for Active; 'I' for Inactive)
REMARK    1  A    between atoms: C_1  and  N_2
REMARK    2  A    between atoms: C_10  and  C_11
REMARK    3  A    between atoms: C_12  and  C_13
REMARK    4  A    between atoms: C_16  and  C_17
REMARK                            x       y       z     vdW  Elec       q    Type
REMARK                         _______ _______ _______ _____ _____    ______ ____
ROOT
ATOM      1  C   UNL     1      55.256   6.534  16.438  0.00  0.00    +0.000 C 
ATOM      2  N   UNL     1      53.918   6.842  16.938  0.00  0.00    +0.000 NA
ATOM      3  C   UNL     1      52.915   6.637  15.865  0.00  0.00    +0.000 C 
ATOM      4  C   UNL     1      51.471   6.869  16.353  0.00  0.00    +0.000 C 
ATOM      5  N   UNL     1      51.219   6.007  17.505  0.00  0.00    +0.000 N 
ATOM      6  C   UNL     1      49.936   5.575  17.714  0.00  0.00    +0.000 A 
ATOM      7  N   UNL     1      49.500   5.340  18.958  0.00  0.00    +0.000 NA
ATOM      8  C   UNL     1      48.261   4.840  19.092  0.00  0.00    +0.000 A 
ATOM      9  C   UNL     1      47.446   4.532  18.031  0.00  0.00    +0.000 A 
ATOM     10  C   UNL     1      47.977   4.776  16.787  0.00  0.00    +0.000 A 
ATOM     11  N   UNL     1      49.196   5.314  16.626  0.00  0.00    +0.000 NA
ATOM     12  C   UNL     1      52.138   6.198  18.621  0.00  0.00    +0.000 C 
ATOM     13  C   UNL     1      53.584   5.982  18.101  0.00  0.00    +0.000 C 
ENDROOT
BRANCH  10  14
ATOM     14  C   UNL     1      47.329   4.422  15.517  0.00  0.00    +0.000 C 
ATOM     15  C   UNL     1      46.996   5.277  14.540  0.00  0.00    +0.000 C 
BRANCH  15  16
ATOM     16  C   UNL     1      46.283   4.928  13.308  0.00  0.00    +0.000 A 
ATOM     17  C   UNL     1      46.191   5.773  12.207  0.00  0.00    +0.000 A 
ATOM     18  C   UNL     1      45.550   5.308  11.057  0.00  0.00    +0.000 A 
ATOM     19  C   UNL     1      45.028   4.014  11.026  0.00  0.00    +0.000 A 
ATOM     20  C   UNL     1      45.181   3.241  12.166  0.00  0.00    +0.000 A 
ATOM     21  N   UNL     1      45.800   3.665  13.297  0.00  0.00    +0.000 NA
BRANCH  19  22
ATOM     22  C   UNL     1      44.355   3.535   9.794  0.00  0.00    +0.000 C 
ATOM     23  N   UNL     1      44.092   4.424   8.790  0.00  0.00    +0.000 N 
ATOM     24  O   UNL     1      44.031   2.360   9.667  0.00  0.00    +0.000 OA
ATOM     25  H   UNL     1      44.323   5.405   8.782  0.00  0.00    +0.000 HD
ATOM     26  H   UNL     1      43.636   4.049   7.966  0.00  0.00    +0.000 HD
ENDBRANCH  19  22
ENDBRANCH  15  16
ENDBRANCH  10  14
TORSDOF 3
ENDMDL
MODEL 2
REMARK VINA RESULT:    -6.287      3.772      9.294
REMARK INTER + INTRA:          -7.710
REMARK INTER:                  -7.405
REMARK INTRA:                  -0.305
REMARK UNBOUND:                -0.321
REMARK  Name = 
REMARK  4 active torsions:
REMARK  status: ('A' for Active; 'I' for Inactive)
REMARK    1  A    between atoms: C_1  and  N_2
REMARK    2  A    between atoms: C_10  and  C_11
REMARK    3  A    between atoms: C_12  and  C_13
REMARK    4  A    between atoms: C_16  and  C_17
REMARK                            x       y       z     vdW  Elec       q    Type
REMARK                         _______ _______ _______ _____ _____    ______ ____
ROOT
ATOM      1  C   UNL     1      47.553   1.948   5.894  0.00  0.00    +0.000 C 
ATOM      2  N   UNL     1      46.396   2.097   6.773  0.00  0.00    +0.000 NA
ATOM      3  C   UNL     1      46.799   1.872   8.183  0.00  0.00    +0.000 C 
ATOM      4  C   UNL     1      45.637   2.093   9.173  0.00  0.00    +0.000 C 
ATOM      5  N   UNL     1      45.094   3.434   8.969  0.00  0.00    +0.000 N 
ATOM      6  C   UNL     1      44.536   4.069  10.046  0.00  0.00    +0.000 A 
ATOM      7  N   UNL     1      43.532   4.938   9.868  0.00  0.00    +0.000 NA
ATOM      8  C   UNL     1      43.084   5.590  10.953  0.00  0.00    +0.000 A 
ATOM      9  C   UNL     1      43.618   5.437  12.209  0.00  0.00    +0.000 A 
ATOM     10  C   UNL     1      44.662   4.548  12.302  0.00  0.00    +0.000 A 
ATOM     11  N   UNL     1      45.103   3.853  11.243  0.00  0.00    +0.000 NA
ATOM     12  C   UNL     1      44.626   3.701   7.614  0.00  0.00    +0.000 C 
ATOM     13  C   UNL     1      45.805   3.451   6.636  0.00  0.00    +0.000 C 
ENDROOT
BRANCH  10  14
ATOM     14  C   UNL     1      45.451   4.311  13.518  0.00  0.00    +0.000 C 
ATOM     15  C   UNL     1      46.391   5.127  14.017  0.00  0.00    +0.000 C 
BRANCH  15  16
ATOM     16  C   UNL     1      47.226   4.850  15.188  0.00  0.00    +0.000 A 
ATOM     17  C   UNL     1      48.226   5.705  15.639  0.00  0.00    +0.000 A 
ATOM     18  C   UNL     1      48.910   5.377  16.812  0.00  0.00    +0.000 A 
ATOM     19  C   UNL     1      48.576   4.216  17.512  0.00  0.00    +0.000 A 
ATOM     20  C   UNL     1      47.556   3.435  16.992  0.00  0.00    +0.000 A 
ATOM     21  N   UNL     1      46.873   3.729  15.857  0.00  0.00    +0.000 NA
BRANCH  19  22
ATOM     22  C   UNL     1      49.311   3.886  18.757  0.00  0.00    +0.000 C 
ATOM     23  N   UNL     1      48.623   3.367  19.819  0.00  0.00    +0.000 N 
ATOM     24  O   UNL     1      50.518   4.072  18.846  0.00  0.00    +0.000 OA
ATOM     25  H   UNL     1      47.636   3.164  19.852  0.00  0.00    +0.000 HD
ATOM     26  H   UNL     1      49.169   3.152  20.645  0.00  0.00    +0.000 HD
ENDBRANCH  19  22
ENDBRANCH  15  16
ENDBRANCH  10  14
TORSDOF 3
ENDMDL
MODEL 3
REMARK VINA RESULT:    -5.919      1.909      3.454
REMARK INTER + INTRA:          -7.277
REMARK INTER:                  -6.943
REMARK INTRA:                  -0.335
REMARK UNBOUND:                -0.321
REMARK  Name = 
REMARK  4 active torsions:
REMARK  status: ('A' for Active; 'I' for Inactive)
REMARK    1  A    between atoms: C_1  and  N_2
REMARK    2  A    between atoms: C_10  and  C_11
REMARK    3  A    between atoms: C_12  and  C_13
REMARK    4  A    between atoms: C_16  and  C_17
REMARK                            x       y       z     vdW  Elec       q    Type
REMARK                         _______ _______ _______ _____ _____    ______ ____
ROOT
ATOM      1  C   UNL     1      50.294   5.067  21.041  0.00  0.00    +0.000 C 
ATOM      2  N   UNL     1      51.018   5.385  19.813  0.00  0.00    +0.000 NA
ATOM      3  C   UNL     1      50.237   4.939  18.634  0.00  0.00    +0.000 C 
ATOM      4  C   UNL     1      50.912   5.317  17.300  0.00  0.00    +0.000 C 
ATOM      5  N   UNL     1      51.147   6.759  17.283  0.00  0.00    +0.000 N 
ATOM      6  C   UNL     1      51.142   7.395  16.070  0.00  0.00    +0.000 A 
ATOM      7  N   UNL     1      51.904   8.479  15.877  0.00  0.00    +0.000 NA
ATOM      8  C   UNL     1      51.792   9.106  14.694  0.00  0.00    +0.000 A 
ATOM      9  C   UNL     1      50.925   8.715  13.704  0.00  0.00    +0.000 A 
ATOM     10  C   UNL     1      50.159   7.610  13.991  0.00  0.00    +0.000 A 
ATOM     11  N   UNL     1      50.280   6.941  15.148  0.00  0.00    +0.000 NA
ATOM     12  C   UNL     1      51.959   7.255  18.388  0.00  0.00    +0.000 C 
ATOM     13  C   UNL     1      51.273   6.844  19.717  0.00  0.00    +0.000 C 
ENDROOT
BRANCH  10  14
ATOM     14  C   UNL     1      49.093   7.085  13.128  0.00  0.00    +0.000 C 
ATOM     15  C   UNL     1      47.898   6.638  13.538  0.00  0.00    +0.000 C 
BRANCH  15  16
ATOM     16  C   UNL     1      46.868   6.046  12.679  0.00  0.00    +0.000 A 
ATOM     17  C   UNL     1      46.606   6.478  11.384  0.00  0.00    +0.000 A 
ATOM     18  C   UNL     1      45.652   5.791  10.629  0.00  0.00    +0.000 A 
ATOM     19  C   UNL     1      44.993   4.689  11.175  0.00  0.00    +0.000 A 
ATOM     20  C   UNL     1      45.333   4.325  12.468  0.00  0.00    +0.000 A 
ATOM     21  N   UNL     1      46.256   4.971  13.225  0.00  0.00    +0.000 NA
BRANCH  19  22
ATOM     22  C   UNL     1      43.987   3.969  10.358  0.00  0.00    +0.000 C 
ATOM     23  N   UNL     1      43.808   4.330   9.051  0.00  0.00    +0.000 N 
ATOM     24  O   UNL     1      43.316   3.062  10.836  0.00  0.00    +0.000 OA
ATOM     25  H   UNL     1      44.309   5.050   8.554  0.00  0.00    +0.000 HD
ATOM     26  H   UNL     1      43.114   3.806   8.532  0.00  0.00    +0.000 HD
ENDBRANCH  19  22
ENDBRANCH  15  16
ENDBRANCH  10  14
TORSDOF 3
ENDMDL
MODEL 4
REMARK VINA RESULT:    -5.668      3.687      9.114
REMARK INTER + INTRA:          -6.983
REMARK INTER:                  -6.682
REMARK INTRA:                  -0.300
REMARK UNBOUND:                -0.321
REMARK  Name = 
REMARK  4 active torsions:
REMARK  status: ('A' for Active; 'I' for Inactive)
REMARK    1  A    between atoms: C_1  and  N_2
REMARK    2  A    between atoms: C_10  and  C_11
REMARK    3  A    between atoms: C_12  and  C_13
REMARK    4  A    between atoms: C_16  and  C_17
REMARK                            x       y       z     vdW  Elec       q    Type
REMARK                         _______ _______ _______ _____ _____    ______ ____
ROOT
ATOM      1  C   UNL     1      44.479   2.346   9.654  0.00  0.00    +0.000 C 
ATOM      2  N   UNL     1      44.381   3.468  10.584  0.00  0.00    +0.000 NA
ATOM      3  C   UNL     1      45.275   3.244  11.746  0.00  0.00    +0.000 C 
ATOM      4  C   UNL     1      45.277   4.432  12.729  0.00  0.00    +0.000 C 
ATOM      5  N   UNL     1      45.629   5.647  11.998  0.00  0.00    +0.000 N 
ATOM      6  C   UNL     1      46.277   6.641  12.682  0.00  0.00    +0.000 A 
ATOM      7  N   UNL     1      46.098   7.922  12.336  0.00  0.00    +0.000 NA
ATOM      8  C   UNL     1      46.824   8.843  12.991  0.00  0.00    +0.000 A 
ATOM      9  C   UNL     1      47.751   8.537  13.957  0.00  0.00    +0.000 A 
ATOM     10  C   UNL     1      47.896   7.199  14.234  0.00  0.00    +0.000 A 
ATOM     11  N   UNL     1      47.153   6.261  13.625  0.00  0.00    +0.000 NA
ATOM     12  C   UNL     1      44.753   5.957  10.875  0.00  0.00    +0.000 C 
ATOM     13  C   UNL     1      44.750   4.740   9.912  0.00  0.00    +0.000 C 
ENDROOT
BRANCH  10  14
ATOM     14  C   UNL     1      48.900   6.639  15.147  0.00  0.00    +0.000 C 
ATOM     15  C   UNL     1      48.653   6.085  16.343  0.00  0.00    +0.000 C 
BRANCH  15  16
ATOM     16  C   UNL     1      49.666   5.596  17.282  0.00  0.00    +0.000 A 
ATOM     17  C   UNL     1      49.384   5.223  18.592  0.00  0.00    +0.000 A 
ATOM     18  C   UNL     1      50.414   4.698  19.376  0.00  0.00    +0.000 A 
ATOM     19  C   UNL     1      51.692   4.547  18.836  0.00  0.00    +0.000 A 
ATOM     20  C   UNL     1      51.872   4.932  17.517  0.00  0.00    +0.000 A 
ATOM     21  N   UNL     1      50.891   5.442  16.731  0.00  0.00    +0.000 NA
BRANCH  19  22
ATOM     22  C   UNL     1      52.773   3.985  19.682  0.00  0.00    +0.000 C 
ATOM     23  N   UNL     1      53.217   2.715  19.439  0.00  0.00    +0.000 N 
ATOM     24  O   UNL     1      53.268   4.639  20.592  0.00  0.00    +0.000 OA
ATOM     25  H   UNL     1      52.891   2.094  18.715  0.00  0.00    +0.000 HD
ATOM     26  H   UNL     1      53.960   2.377  20.039  0.00  0.00    +0.000 HD
ENDBRANCH  19  22
ENDBRANCH  15  16
ENDBRANCH  10  14
TORSDOF 3
ENDMDL
MODEL 5
REMARK VINA RESULT:    -5.169      2.505      2.962
REMARK INTER + INTRA:          -6.396
REMARK INTER:                  -6.126
REMARK INTRA:                  -0.270
REMARK UNBOUND:                -0.321
REMARK  Name = 
REMARK  4 active torsions:
REMARK  status: ('A' for Active; 'I' for Inactive)
REMARK    1  A    between atoms: C_1  and  N_2
REMARK    2  A    between atoms: C_10  and  C_11
REMARK    3  A    between atoms: C_12  and  C_13
REMARK    4  A    between atoms: C_16  and  C_17
REMARK                            x       y       z     vdW  Elec       q    Type
REMARK                         _______ _______ _______ _____ _____    ______ ____
ROOT
ATOM      1  C   UNL     1      55.399   6.043  18.457  0.00  0.00    +0.000 C 
ATOM      2  N   UNL     1      54.708   6.928  17.521  0.00  0.00    +0.000 NA
ATOM      3  C   UNL     1      53.849   6.131  16.612  0.00  0.00    +0.000 C 
ATOM      4  C   UNL     1      53.030   7.014  15.649  0.00  0.00    +0.000 C 
ATOM      5  N   UNL     1      52.252   7.971  16.433  0.00  0.00    +0.000 N 
ATOM      6  C   UNL     1      51.059   8.402  15.918  0.00  0.00    +0.000 A 
ATOM      7  N   UNL     1      50.610   9.632  16.200  0.00  0.00    +0.000 NA
ATOM      8  C   UNL     1      49.396   9.965  15.732  0.00  0.00    +0.000 A 
ATOM      9  C   UNL     1      48.592   9.109  15.021  0.00  0.00    +0.000 A 
ATOM     10  C   UNL     1      49.113   7.857  14.798  0.00  0.00    +0.000 A 
ATOM     11  N   UNL     1      50.340   7.512  15.217  0.00  0.00    +0.000 NA
ATOM     12  C   UNL     1      53.045   8.825  17.309  0.00  0.00    +0.000 C 
ATOM     13  C   UNL     1      53.876   7.916  18.253  0.00  0.00    +0.000 C 
ENDROOT
BRANCH  10  14
ATOM     14  C   UNL     1      48.388   6.752  14.159  0.00  0.00    +0.000 C 
ATOM     15  C   UNL     1      47.363   6.876  13.303  0.00  0.00    +0.000 C 
BRANCH  15  16
ATOM     16  C   UNL     1      46.595   5.769  12.726  0.00  0.00    +0.000 A 
ATOM     17  C   UNL     1      46.394   4.554  13.372  0.00  0.00    +0.000 A 
ATOM     18  C   UNL     1      45.581   3.596  12.761  0.00  0.00    +0.000 A 
ATOM     19  C   UNL     1      44.981   3.875  11.531  0.00  0.00    +0.000 A 
ATOM     20  C   UNL     1      45.229   5.118  10.973  0.00  0.00    +0.000 A 
ATOM     21  N   UNL     1      46.012   6.069  11.544  0.00  0.00    +0.000 NA
BRANCH  19  22
ATOM     22  C   UNL     1      44.118   2.848  10.899  0.00  0.00    +0.000 C 
ATOM     23  N   UNL     1      44.567   2.194   9.785  0.00  0.00    +0.000 N 
ATOM     24  O   UNL     1      43.014   2.581  11.358  0.00  0.00    +0.000 OA
ATOM     25  H   UNL     1      45.458   2.324   9.332  0.00  0.00    +0.000 HD
ATOM     26  H   UNL     1      43.945   1.497   9.393  0.00  0.00    +0.000 HD
ENDBRANCH  19  22
ENDBRANCH  15  16
ENDBRANCH  10  14
TORSDOF 3
ENDMDL
MODEL 6
REMARK VINA RESULT:    -5.168      2.635      3.874
REMARK INTER + INTRA:          -6.395
REMARK INTER:                  -6.090
REMARK INTRA:                  -0.305
REMARK UNBOUND:                -0.321
REMARK  Name = 
REMARK  4 active torsions:
REMARK  status: ('A' for Active; 'I' for Inactive)
REMARK    1  A    between atoms: C_1  and  N_2
REMARK    2  A    between atoms: C_10  and  C_11
REMARK    3  A    between atoms: C_12  and  C_13
REMARK    4  A    between atoms: C_16  and  C_17
REMARK                            x       y       z     vdW  Elec       q    Type
REMARK                         _______ _______ _______ _____ _____    ______ ____
ROOT
ATOM      1  C   UNL     1      52.864   6.738  19.947  0.00  0.00    +0.000 C 
ATOM      2  N   UNL     1      53.109   7.088  18.550  0.00  0.00    +0.000 NA
ATOM      3  C   UNL     1      52.212   6.305  17.666  0.00  0.00    +0.000 C 
ATOM      4  C   UNL     1      52.366   6.687  16.180  0.00  0.00    +0.000 C 
ATOM      5  N   UNL     1      52.149   8.124  16.038  0.00  0.00    +0.000 N 
ATOM      6  C   UNL     1      51.635   8.581  14.854  0.00  0.00    +0.000 A 
ATOM      7  N   UNL     1      51.960   9.800  14.406  0.00  0.00    +0.000 NA
ATOM      8  C   UNL     1      51.358  10.223  13.282  0.00  0.00    +0.000 A 
ATOM      9  C   UNL     1      50.416   9.492  12.601  0.00  0.00    +0.000 A 
ATOM     10  C   UNL     1      50.117   8.263  13.141  0.00  0.00    +0.000 A 
ATOM     11  N   UNL     1      50.734   7.800  14.239  0.00  0.00    +0.000 NA
ATOM     12  C   UNL     1      53.039   8.955  16.840  0.00  0.00    +0.000 C 
ATOM     13  C   UNL     1      52.884   8.538  18.327  0.00  0.00    +0.000 C 
ENDROOT
BRANCH  10  14
ATOM     14  C   UNL     1      49.067   7.365  12.644  0.00  0.00    +0.000 C 
ATOM     15  C   UNL     1      47.812   7.292  13.107  0.00  0.00    +0.000 C 
BRANCH  15  16
ATOM     16  C   UNL     1      46.790   6.343  12.658  0.00  0.00    +0.000 A 
ATOM     17  C   UNL     1      46.298   6.301  11.358  0.00  0.00    +0.000 A 
ATOM     18  C   UNL     1      45.379   5.305  11.020  0.00  0.00    +0.000 A 
ATOM     19  C   UNL     1      44.984   4.369  11.978  0.00  0.00    +0.000 A 
ATOM     20  C   UNL     1      45.540   4.482  13.241  0.00  0.00    +0.000 A 
ATOM     21  N   UNL     1      46.435   5.438  13.598  0.00  0.00    +0.000 NA
BRANCH  19  22
ATOM     22  C   UNL     1      44.011   3.315  11.600  0.00  0.00    +0.000 C 
ATOM     23  N   UNL     1      43.702   2.338  12.505  0.00  0.00    +0.000 N 
ATOM     24  O   UNL     1      43.485   3.309  10.494  0.00  0.00    +0.000 OA
ATOM     25  H   UNL     1      44.064   2.253  13.442  0.00  0.00    +0.000 HD
ATOM     26  H   UNL     1      43.028   1.645  12.204  0.00  0.00    +0.000 HD
ENDBRANCH  19  22
ENDBRANCH  15  16
ENDBRANCH  10  14
TORSDOF 3
ENDMDL
MODEL 7
REMARK VINA RESULT:    -5.051      3.697      9.331
REMARK INTER + INTRA:          -6.257
REMARK INTER:                  -5.982
REMARK INTRA:                  -0.275
REMARK UNBOUND:                -0.321
REMARK  Name = 
REMARK  4 active torsions:
REMARK  status: ('A' for Active; 'I' for Inactive)
REMARK    1  A    between atoms: C_1  and  N_2
REMARK    2  A    between atoms: C_10  and  C_11
REMARK    3  A    between atoms: C_12  and  C_13
REMARK    4  A    between atoms: C_16  and  C_17
REMARK                            x       y       z     vdW  Elec       q    Type
REMARK                         _______ _______ _______ _____ _____    ______ ____
ROOT
ATOM      1  C   UNL     1      44.165   2.133   9.445  0.00  0.00    +0.000 C 
ATOM      2  N   UNL     1      44.093   3.111  10.528  0.00  0.00    +0.000 NA
ATOM      3  C   UNL     1      45.307   3.019  11.375  0.00  0.00    +0.000 C 
ATOM      4  C   UNL     1      45.330   4.081  12.493  0.00  0.00    +0.000 C 
ATOM      5  N   UNL     1      45.187   5.403  11.889  0.00  0.00    +0.000 N 
ATOM      6  C   UNL     1      45.770   6.465  12.527  0.00  0.00    +0.000 A 
ATOM      7  N   UNL     1      45.226   7.685  12.436  0.00  0.00    +0.000 NA
ATOM      8  C   UNL     1      45.890   8.700  13.015  0.00  0.00    +0.000 A 
ATOM      9  C   UNL     1      47.096   8.554  13.654  0.00  0.00    +0.000 A 
ATOM     10  C   UNL     1      47.601   7.276  13.680  0.00  0.00    +0.000 A 
ATOM     11  N   UNL     1      46.938   6.238  13.147  0.00  0.00    +0.000 NA
ATOM     12  C   UNL     1      43.983   5.579  11.087  0.00  0.00    +0.000 C 
ATOM     13  C   UNL     1      43.971   4.487   9.984  0.00  0.00    +0.000 C 
ENDROOT
BRANCH  10  14
ATOM     14  C   UNL     1      48.920   6.909  14.211  0.00  0.00    +0.000 C 
ATOM     15  C   UNL     1      49.504   7.436  15.296  0.00  0.00    +0.000 C 
BRANCH  15  16
ATOM     16  C   UNL     1      50.851   7.120  15.778  0.00  0.00    +0.000 A 
ATOM     17  C   UNL     1      51.117   6.140  16.729  0.00  0.00    +0.000 A 
ATOM     18  C   UNL     1      52.448   5.871  17.060  0.00  0.00    +0.000 A 
ATOM     19  C   UNL     1      53.477   6.572  16.430  0.00  0.00    +0.000 A 
ATOM     20  C   UNL     1      53.114   7.518  15.486  0.00  0.00    +0.000 A 
ATOM     21  N   UNL     1      51.832   7.800  15.142  0.00  0.00    +0.000 NA
BRANCH  19  22
ATOM     22  C   UNL     1      54.884   6.270  16.791  0.00  0.00    +0.000 C 
ATOM     23  N   UNL     1      55.725   7.298  17.113  0.00  0.00    +0.000 N 
ATOM     24  O   UNL     1      55.299   5.117  16.802  0.00  0.00    +0.000 OA
ATOM     25  H   UNL     1      55.489   8.277  17.147  0.00  0.00    +0.000 HD
ATOM     26  H   UNL     1      56.674   7.041  17.358  0.00  0.00    +0.000 HD
ENDBRANCH  19  22
ENDBRANCH  15  16
ENDBRANCH  10  14
TORSDOF 3
ENDMDL
MODEL 8
REMARK VINA RESULT:    -4.469      4.211      9.411
REMARK INTER + INTRA:          -5.573
REMARK INTER:                  -5.292
REMARK INTRA:                  -0.281
REMARK UNBOUND:                -0.321
REMARK  Name = 
REMARK  4 active torsions:
REMARK  status: ('A' for Active; 'I' for Inactive)
REMARK    1  A    between atoms: C_1  and  N_2
REMARK    2  A    between atoms: C_10  and  C_11
REMARK    3  A    between atoms: C_12  and  C_13
REMARK    4  A    between atoms: C_16  and  C_17
REMARK                            x       y       z     vdW  Elec       q    Type
REMARK                         _______ _______ _______ _____ _____    ______ ____
ROOT
ATOM      1  C   UNL     1      44.466   7.310  11.391  0.00  0.00    +0.000 C 
ATOM      2  N   UNL     1      45.504   6.397  11.865  0.00  0.00    +0.000 NA
ATOM      3  C   UNL     1      46.488   7.135  12.694  0.00  0.00    +0.000 C 
ATOM      4  C   UNL     1      47.568   6.212  13.292  0.00  0.00    +0.000 C 
ATOM      5  N   UNL     1      46.912   5.145  14.045  0.00  0.00    +0.000 N 
ATOM      6  C   UNL     1      47.581   4.612  15.115  0.00  0.00    +0.000 A 
ATOM      7  N   UNL     1      47.391   3.330  15.454  0.00  0.00    +0.000 NA
ATOM      8  C   UNL     1      48.011   2.889  16.561  0.00  0.00    +0.000 A 
ATOM      9  C   UNL     1      48.789   3.684  17.366  0.00  0.00    +0.000 A 
ATOM     10  C   UNL     1      48.911   4.993  16.964  0.00  0.00    +0.000 A 
ATOM     11  N   UNL     1      48.336   5.449  15.841  0.00  0.00    +0.000 NA
ATOM     12  C   UNL     1      45.972   4.344  13.271  0.00  0.00    +0.000 C 
ATOM     13  C   UNL     1      44.909   5.296  12.662  0.00  0.00    +0.000 C 
ENDROOT
BRANCH  10  14
ATOM     14  C   UNL     1      49.600   6.040  17.728  0.00  0.00    +0.000 C 
ATOM     15  C   UNL     1      50.899   6.358  17.631  0.00  0.00    +0.000 C 
BRANCH  15  16
ATOM     16  C   UNL     1      51.597   7.354  18.449  0.00  0.00    +0.000 A 
ATOM     17  C   UNL     1      52.402   7.029  19.535  0.00  0.00    +0.000 A 
ATOM     18  C   UNL     1      53.081   8.055  20.198  0.00  0.00    +0.000 A 
ATOM     19  C   UNL     1      52.951   9.373  19.757  0.00  0.00    +0.000 A 
ATOM     20  C   UNL     1      52.139   9.596  18.657  0.00  0.00    +0.000 A 
ATOM     21  N   UNL     1      51.469   8.621  17.992  0.00  0.00    +0.000 NA
BRANCH  19  22
ATOM     22  C   UNL     1      53.682  10.448  20.470  0.00  0.00    +0.000 C 
ATOM     23  N   UNL     1      54.988  10.248  20.820  0.00  0.00    +0.000 N 
ATOM     24  O   UNL     1      53.133  11.507  20.749  0.00  0.00    +0.000 OA
ATOM     25  H   UNL     1      55.540   9.425  20.632  0.00  0.00    +0.000 HD
ATOM     26  H   UNL     1      55.447  11.014  21.299  0.00  0.00    +0.000 HD
ENDBRANCH  19  22
ENDBRANCH  15  16
ENDBRANCH  10  14
TORSDOF 3
ENDMDL
MODEL 9
REMARK VINA RESULT:    -4.448      6.645      8.983
REMARK INTER + INTRA:          -5.548
REMARK INTER:                  -5.253
REMARK INTRA:                  -0.296
REMARK UNBOUND:                -0.321
REMARK  Name = 
REMARK  4 active torsions:
REMARK  status: ('A' for Active; 'I' for Inactive)
REMARK    1  A    between atoms: C_1  and  N_2
REMARK    2  A    between atoms: C_10  and  C_11
REMARK    3  A    between atoms: C_12  and  C_13
REMARK    4  A    between atoms: C_16  and  C_17
REMARK                            x       y       z     vdW  Elec       q    Type
REMARK                         _______ _______ _______ _____ _____    ______ ____
ROOT
ATOM      1  C   UNL     1      43.930   5.658  12.171  0.00  0.00    +0.000 C 
ATOM      2  N   UNL     1      45.073   6.347  12.767  0.00  0.00    +0.000 NA
ATOM      3  C   UNL     1      46.335   5.688  12.352  0.00  0.00    +0.000 C 
ATOM      4  C   UNL     1      47.585   6.417  12.884  0.00  0.00    +0.000 C 
ATOM      5  N   UNL     1      47.534   7.813  12.456  0.00  0.00    +0.000 N 
ATOM      6  C   UNL     1      48.722   8.466  12.258  0.00  0.00    +0.000 A 
ATOM      7  N   UNL     1      48.807   9.785  12.471  0.00  0.00    +0.000 NA
ATOM      8  C   UNL     1      49.975  10.381  12.179  0.00  0.00    +0.000 A 
ATOM      9  C   UNL     1      51.056   9.720  11.649  0.00  0.00    +0.000 A 
ATOM     10  C   UNL     1      50.878   8.374  11.434  0.00  0.00    +0.000 A 
ATOM     11  N   UNL     1      49.737   7.747  11.756  0.00  0.00    +0.000 NA
ATOM     12  C   UNL     1      46.342   8.536  12.881  0.00  0.00    +0.000 C 
ATOM     13  C   UNL     1      45.098   7.773  12.353  0.00  0.00    +0.000 C 
ENDROOT
BRANCH  10  14
ATOM     14  C   UNL     1      51.856   7.497  10.779  0.00  0.00    +0.000 C 
ATOM     15  C   UNL     1      52.033   7.367   9.456  0.00  0.00    +0.000 C 
BRANCH  15  16
ATOM     16  C   UNL     1      52.959   6.436   8.807  0.00  0.00    +0.000 A 
ATOM     17  C   UNL     1      53.956   5.743   9.486  0.00  0.00    +0.000 A 
ATOM     18  C   UNL     1      54.733   4.823   8.779  0.00  0.00    +0.000 A 
ATOM     19  C   UNL     1      54.494   4.606   7.421  0.00  0.00    +0.000 A 
ATOM     20  C   UNL     1      53.469   5.332   6.835  0.00  0.00    +0.000 A 
ATOM     21  N   UNL     1      52.697   6.231   7.496  0.00  0.00    +0.000 NA
BRANCH  19  22
ATOM     22  C   UNL     1      55.326   3.623   6.687  0.00  0.00    +0.000 C 
ATOM     23  N   UNL     1      55.775   3.932   5.434  0.00  0.00    +0.000 N 
ATOM     24  O   UNL     1      55.614   2.542   7.187  0.00  0.00    +0.000 OA
ATOM     25  H   UNL     1      55.609   4.792   4.933  0.00  0.00    +0.000 HD
ATOM     26  H   UNL     1      56.345   3.231   4.976  0.00  0.00    +0.000 HD
ENDBRANCH  19  22
ENDBRANCH  15  16
ENDBRANCH  10  14
TORSDOF 3
ENDMDL
