MODEL 1
REMARK VINA RESULT:    -8.752      0.000      0.000
REMARK INTER + INTRA:         -13.636
REMARK INTER:                 -12.334
REMARK INTRA:                  -1.303
REMARK UNBOUND:                -1.303
REMARK  Name = 
REMARK  8 active torsions:
REMARK  status: ('A' for Active; 'I' for Inactive)
REMARK    1  A    between atoms: C_1  and  C_2
REMARK    2  A    between atoms: C_2  and  N_3
REMARK    3  A    between atoms: C_2  and  C_16
REMARK    4  A    between atoms: C_4  and  C_6
REMARK    5  A    between atoms: C_19  and  N_20
REMARK    6  A    between atoms: N_20  and  C_21
REMARK    7  A    between atoms: C_21  and  C_22
REMARK    8  A    between atoms: C_26  and  C_27
REMARK                            x       y       z     vdW  Elec       q    Type
REMARK                         _______ _______ _______ _____ _____    ______ ____
ROOT
ATOM      1  C   UNL     1      46.619   6.031  13.354  0.00  0.00    +0.000 A 
ATOM      2  C   UNL     1      45.302   6.162  12.901  0.00  0.00    +0.000 A 
ATOM      3  C   UNL     1      44.578   5.038  12.482  0.00  0.00    +0.000 A 
ATOM      4  C   UNL     1      45.161   3.768  12.480  0.00  0.00    +0.000 A 
ATOM      5  C   UNL     1      46.431   3.625  13.041  0.00  0.00    +0.000 A 
ATOM      6  C   UNL     1      47.162   4.741  13.454  0.00  0.00    +0.000 A 
ENDROOT
BRANCH   1   8
ATOM      7  C   UNL     1      46.689   8.534  13.342  0.00  0.00    +0.000 C 
ATOM      8  C   UNL     1      47.465   7.256  13.676  0.00  0.00    +0.000 C 
BRANCH   8   9
ATOM      9  N   UNL     1      47.868   7.189  15.076  0.00  0.00    +0.000 N 
ATOM     10  C   UNL     1      49.168   7.045  15.489  0.00  0.00    +0.000 C 
ATOM     11  O   UNL     1      50.115   7.001  14.708  0.00  0.00    +0.000 OA
ATOM     12  H   UNL     1      47.140   6.899  15.722  0.00  0.00    +0.000 HD
BRANCH  10  13
ATOM     13  C   UNL     1      49.388   7.015  16.941  0.00  0.00    +0.000 A 
ATOM     14  C   UNL     1      50.121   8.025  17.549  0.00  0.00    +0.000 A 
ATOM     15  S   UNL     1      50.281   7.832  19.236  0.00  0.00    +0.000 S 
ATOM     16  C   UNL     1      49.407   6.373  19.207  0.00  0.00    +0.000 A 
ATOM     17  N   UNL     1      49.211   5.650  20.343  0.00  0.00    +0.000 NA
ATOM     18  C   UNL     1      48.556   4.551  20.168  0.00  0.00    +0.000 A 
ATOM     19  N   UNL     1      48.063   4.118  18.965  0.00  0.00    +0.000 N 
ATOM     20  C   UNL     1      48.204   4.832  17.800  0.00  0.00    +0.000 A 
ATOM     21  O   UNL     1      47.698   4.451  16.750  0.00  0.00    +0.000 OA
ATOM     22  C   UNL     1      48.966   6.058  17.934  0.00  0.00    +0.000 A 
ATOM     23  H   UNL     1      47.537   3.259  18.900  0.00  0.00    +0.000 HD
ENDBRANCH  10  13
ENDBRANCH   8   9
ENDBRANCH   1   8
BRANCH   4  24
ATOM     24  N   UNL     1      44.552   2.629  11.959  0.00  0.00    +0.000 N 
ATOM     25  H   UNL     1      44.054   2.088  12.663  0.00  0.00    +0.000 HD
BRANCH  24  26
ATOM     26  C   UNL     1      43.812   2.746  10.704  0.00  0.00    +0.000 C 
BRANCH  26  27
ATOM     27  C   UNL     1      44.772   3.048   9.571  0.00  0.00    +0.000 A 
ATOM     28  C   UNL     1      44.972   4.367   9.164  0.00  0.00    +0.000 A 
ATOM     29  C   UNL     1      45.862   4.630   8.132  0.00  0.00    +0.000 A 
ATOM     30  C   UNL     1      46.530   3.574   7.526  0.00  0.00    +0.000 A 
ATOM     31  C   UNL     1      46.290   2.269   7.969  0.00  0.00    +0.000 A 
ATOM     32  N   UNL     1      45.414   2.006   8.983  0.00  0.00    +0.000 NA
BRANCH  31  33
ATOM     33  C   UNL     1      47.020   1.103   7.318  0.00  0.00    +0.000 C 
ATOM     34  F   UNL     1      46.640   0.881   6.024  0.00  0.00    +0.000 F 
ATOM     35  F   UNL     1      48.372   1.279   7.271  0.00  0.00    +0.000 F 
ATOM     36  F   UNL     1      46.816  -0.083   7.962  0.00  0.00    +0.000 F 
ENDBRANCH  31  33
ENDBRANCH  26  27
ENDBRANCH  24  26
ENDBRANCH   4  24
TORSDOF 7
ENDMDL
MODEL 2
REMARK VINA RESULT:    -8.187      1.527      1.878
REMARK INTER + INTRA:         -12.840
REMARK INTER:                 -11.917
REMARK INTRA:                  -0.923
REMARK UNBOUND:                -1.303
REMARK  Name = 
REMARK  8 active torsions:
REMARK  status: ('A' for Active; 'I' for Inactive)
REMARK    1  A    between atoms: C_1  and  C_2
REMARK    2  A    between atoms: C_2  and  N_3
REMARK    3  A    between atoms: C_2  and  C_16
REMARK    4  A    between atoms: C_4  and  C_6
REMARK    5  A    between atoms: C_19  and  N_20
REMARK    6  A    between atoms: N_20  and  C_21
REMARK    7  A    between atoms: C_21  and  C_22
REMARK    8  A    between atoms: C_26  and  C_27
REMARK                            x       y       z     vdW  Elec       q    Type
REMARK                         _______ _______ _______ _____ _____    ______ ____
ROOT
ATOM      1  C   UNL     1      46.614   6.120  13.353  0.00  0.00    +0.000 A 
ATOM      2  C   UNL     1      45.704   6.846  12.577  0.00  0.00    +0.000 A 
ATOM      3  C   UNL     1      44.630   6.200  11.948  0.00  0.00    +0.000 A 
ATOM      4  C   UNL     1      44.461   4.817  12.059  0.00  0.00    +0.000 A 
ATOM      5  C   UNL     1      45.301   4.117  12.925  0.00  0.00    +0.000 A 
ATOM      6  C   UNL     1      46.377   4.751  13.549  0.00  0.00    +0.000 A 
ENDROOT
BRANCH   1   8
ATOM      7  C   UNL     1      47.871   8.273  13.578  0.00  0.00    +0.000 C 
ATOM      8  C   UNL     1      47.863   6.781  13.922  0.00  0.00    +0.000 C 
BRANCH   8   9
ATOM      9  N   UNL     1      47.908   6.531  15.359  0.00  0.00    +0.000 N 
ATOM     10  C   UNL     1      49.072   6.422  16.077  0.00  0.00    +0.000 C 
ATOM     11  O   UNL     1      50.182   6.569  15.574  0.00  0.00    +0.000 OA
ATOM     12  H   UNL     1      47.079   6.092  15.747  0.00  0.00    +0.000 HD
BRANCH  10  13
ATOM     13  C   UNL     1      48.923   6.188  17.519  0.00  0.00    +0.000 A 
ATOM     14  C   UNL     1      49.310   4.971  18.064  0.00  0.00    +0.000 A 
ATOM     15  S   UNL     1      49.066   4.868  19.749  0.00  0.00    +0.000 S 
ATOM     16  C   UNL     1      48.400   6.433  19.803  0.00  0.00    +0.000 A 
ATOM     17  N   UNL     1      47.935   6.957  20.968  0.00  0.00    +0.000 NA
ATOM     18  C   UNL     1      47.431   8.141  20.856  0.00  0.00    +0.000 A 
ATOM     19  N   UNL     1      47.366   8.856  19.688  0.00  0.00    +0.000 N 
ATOM     20  C   UNL     1      47.858   8.382  18.496  0.00  0.00    +0.000 A 
ATOM     21  O   UNL     1      47.844   9.069  17.480  0.00  0.00    +0.000 OA
ATOM     22  C   UNL     1      48.401   7.040  18.559  0.00  0.00    +0.000 A 
ATOM     23  H   UNL     1      46.981   9.789  19.672  0.00  0.00    +0.000 HD
ENDBRANCH  10  13
ENDBRANCH   8   9
ENDBRANCH   1   8
BRANCH   4  24
ATOM     24  N   UNL     1      43.499   4.089  11.361  0.00  0.00    +0.000 N 
ATOM     25  H   UNL     1      42.944   4.666  10.733  0.00  0.00    +0.000 HD
BRANCH  24  26
ATOM     26  C   UNL     1      43.887   2.812  10.766  0.00  0.00    +0.000 C 
BRANCH  26  27
ATOM     27  C   UNL     1      44.783   3.058   9.568  0.00  0.00    +0.000 A 
ATOM     28  C   UNL     1      44.937   4.353   9.072  0.00  0.00    +0.000 A 
ATOM     29  C   UNL     1      45.768   4.565   7.981  0.00  0.00    +0.000 A 
ATOM     30  C   UNL     1      46.423   3.485   7.405  0.00  0.00    +0.000 A 
ATOM     31  C   UNL     1      46.230   2.206   7.939  0.00  0.00    +0.000 A 
ATOM     32  N   UNL     1      45.413   1.993   9.011  0.00  0.00    +0.000 NA
BRANCH  31  33
ATOM     33  C   UNL     1      46.947   1.014   7.322  0.00  0.00    +0.000 C 
ATOM     34  F   UNL     1      46.736   0.891   5.977  0.00  0.00    +0.000 F 
ATOM     35  F   UNL     1      48.302   1.069   7.471  0.00  0.00    +0.000 F 
ATOM     36  F   UNL     1      46.558  -0.180   7.857  0.00  0.00    +0.000 F 
ENDBRANCH  31  33
ENDBRANCH  26  27
ENDBRANCH  24  26
ENDBRANCH   4  24
TORSDOF 7
ENDMDL
MODEL 3
REMARK VINA RESULT:    -8.008      1.987      2.985
REMARK INTER + INTRA:         -12.587
REMARK INTER:                 -11.171
REMARK INTRA:                  -1.416
REMARK UNBOUND:                -1.303
REMARK  Name = 
REMARK  8 active torsions:
REMARK  status: ('A' for Active; 'I' for Inactive)
REMARK    1  A    between atoms: C_1  and  C_2
REMARK    2  A    between atoms: C_2  and  N_3
REMARK    3  A    between atoms: C_2  and  C_16
REMARK    4  A    between atoms: C_4  and  C_6
REMARK    5  A    between atoms: C_19  and  N_20
REMARK    6  A    between atoms: N_20  and  C_21
REMARK    7  A    between atoms: C_21  and  C_22
REMARK    8  A    between atoms: C_26  and  C_27
REMARK                            x       y       z     vdW  Elec       q    Type
REMARK                         _______ _______ _______ _____ _____    ______ ____
ROOT
ATOM      1  C   UNL     1      47.674   8.235  13.137  0.00  0.00    +0.000 A 
ATOM      2  C   UNL     1      47.780   7.238  12.160  0.00  0.00    +0.000 A 
ATOM      3  C   UNL     1      46.664   6.866  11.398  0.00  0.00    +0.000 A 
ATOM      4  C   UNL     1      45.418   7.461  11.613  0.00  0.00    +0.000 A 
ATOM      5  C   UNL     1      45.343   8.532  12.504  0.00  0.00    +0.000 A 
ATOM      6  C   UNL     1      46.448   8.903  13.273  0.00  0.00    +0.000 A 
ENDROOT
BRANCH   1   8
ATOM      7  C   UNL     1      48.754  10.002  14.542  0.00  0.00    +0.000 C 
ATOM      8  C   UNL     1      48.837   8.548  14.069  0.00  0.00    +0.000 C 
BRANCH   8   9
ATOM      9  N   UNL     1      48.820   7.593  15.172  0.00  0.00    +0.000 N 
ATOM     10  C   UNL     1      49.946   6.996  15.680  0.00  0.00    +0.000 C 
ATOM     11  O   UNL     1      51.076   7.250  15.274  0.00  0.00    +0.000 OA
ATOM     12  H   UNL     1      47.935   7.117  15.318  0.00  0.00    +0.000 HD
BRANCH  10  13
ATOM     13  C   UNL     1      49.738   6.074  16.804  0.00  0.00    +0.000 A 
ATOM     14  C   UNL     1      50.530   6.180  17.939  0.00  0.00    +0.000 A 
ATOM     15  S   UNL     1      50.158   5.030  19.143  0.00  0.00    +0.000 S 
ATOM     16  C   UNL     1      48.949   4.327  18.174  0.00  0.00    +0.000 A 
ATOM     17  N   UNL     1      48.251   3.241  18.601  0.00  0.00    +0.000 NA
ATOM     18  C   UNL     1      47.385   2.797  17.752  0.00  0.00    +0.000 A 
ATOM     19  N   UNL     1      47.142   3.350  16.522  0.00  0.00    +0.000 N 
ATOM     20  C   UNL     1      47.795   4.468  16.064  0.00  0.00    +0.000 A 
ATOM     21  O   UNL     1      47.512   4.978  14.986  0.00  0.00    +0.000 OA
ATOM     22  C   UNL     1      48.805   4.986  16.965  0.00  0.00    +0.000 A 
ATOM     23  H   UNL     1      46.432   2.967  15.913  0.00  0.00    +0.000 HD
ENDBRANCH  10  13
ENDBRANCH   8   9
ENDBRANCH   1   8
BRANCH   4  24
ATOM     24  N   UNL     1      44.240   7.056  10.988  0.00  0.00    +0.000 N 
ATOM     25  H   UNL     1      44.354   6.905   9.988  0.00  0.00    +0.000 HD
BRANCH  24  26
ATOM     26  C   UNL     1      43.430   6.022  11.630  0.00  0.00    +0.000 C 
BRANCH  26  27
ATOM     27  C   UNL     1      43.765   4.669  11.036  0.00  0.00    +0.000 A 
ATOM     28  C   UNL     1      43.291   3.506  11.646  0.00  0.00    +0.000 A 
ATOM     29  C   UNL     1      43.598   2.275  11.085  0.00  0.00    +0.000 A 
ATOM     30  C   UNL     1      44.373   2.226   9.934  0.00  0.00    +0.000 A 
ATOM     31  C   UNL     1      44.827   3.421   9.365  0.00  0.00    +0.000 A 
ATOM     32  N   UNL     1      44.528   4.635   9.914  0.00  0.00    +0.000 NA
BRANCH  31  33
ATOM     33  C   UNL     1      45.671   3.383   8.100  0.00  0.00    +0.000 C 
ATOM     34  F   UNL     1      46.545   2.332   8.062  0.00  0.00    +0.000 F 
ATOM     35  F   UNL     1      44.926   3.271   6.963  0.00  0.00    +0.000 F 
ATOM     36  F   UNL     1      46.443   4.497   7.937  0.00  0.00    +0.000 F 
ENDBRANCH  31  33
ENDBRANCH  26  27
ENDBRANCH  24  26
ENDBRANCH   4  24
TORSDOF 7
ENDMDL
MODEL 4
REMARK VINA RESULT:    -7.894      3.592      4.678
REMARK INTER + INTRA:         -12.427
REMARK INTER:                 -11.179
REMARK INTRA:                  -1.248
REMARK UNBOUND:                -1.303
REMARK  Name = 
REMARK  8 active torsions:
REMARK  status: ('A' for Active; 'I' for Inactive)
REMARK    1  A    between atoms: C_1  and  C_2
REMARK    2  A    between atoms: C_2  and  N_3
REMARK    3  A    between atoms: C_2  and  C_16
REMARK    4  A    between atoms: C_4  and  C_6
REMARK    5  A    between atoms: C_19  and  N_20
REMARK    6  A    between atoms: N_20  and  C_21
REMARK    7  A    between atoms: C_21  and  C_22
REMARK    8  A    between atoms: C_26  and  C_27
REMARK                            x       y       z     vdW  Elec       q    Type
REMARK                         _______ _______ _______ _____ _____    ______ ____
ROOT
ATOM      1  C   UNL     1      47.973   4.963  16.057  0.00  0.00    +0.000 A 
ATOM      2  C   UNL     1      48.566   6.194  15.755  0.00  0.00    +0.000 A 
ATOM      3  C   UNL     1      48.382   6.783  14.497  0.00  0.00    +0.000 A 
ATOM      4  C   UNL     1      47.628   6.144  13.509  0.00  0.00    +0.000 A 
ATOM      5  C   UNL     1      46.945   4.977  13.851  0.00  0.00    +0.000 A 
ATOM      6  C   UNL     1      47.129   4.379  15.100  0.00  0.00    +0.000 A 
ENDROOT
BRANCH   1   8
ATOM      7  C   UNL     1      47.379   3.012  17.509  0.00  0.00    +0.000 C 
ATOM      8  C   UNL     1      48.280   4.242  17.364  0.00  0.00    +0.000 C 
BRANCH   8   9
ATOM      9  N   UNL     1      49.700   3.910  17.390  0.00  0.00    +0.000 N 
ATOM     10  C   UNL     1      50.533   4.210  18.437  0.00  0.00    +0.000 C 
ATOM     11  O   UNL     1      50.142   4.753  19.466  0.00  0.00    +0.000 OA
ATOM     12  H   UNL     1      50.128   3.769  16.480  0.00  0.00    +0.000 HD
BRANCH  10  13
ATOM     13  C   UNL     1      51.931   3.782  18.296  0.00  0.00    +0.000 A 
ATOM     14  C   UNL     1      52.958   4.671  18.579  0.00  0.00    +0.000 A 
ATOM     15  S   UNL     1      54.515   4.011  18.360  0.00  0.00    +0.000 S 
ATOM     16  C   UNL     1      53.870   2.523  17.844  0.00  0.00    +0.000 A 
ATOM     17  N   UNL     1      54.682   1.505  17.453  0.00  0.00    +0.000 NA
ATOM     18  C   UNL     1      54.057   0.445  17.060  0.00  0.00    +0.000 A 
ATOM     19  N   UNL     1      52.693   0.306  17.038  0.00  0.00    +0.000 N 
ATOM     20  C   UNL     1      51.836   1.292  17.459  0.00  0.00    +0.000 A 
ATOM     21  O   UNL     1      50.622   1.116  17.489  0.00  0.00    +0.000 OA
ATOM     22  C   UNL     1      52.487   2.519  17.876  0.00  0.00    +0.000 A 
ATOM     23  H   UNL     1      52.266  -0.559  16.741  0.00  0.00    +0.000 HD
ENDBRANCH  10  13
ENDBRANCH   8   9
ENDBRANCH   1   8
BRANCH   4  24
ATOM     24  N   UNL     1      47.508   6.603  12.199  0.00  0.00    +0.000 N 
ATOM     25  H   UNL     1      47.868   5.943  11.513  0.00  0.00    +0.000 HD
BRANCH  24  26
ATOM     26  C   UNL     1      46.247   7.217  11.788  0.00  0.00    +0.000 C 
BRANCH  26  27
ATOM     27  C   UNL     1      45.359   6.175  11.138  0.00  0.00    +0.000 A 
ATOM     28  C   UNL     1      44.068   5.963  11.623  0.00  0.00    +0.000 A 
ATOM     29  C   UNL     1      43.263   5.011  11.012  0.00  0.00    +0.000 A 
ATOM     30  C   UNL     1      43.762   4.290   9.936  0.00  0.00    +0.000 A 
ATOM     31  C   UNL     1      45.065   4.538   9.492  0.00  0.00    +0.000 A 
ATOM     32  N   UNL     1      45.860   5.472  10.090  0.00  0.00    +0.000 NA
BRANCH  31  33
ATOM     33  C   UNL     1      45.622   3.759   8.309  0.00  0.00    +0.000 C 
ATOM     34  F   UNL     1      46.053   2.504   8.641  0.00  0.00    +0.000 F 
ATOM     35  F   UNL     1      44.708   3.573   7.313  0.00  0.00    +0.000 F 
ATOM     36  F   UNL     1      46.696   4.366   7.726  0.00  0.00    +0.000 F 
ENDBRANCH  31  33
ENDBRANCH  26  27
ENDBRANCH  24  26
ENDBRANCH   4  24
TORSDOF 7
ENDMDL
MODEL 5
REMARK VINA RESULT:    -7.691      4.001      8.579
REMARK INTER + INTRA:         -12.141
REMARK INTER:                 -10.538
REMARK INTRA:                  -1.604
REMARK UNBOUND:                -1.303
REMARK  Name = 
REMARK  8 active torsions:
REMARK  status: ('A' for Active; 'I' for Inactive)
REMARK    1  A    between atoms: C_1  and  C_2
REMARK    2  A    between atoms: C_2  and  N_3
REMARK    3  A    between atoms: C_2  and  C_16
REMARK    4  A    between atoms: C_4  and  C_6
REMARK    5  A    between atoms: C_19  and  N_20
REMARK    6  A    between atoms: N_20  and  C_21
REMARK    7  A    between atoms: C_21  and  C_22
REMARK    8  A    between atoms: C_26  and  C_27
REMARK                            x       y       z     vdW  Elec       q    Type
REMARK                         _______ _______ _______ _____ _____    ______ ____
ROOT
ATOM      1  C   UNL     1      48.655   8.210  13.474  0.00  0.00    +0.000 A 
ATOM      2  C   UNL     1      47.791   8.853  14.367  0.00  0.00    +0.000 A 
ATOM      3  C   UNL     1      48.117   8.954  15.726  0.00  0.00    +0.000 A 
ATOM      4  C   UNL     1      49.297   8.393  16.224  0.00  0.00    +0.000 A 
ATOM      5  C   UNL     1      50.208   7.857  15.314  0.00  0.00    +0.000 A 
ATOM      6  C   UNL     1      49.887   7.745  13.960  0.00  0.00    +0.000 A 
ENDROOT
BRANCH   1   8
ATOM      7  C   UNL     1      49.495   7.746  11.162  0.00  0.00    +0.000 C 
ATOM      8  C   UNL     1      48.250   7.966  12.026  0.00  0.00    +0.000 C 
BRANCH   8   9
ATOM      9  N   UNL     1      47.326   6.837  11.985  0.00  0.00    +0.000 N 
ATOM     10  C   UNL     1      45.982   6.961  11.743  0.00  0.00    +0.000 C 
ATOM     11  O   UNL     1      45.445   8.038  11.498  0.00  0.00    +0.000 OA
ATOM     12  H   UNL     1      47.635   6.008  12.484  0.00  0.00    +0.000 HD
BRANCH  10  13
ATOM     13  C   UNL     1      45.210   5.712  11.721  0.00  0.00    +0.000 A 
ATOM     14  C   UNL     1      44.527   5.302  12.858  0.00  0.00    +0.000 A 
ATOM     15  S   UNL     1      43.687   3.831  12.659  0.00  0.00    +0.000 S 
ATOM     16  C   UNL     1      44.237   3.672  11.057  0.00  0.00    +0.000 A 
ATOM     17  N   UNL     1      43.912   2.584  10.309  0.00  0.00    +0.000 NA
ATOM     18  C   UNL     1      44.421   2.582   9.122  0.00  0.00    +0.000 A 
ATOM     19  N   UNL     1      45.211   3.577   8.609  0.00  0.00    +0.000 N 
ATOM     20  C   UNL     1      45.534   4.711   9.313  0.00  0.00    +0.000 A 
ATOM     21  O   UNL     1      46.191   5.615   8.807  0.00  0.00    +0.000 OA
ATOM     22  C   UNL     1      45.018   4.746  10.667  0.00  0.00    +0.000 A 
ATOM     23  H   UNL     1      45.559   3.527   7.662  0.00  0.00    +0.000 HD
ENDBRANCH  10  13
ENDBRANCH   8   9
ENDBRANCH   1   8
BRANCH   4  24
ATOM     24  N   UNL     1      49.626   8.340  17.577  0.00  0.00    +0.000 N 
ATOM     25  H   UNL     1      49.728   9.262  17.997  0.00  0.00    +0.000 HD
BRANCH  24  26
ATOM     26  C   UNL     1      48.903   7.402  18.435  0.00  0.00    +0.000 C 
BRANCH  26  27
ATOM     27  C   UNL     1      49.426   5.997  18.210  0.00  0.00    +0.000 A 
ATOM     28  C   UNL     1      50.709   5.657  18.641  0.00  0.00    +0.000 A 
ATOM     29  C   UNL     1      51.171   4.364  18.437  0.00  0.00    +0.000 A 
ATOM     30  C   UNL     1      50.349   3.441  17.805  0.00  0.00    +0.000 A 
ATOM     31  C   UNL     1      49.072   3.835  17.388  0.00  0.00    +0.000 A 
ATOM     32  N   UNL     1      48.615   5.106  17.586  0.00  0.00    +0.000 NA
BRANCH  31  33
ATOM     33  C   UNL     1      48.159   2.831  16.701  0.00  0.00    +0.000 C 
ATOM     34  F   UNL     1      47.165   2.358  17.512  0.00  0.00    +0.000 F 
ATOM     35  F   UNL     1      47.518   3.349  15.613  0.00  0.00    +0.000 F 
ATOM     36  F   UNL     1      48.819   1.722  16.258  0.00  0.00    +0.000 F 
ENDBRANCH  31  33
ENDBRANCH  26  27
ENDBRANCH  24  26
ENDBRANCH   4  24
TORSDOF 7
ENDMDL
MODEL 6
REMARK VINA RESULT:    -7.401      4.076      5.579
REMARK INTER + INTRA:         -11.732
REMARK INTER:                 -10.397
REMARK INTRA:                  -1.336
REMARK UNBOUND:                -1.303
REMARK  Name = 
REMARK  8 active torsions:
REMARK  status: ('A' for Active; 'I' for Inactive)
REMARK    1  A    between atoms: C_1  and  C_2
REMARK    2  A    between atoms: C_2  and  N_3
REMARK    3  A    between atoms: C_2  and  C_16
REMARK    4  A    between atoms: C_4  and  C_6
REMARK    5  A    between atoms: C_19  and  N_20
REMARK    6  A    between atoms: N_20  and  C_21
REMARK    7  A    between atoms: C_21  and  C_22
REMARK    8  A    between atoms: C_26  and  C_27
REMARK                            x       y       z     vdW  Elec       q    Type
REMARK                         _______ _______ _______ _____ _____    ______ ____
ROOT
ATOM      1  C   UNL     1      48.977   4.670  18.238  0.00  0.00    +0.000 A 
ATOM      2  C   UNL     1      48.240   3.492  18.073  0.00  0.00    +0.000 A 
ATOM      3  C   UNL     1      47.406   3.323  16.960  0.00  0.00    +0.000 A 
ATOM      4  C   UNL     1      47.271   4.335  16.005  0.00  0.00    +0.000 A 
ATOM      5  C   UNL     1      48.093   5.457  16.112  0.00  0.00    +0.000 A 
ATOM      6  C   UNL     1      48.920   5.637  17.222  0.00  0.00    +0.000 A 
ENDROOT
BRANCH   1   8
ATOM      7  C   UNL     1      48.886   4.706  20.739  0.00  0.00    +0.000 C 
ATOM      8  C   UNL     1      49.773   4.929  19.511  0.00  0.00    +0.000 C 
BRANCH   8   9
ATOM      9  N   UNL     1      50.954   4.073  19.503  0.00  0.00    +0.000 N 
ATOM     10  C   UNL     1      52.172   4.460  19.005  0.00  0.00    +0.000 C 
ATOM     11  O   UNL     1      52.383   5.583  18.558  0.00  0.00    +0.000 OA
ATOM     12  H   UNL     1      50.765   3.076  19.550  0.00  0.00    +0.000 HD
BRANCH  10  13
ATOM     13  C   UNL     1      53.254   3.471  19.098  0.00  0.00    +0.000 A 
ATOM     14  C   UNL     1      54.380   3.749  19.860  0.00  0.00    +0.000 A 
ATOM     15  S   UNL     1      55.536   2.495  19.855  0.00  0.00    +0.000 S 
ATOM     16  C   UNL     1      54.588   1.551  18.804  0.00  0.00    +0.000 A 
ATOM     17  N   UNL     1      55.026   0.344  18.357  0.00  0.00    +0.000 NA
ATOM     18  C   UNL     1      54.216  -0.250  17.544  0.00  0.00    +0.000 A 
ATOM     19  N   UNL     1      53.001   0.247  17.151  0.00  0.00    +0.000 N 
ATOM     20  C   UNL     1      52.501   1.443  17.605  0.00  0.00    +0.000 A 
ATOM     21  O   UNL     1      51.382   1.832  17.286  0.00  0.00    +0.000 OA
ATOM     22  C   UNL     1      53.388   2.168  18.493  0.00  0.00    +0.000 A 
ATOM     23  H   UNL     1      52.403  -0.279  16.530  0.00  0.00    +0.000 HD
ENDBRANCH  10  13
ENDBRANCH   8   9
ENDBRANCH   1   8
BRANCH   4  24
ATOM     24  N   UNL     1      46.367   4.293  14.945  0.00  0.00    +0.000 N 
ATOM     25  H   UNL     1      45.398   4.355  15.248  0.00  0.00    +0.000 HD
BRANCH  24  26
ATOM     26  C   UNL     1      46.645   5.102  13.759  0.00  0.00    +0.000 C 
BRANCH  26  27
ATOM     27  C   UNL     1      45.497   4.980  12.778  0.00  0.00    +0.000 A 
ATOM     28  C   UNL     1      44.190   5.218  13.205  0.00  0.00    +0.000 A 
ATOM     29  C   UNL     1      43.150   5.113  12.293  0.00  0.00    +0.000 A 
ATOM     30  C   UNL     1      43.432   4.769  10.978  0.00  0.00    +0.000 A 
ATOM     31  C   UNL     1      44.759   4.537  10.602  0.00  0.00    +0.000 A 
ATOM     32  N   UNL     1      45.786   4.638  11.496  0.00  0.00    +0.000 NA
BRANCH  31  33
ATOM     33  C   UNL     1      45.083   4.166   9.162  0.00  0.00    +0.000 C 
ATOM     34  F   UNL     1      46.092   4.915   8.623  0.00  0.00    +0.000 F 
ATOM     35  F   UNL     1      45.483   2.869   9.021  0.00  0.00    +0.000 F 
ATOM     36  F   UNL     1      44.024   4.328   8.316  0.00  0.00    +0.000 F 
ENDBRANCH  31  33
ENDBRANCH  26  27
ENDBRANCH  24  26
ENDBRANCH   4  24
TORSDOF 7
ENDMDL
MODEL 7
REMARK VINA RESULT:    -7.323      2.036      2.942
REMARK INTER + INTRA:         -11.622
REMARK INTER:                 -10.518
REMARK INTRA:                  -1.104
REMARK UNBOUND:                -1.303
REMARK  Name = 
REMARK  8 active torsions:
REMARK  status: ('A' for Active; 'I' for Inactive)
REMARK    1  A    between atoms: C_1  and  C_2
REMARK    2  A    between atoms: C_2  and  N_3
REMARK    3  A    between atoms: C_2  and  C_16
REMARK    4  A    between atoms: C_4  and  C_6
REMARK    5  A    between atoms: C_19  and  N_20
REMARK    6  A    between atoms: N_20  and  C_21
REMARK    7  A    between atoms: C_21  and  C_22
REMARK    8  A    between atoms: C_26  and  C_27
REMARK                            x       y       z     vdW  Elec       q    Type
REMARK                         _______ _______ _______ _____ _____    ______ ____
ROOT
ATOM      1  C   UNL     1      47.777   7.620  13.140  0.00  0.00    +0.000 A 
ATOM      2  C   UNL     1      46.702   8.449  13.480  0.00  0.00    +0.000 A 
ATOM      3  C   UNL     1      45.496   8.380  12.769  0.00  0.00    +0.000 A 
ATOM      4  C   UNL     1      45.349   7.503  11.691  0.00  0.00    +0.000 A 
ATOM      5  C   UNL     1      46.378   6.599  11.430  0.00  0.00    +0.000 A 
ATOM      6  C   UNL     1      47.585   6.666  12.128  0.00  0.00    +0.000 A 
ENDROOT
BRANCH   1   8
ATOM      7  C   UNL     1      49.929   8.898  13.117  0.00  0.00    +0.000 C 
ATOM      8  C   UNL     1      49.137   7.783  13.806  0.00  0.00    +0.000 C 
BRANCH   8   9
ATOM      9  N   UNL     1      48.932   8.030  15.229  0.00  0.00    +0.000 N 
ATOM     10  C   UNL     1      49.377   7.193  16.220  0.00  0.00    +0.000 C 
ATOM     11  O   UNL     1      50.028   6.177  15.992  0.00  0.00    +0.000 OA
ATOM     12  H   UNL     1      48.155   8.645  15.453  0.00  0.00    +0.000 HD
BRANCH  10  13
ATOM     13  C   UNL     1      49.096   7.614  17.599  0.00  0.00    +0.000 A 
ATOM     14  C   UNL     1      49.600   8.818  18.070  0.00  0.00    +0.000 A 
ATOM     15  S   UNL     1      49.181   9.148  19.690  0.00  0.00    +0.000 S 
ATOM     16  C   UNL     1      48.341   7.675  19.829  0.00  0.00    +0.000 A 
ATOM     17  N   UNL     1      47.761   7.307  21.003  0.00  0.00    +0.000 NA
ATOM     18  C   UNL     1      47.182   6.153  20.972  0.00  0.00    +0.000 A 
ATOM     19  N   UNL     1      47.114   5.341  19.870  0.00  0.00    +0.000 N 
ATOM     20  C   UNL     1      47.652   5.689  18.655  0.00  0.00    +0.000 A 
ATOM     21  O   UNL     1      47.521   4.971  17.668  0.00  0.00    +0.000 OA
ATOM     22  C   UNL     1      48.347   6.961  18.644  0.00  0.00    +0.000 A 
ATOM     23  H   UNL     1      46.625   4.459  19.905  0.00  0.00    +0.000 HD
ENDBRANCH  10  13
ENDBRANCH   8   9
ENDBRANCH   1   8
BRANCH   4  24
ATOM     24  N   UNL     1      44.231   7.469  10.858  0.00  0.00    +0.000 N 
ATOM     25  H   UNL     1      44.468   7.294   9.884  0.00  0.00    +0.000 HD
BRANCH  24  26
ATOM     26  C   UNL     1      43.055   6.722  11.300  0.00  0.00    +0.000 C 
BRANCH  26  27
ATOM     27  C   UNL     1      43.389   5.245  11.380  0.00  0.00    +0.000 A 
ATOM     28  C   UNL     1      43.220   4.560  12.583  0.00  0.00    +0.000 A 
ATOM     29  C   UNL     1      43.520   3.206  12.638  0.00  0.00    +0.000 A 
ATOM     30  C   UNL     1      43.985   2.566  11.497  0.00  0.00    +0.000 A 
ATOM     31  C   UNL     1      44.140   3.301  10.317  0.00  0.00    +0.000 A 
ATOM     32  N   UNL     1      43.847   4.633  10.258  0.00  0.00    +0.000 NA
BRANCH  31  33
ATOM     33  C   UNL     1      44.642   2.611   9.057  0.00  0.00    +0.000 C 
ATOM     34  F   UNL     1      44.263   3.243   7.905  0.00  0.00    +0.000 F 
ATOM     35  F   UNL     1      46.003   2.536   8.994  0.00  0.00    +0.000 F 
ATOM     36  F   UNL     1      44.187   1.331   8.931  0.00  0.00    +0.000 F 
ENDBRANCH  31  33
ENDBRANCH  26  27
ENDBRANCH  24  26
ENDBRANCH   4  24
TORSDOF 7
ENDMDL
MODEL 8
REMARK VINA RESULT:    -7.170      2.007      3.012
REMARK INTER + INTRA:         -11.406
REMARK INTER:                 -10.081
REMARK INTRA:                  -1.326
REMARK UNBOUND:                -1.303
REMARK  Name = 
REMARK  8 active torsions:
REMARK  status: ('A' for Active; 'I' for Inactive)
REMARK    1  A    between atoms: C_1  and  C_2
REMARK    2  A    between atoms: C_2  and  N_3
REMARK    3  A    between atoms: C_2  and  C_16
REMARK    4  A    between atoms: C_4  and  C_6
REMARK    5  A    between atoms: C_19  and  N_20
REMARK    6  A    between atoms: N_20  and  C_21
REMARK    7  A    between atoms: C_21  and  C_22
REMARK    8  A    between atoms: C_26  and  C_27
REMARK                            x       y       z     vdW  Elec       q    Type
REMARK                         _______ _______ _______ _____ _____    ______ ____
ROOT
ATOM      1  C   UNL     1      46.592   4.934  14.296  0.00  0.00    +0.000 A 
ATOM      2  C   UNL     1      47.466   5.690  13.507  0.00  0.00    +0.000 A 
ATOM      3  C   UNL     1      47.077   6.132  12.235  0.00  0.00    +0.000 A 
ATOM      4  C   UNL     1      45.821   5.806  11.716  0.00  0.00    +0.000 A 
ATOM      5  C   UNL     1      44.911   5.154  12.549  0.00  0.00    +0.000 A 
ATOM      6  C   UNL     1      45.293   4.703  13.814  0.00  0.00    +0.000 A 
ENDROOT
BRANCH   1   8
ATOM      7  C   UNL     1      47.864   3.055  15.353  0.00  0.00    +0.000 C 
ATOM      8  C   UNL     1      47.049   4.326  15.615  0.00  0.00    +0.000 C 
BRANCH   8   9
ATOM      9  N   UNL     1      47.797   5.334  16.358  0.00  0.00    +0.000 N 
ATOM     10  C   UNL     1      47.640   5.563  17.701  0.00  0.00    +0.000 C 
ATOM     11  O   UNL     1      46.880   4.904  18.405  0.00  0.00    +0.000 OA
ATOM     12  H   UNL     1      48.175   6.092  15.797  0.00  0.00    +0.000 HD
BRANCH  10  13
ATOM     13  C   UNL     1      48.493   6.606  18.284  0.00  0.00    +0.000 A 
ATOM     14  C   UNL     1      47.922   7.627  19.032  0.00  0.00    +0.000 A 
ATOM     15  S   UNL     1      49.054   8.753  19.630  0.00  0.00    +0.000 S 
ATOM     16  C   UNL     1      50.344   7.937  18.880  0.00  0.00    +0.000 A 
ATOM     17  N   UNL     1      51.616   8.410  18.961  0.00  0.00    +0.000 NA
ATOM     18  C   UNL     1      52.489   7.706  18.321  0.00  0.00    +0.000 A 
ATOM     19  N   UNL     1      52.208   6.561  17.621  0.00  0.00    +0.000 N 
ATOM     20  C   UNL     1      50.946   6.025  17.544  0.00  0.00    +0.000 A 
ATOM     21  O   UNL     1      50.735   4.965  16.964  0.00  0.00    +0.000 OA
ATOM     22  C   UNL     1      49.921   6.799  18.215  0.00  0.00    +0.000 A 
ATOM     23  H   UNL     1      52.942   6.042  17.161  0.00  0.00    +0.000 HD
ENDBRANCH  10  13
ENDBRANCH   8   9
ENDBRANCH   1   8
BRANCH   4  24
ATOM     24  N   UNL     1      45.413   6.098  10.416  0.00  0.00    +0.000 N 
ATOM     25  H   UNL     1      46.191   6.174   9.764  0.00  0.00    +0.000 HD
BRANCH  24  26
ATOM     26  C   UNL     1      44.277   5.365   9.860  0.00  0.00    +0.000 C 
BRANCH  26  27
ATOM     27  C   UNL     1      44.751   4.043   9.290  0.00  0.00    +0.000 A 
ATOM     28  C   UNL     1      44.303   2.845   9.848  0.00  0.00    +0.000 A 
ATOM     29  C   UNL     1      44.739   1.643   9.309  0.00  0.00    +0.000 A 
ATOM     30  C   UNL     1      45.613   1.659   8.231  0.00  0.00    +0.000 A 
ATOM     31  C   UNL     1      46.035   2.887   7.712  0.00  0.00    +0.000 A 
ATOM     32  N   UNL     1      45.610   4.072   8.239  0.00  0.00    +0.000 NA
BRANCH  31  33
ATOM     33  C   UNL     1      46.988   2.919   6.526  0.00  0.00    +0.000 C 
ATOM     34  F   UNL     1      46.816   4.011   5.720  0.00  0.00    +0.000 F 
ATOM     35  F   UNL     1      48.301   2.949   6.895  0.00  0.00    +0.000 F 
ATOM     36  F   UNL     1      46.852   1.840   5.701  0.00  0.00    +0.000 F 
ENDBRANCH  31  33
ENDBRANCH  26  27
ENDBRANCH  24  26
ENDBRANCH   4  24
TORSDOF 7
ENDMDL
MODEL 9
REMARK VINA RESULT:    -6.474      5.096      8.223
REMARK INTER + INTRA:         -10.427
REMARK INTER:                  -9.165
REMARK INTRA:                  -1.262
REMARK UNBOUND:                -1.303
REMARK  Name = 
REMARK  8 active torsions:
REMARK  status: ('A' for Active; 'I' for Inactive)
REMARK    1  A    between atoms: C_1  and  C_2
REMARK    2  A    between atoms: C_2  and  N_3
REMARK    3  A    between atoms: C_2  and  C_16
REMARK    4  A    between atoms: C_4  and  C_6
REMARK    5  A    between atoms: C_19  and  N_20
REMARK    6  A    between atoms: N_20  and  C_21
REMARK    7  A    between atoms: C_21  and  C_22
REMARK    8  A    between atoms: C_26  and  C_27
REMARK                            x       y       z     vdW  Elec       q    Type
REMARK                         _______ _______ _______ _____ _____    ______ ____
ROOT
ATOM      1  C   UNL     1      47.368   8.441  12.277  0.00  0.00    +0.000 A 
ATOM      2  C   UNL     1      47.745   9.689  11.770  0.00  0.00    +0.000 A 
ATOM      3  C   UNL     1      49.074   9.936  11.400  0.00  0.00    +0.000 A 
ATOM      4  C   UNL     1      50.056   8.952  11.553  0.00  0.00    +0.000 A 
ATOM      5  C   UNL     1      49.654   7.675  11.948  0.00  0.00    +0.000 A 
ATOM      6  C   UNL     1      48.334   7.424  12.326  0.00  0.00    +0.000 A 
ENDROOT
BRANCH   1   8
ATOM      7  C   UNL     1      45.090   9.437  12.569  0.00  0.00    +0.000 C 
ATOM      8  C   UNL     1      45.963   8.203  12.817  0.00  0.00    +0.000 C 
BRANCH   8   9
ATOM      9  N   UNL     1      45.425   6.996  12.200  0.00  0.00    +0.000 N 
ATOM     10  C   UNL     1      45.451   5.760  12.794  0.00  0.00    +0.000 C 
ATOM     11  O   UNL     1      45.896   5.572  13.922  0.00  0.00    +0.000 OA
ATOM     12  H   UNL     1      45.351   7.024  11.187  0.00  0.00    +0.000 HD
BRANCH  10  13
ATOM     13  C   UNL     1      44.845   4.662  12.031  0.00  0.00    +0.000 A 
ATOM     14  C   UNL     1      44.035   3.737  12.676  0.00  0.00    +0.000 A 
ATOM     15  S   UNL     1      43.418   2.529  11.642  0.00  0.00    +0.000 S 
ATOM     16  C   UNL     1      44.242   3.178  10.303  0.00  0.00    +0.000 A 
ATOM     17  N   UNL     1      44.176   2.582   9.082  0.00  0.00    +0.000 NA
ATOM     18  C   UNL     1      44.872   3.167   8.165  0.00  0.00    +0.000 A 
ATOM     19  N   UNL     1      45.615   4.303   8.353  0.00  0.00    +0.000 N 
ATOM     20  C   UNL     1      45.681   4.960   9.557  0.00  0.00    +0.000 A 
ATOM     21  O   UNL     1      46.303   6.010   9.681  0.00  0.00    +0.000 OA
ATOM     22  C   UNL     1      44.946   4.323  10.632  0.00  0.00    +0.000 A 
ATOM     23  H   UNL     1      46.120   4.725   7.587  0.00  0.00    +0.000 HD
ENDBRANCH  10  13
ENDBRANCH   8   9
ENDBRANCH   1   8
BRANCH   4  24
ATOM     24  N   UNL     1      51.415   9.163  11.330  0.00  0.00    +0.000 N 
ATOM     25  H   UNL     1      51.707  10.116  11.538  0.00  0.00    +0.000 HD
BRANCH  24  26
ATOM     26  C   UNL     1      52.364   8.160  11.810  0.00  0.00    +0.000 C 
BRANCH  26  27
ATOM     27  C   UNL     1      53.296   7.759  10.684  0.00  0.00    +0.000 A 
ATOM     28  C   UNL     1      54.666   7.998  10.798  0.00  0.00    +0.000 A 
ATOM     29  C   UNL     1      55.508   7.617   9.762  0.00  0.00    +0.000 A 
ATOM     30  C   UNL     1      54.968   7.010   8.636  0.00  0.00    +0.000 A 
ATOM     31  C   UNL     1      53.587   6.797   8.571  0.00  0.00    +0.000 A 
ATOM     32  N   UNL     1      52.755   7.172   9.586  0.00  0.00    +0.000 NA
BRANCH  31  33
ATOM     33  C   UNL     1      52.983   6.127   7.345  0.00  0.00    +0.000 C 
ATOM     34  F   UNL     1      53.522   6.565   6.167  0.00  0.00    +0.000 F 
ATOM     35  F   UNL     1      53.153   4.774   7.337  0.00  0.00    +0.000 F 
ATOM     36  F   UNL     1      51.640   6.339   7.226  0.00  0.00    +0.000 F 
ENDBRANCH  31  33
ENDBRANCH  26  27
ENDBRANCH  24  26
ENDBRANCH   4  24
TORSDOF 7
ENDMDL
