MODEL 1
REMARK VINA RESULT:    -6.788      0.000      0.000
REMARK INTER + INTRA:         -11.725
REMARK INTER:                 -10.558
REMARK INTRA:                  -1.167
REMARK UNBOUND:                -1.167
REMARK  Name = 
REMARK  10 active torsions:
REMARK  status: ('A' for Active; 'I' for Inactive)
REMARK    1  A    between atoms: N_1  and  C_2
REMARK    2  A    between atoms: C_2  and  C_3
REMARK    3  A    between atoms: C_3  and  N_4
REMARK    4  A    between atoms: N_4  and  C_5
REMARK    5  A    between atoms: C_5  and  C_6
REMARK    6  A    between atoms: C_9  and  C_10
REMARK    7  A    between atoms: C_10  and  C_11
REMARK    8  A    between atoms: C_14  and  C_15
REMARK    9  A    between atoms: C_15  and  N_16
REMARK   10  A    between atoms: C_17  and  C_19
REMARK                            x       y       z     vdW  Elec       q    Type
REMARK                         _______ _______ _______ _____ _____    ______ ____
ROOT
ATOM      1  C   UNL     1      45.465   6.594  12.893  0.00  0.00    +0.000 A 
ATOM      2  C   UNL     1      45.724   7.959  12.791  0.00  0.00    +0.000 A 
ATOM      3  C   UNL     1      46.925   8.459  13.294  0.00  0.00    +0.000 A 
ATOM      4  C   UNL     1      47.851   7.589  13.874  0.00  0.00    +0.000 A 
ATOM      5  C   UNL     1      47.493   6.249  13.959  0.00  0.00    +0.000 A 
ATOM      6  N   UNL     1      46.334   5.737  13.483  0.00  0.00    +0.000 NA
ENDROOT
BRANCH   1   7
ATOM      7  C   UNL     1      44.201   5.999  12.314  0.00  0.00    +0.000 C 
BRANCH   7  11
ATOM      8  C   UNL     1      44.970   3.167   9.218  0.00  0.00    +0.000 A 
ATOM      9  C   UNL     1      44.160   2.783  10.280  0.00  0.00    +0.000 A 
ATOM     10  C   UNL     1      43.887   3.702  11.290  0.00  0.00    +0.000 A 
ATOM     11  C   UNL     1      44.432   4.986  11.223  0.00  0.00    +0.000 A 
ATOM     12  C   UNL     1      45.238   5.280  10.125  0.00  0.00    +0.000 A 
ATOM     13  N   UNL     1      45.514   4.408   9.126  0.00  0.00    +0.000 NA
BRANCH   8  14
ATOM     14  C   UNL     1      45.177   2.220   8.050  0.00  0.00    +0.000 C 
BRANCH  14  15
ATOM     15  N   UNL     1      46.036   1.061   8.369  0.00  0.00    +0.000 NA
ATOM     16  H   UNL     1      46.549   1.308   9.220  0.00  0.00    +0.000 HD
BRANCH  15  17
ATOM     17  C   UNL     1      47.063   0.839   7.332  0.00  0.00    +0.000 C 
BRANCH  17  18
ATOM     18  C   UNL     1      47.530   2.131   6.635  0.00  0.00    +0.000 C 
BRANCH  18  19
ATOM     19  N   UNL     1      48.596   1.849   5.665  0.00  0.00    +0.000 NA
ATOM     20  H   UNL     1      49.129   1.046   5.994  0.00  0.00    +0.000 HD
ATOM     21  H   UNL     1      49.244   2.636   5.654  0.00  0.00    +0.000 HD
ENDBRANCH  18  19
ENDBRANCH  17  18
ENDBRANCH  15  17
ENDBRANCH  14  15
ENDBRANCH   8  14
ENDBRANCH   7  11
ENDBRANCH   1   7
BRANCH   4  22
ATOM     22  C   UNL     1      49.166   8.068  14.416  0.00  0.00    +0.000 C 
BRANCH  22  23
ATOM     23  N   UNL     1      49.309   7.741  15.811  0.00  0.00    +0.000 N 
ATOM     24  C   UNL     1      50.479   7.220  16.308  0.00  0.00    +0.000 C 
ATOM     25  O   UNL     1      51.470   7.058  15.605  0.00  0.00    +0.000 OA
ATOM     26  H   UNL     1      48.455   7.638  16.351  0.00  0.00    +0.000 HD
BRANCH  24  27
ATOM     27  C   UNL     1      50.497   6.929  17.748  0.00  0.00    +0.000 A 
ATOM     28  C   UNL     1      51.348   7.640  18.585  0.00  0.00    +0.000 A 
ATOM     29  S   UNL     1      51.198   7.222  20.231  0.00  0.00    +0.000 S 
ATOM     30  C   UNL     1      50.034   6.032  19.880  0.00  0.00    +0.000 A 
ATOM     31  N   UNL     1      49.496   5.266  20.867  0.00  0.00    +0.000 NA
ATOM     32  C   UNL     1      48.651   4.381  20.455  0.00  0.00    +0.000 A 
ATOM     33  N   UNL     1      48.288   4.196  19.146  0.00  0.00    +0.000 N 
ATOM     34  C   UNL     1      48.782   4.969  18.120  0.00  0.00    +0.000 A 
ATOM     35  O   UNL     1      48.405   4.812  16.964  0.00  0.00    +0.000 OA
ATOM     36  C   UNL     1      49.748   5.968  18.529  0.00  0.00    +0.000 A 
ATOM     37  H   UNL     1      47.614   3.491  18.890  0.00  0.00    +0.000 HD
ENDBRANCH  24  27
ENDBRANCH  22  23
ENDBRANCH   4  22
TORSDOF 10
ENDMDL
MODEL 2
REMARK VINA RESULT:    -6.743      2.017      2.679
REMARK INTER + INTRA:         -11.655
REMARK INTER:                 -10.551
REMARK INTRA:                  -1.105
REMARK UNBOUND:                -1.167
REMARK  Name = 
REMARK  10 active torsions:
REMARK  status: ('A' for Active; 'I' for Inactive)
REMARK    1  A    between atoms: N_1  and  C_2
REMARK    2  A    between atoms: C_2  and  C_3
REMARK    3  A    between atoms: C_3  and  N_4
REMARK    4  A    between atoms: N_4  and  C_5
REMARK    5  A    between atoms: C_5  and  C_6
REMARK    6  A    between atoms: C_9  and  C_10
REMARK    7  A    between atoms: C_10  and  C_11
REMARK    8  A    between atoms: C_14  and  C_15
REMARK    9  A    between atoms: C_15  and  N_16
REMARK   10  A    between atoms: C_17  and  C_19
REMARK                            x       y       z     vdW  Elec       q    Type
REMARK                         _______ _______ _______ _____ _____    ______ ____
ROOT
ATOM      1  C   UNL     1      45.352   6.948  12.306  0.00  0.00    +0.000 A 
ATOM      2  C   UNL     1      45.747   8.273  12.130  0.00  0.00    +0.000 A 
ATOM      3  C   UNL     1      46.927   8.712  12.731  0.00  0.00    +0.000 A 
ATOM      4  C   UNL     1      47.697   7.822  13.482  0.00  0.00    +0.000 A 
ATOM      5  C   UNL     1      47.207   6.530  13.628  0.00  0.00    +0.000 A 
ATOM      6  N   UNL     1      46.066   6.077  13.059  0.00  0.00    +0.000 NA
ENDROOT
BRANCH   1   7
ATOM      7  C   UNL     1      44.109   6.414  11.629  0.00  0.00    +0.000 C 
BRANCH   7  11
ATOM      8  C   UNL     1      44.640   2.909   9.257  0.00  0.00    +0.000 A 
ATOM      9  C   UNL     1      45.365   4.048   8.927  0.00  0.00    +0.000 A 
ATOM     10  C   UNL     1      45.214   5.194   9.702  0.00  0.00    +0.000 A 
ATOM     11  C   UNL     1      44.338   5.184  10.790  0.00  0.00    +0.000 A 
ATOM     12  C   UNL     1      43.648   4.000  11.042  0.00  0.00    +0.000 A 
ATOM     13  N   UNL     1      43.781   2.869  10.309  0.00  0.00    +0.000 NA
BRANCH   8  14
ATOM     14  C   UNL     1      44.885   1.616   8.500  0.00  0.00    +0.000 C 
BRANCH  14  15
ATOM     15  N   UNL     1      46.292   1.163   8.539  0.00  0.00    +0.000 NA
ATOM     16  H   UNL     1      46.832   1.933   8.943  0.00  0.00    +0.000 HD
BRANCH  15  17
ATOM     17  C   UNL     1      46.837   0.958   7.182  0.00  0.00    +0.000 C 
BRANCH  17  18
ATOM     18  C   UNL     1      47.548   2.199   6.606  0.00  0.00    +0.000 C 
BRANCH  18  19
ATOM     19  N   UNL     1      48.593   1.809   5.652  0.00  0.00    +0.000 NA
ATOM     20  H   UNL     1      48.155   1.609   4.754  0.00  0.00    +0.000 HD
ATOM     21  H   UNL     1      49.011   0.933   5.966  0.00  0.00    +0.000 HD
ENDBRANCH  18  19
ENDBRANCH  17  18
ENDBRANCH  15  17
ENDBRANCH  14  15
ENDBRANCH   8  14
ENDBRANCH   7  11
ENDBRANCH   1   7
BRANCH   4  22
ATOM     22  C   UNL     1      48.984   8.234  14.136  0.00  0.00    +0.000 C 
BRANCH  22  23
ATOM     23  N   UNL     1      49.568   7.144  14.875  0.00  0.00    +0.000 N 
ATOM     24  C   UNL     1      49.460   7.068  16.242  0.00  0.00    +0.000 C 
ATOM     25  O   UNL     1      48.819   7.887  16.891  0.00  0.00    +0.000 OA
ATOM     26  H   UNL     1      50.289   6.603  14.407  0.00  0.00    +0.000 HD
BRANCH  24  27
ATOM     27  C   UNL     1      50.100   5.909  16.878  0.00  0.00    +0.000 A 
ATOM     28  C   UNL     1      49.317   4.932  17.481  0.00  0.00    +0.000 A 
ATOM     29  S   UNL     1      50.216   3.628  18.115  0.00  0.00    +0.000 S 
ATOM     30  C   UNL     1      51.688   4.349  17.660  0.00  0.00    +0.000 A 
ATOM     31  N   UNL     1      52.876   3.748  17.938  0.00  0.00    +0.000 NA
ATOM     32  C   UNL     1      53.914   4.421  17.566  0.00  0.00    +0.000 A 
ATOM     33  N   UNL     1      53.873   5.637  16.935  0.00  0.00    +0.000 N 
ATOM     34  C   UNL     1      52.693   6.266  16.606  0.00  0.00    +0.000 A 
ATOM     35  O   UNL     1      52.685   7.332  16.000  0.00  0.00    +0.000 OA
ATOM     36  C   UNL     1      51.498   5.557  17.016  0.00  0.00    +0.000 A 
ATOM     37  H   UNL     1      54.721   6.109  16.663  0.00  0.00    +0.000 HD
ENDBRANCH  24  27
ENDBRANCH  22  23
ENDBRANCH   4  22
TORSDOF 10
ENDMDL
MODEL 3
REMARK VINA RESULT:    -6.737      4.689      9.565
REMARK INTER + INTRA:         -11.645
REMARK INTER:                 -10.631
REMARK INTRA:                  -1.014
REMARK UNBOUND:                -1.167
REMARK  Name = 
REMARK  10 active torsions:
REMARK  status: ('A' for Active; 'I' for Inactive)
REMARK    1  A    between atoms: N_1  and  C_2
REMARK    2  A    between atoms: C_2  and  C_3
REMARK    3  A    between atoms: C_3  and  N_4
REMARK    4  A    between atoms: N_4  and  C_5
REMARK    5  A    between atoms: C_5  and  C_6
REMARK    6  A    between atoms: C_9  and  C_10
REMARK    7  A    between atoms: C_10  and  C_11
REMARK    8  A    between atoms: C_14  and  C_15
REMARK    9  A    between atoms: C_15  and  N_16
REMARK   10  A    between atoms: C_17  and  C_19
REMARK                            x       y       z     vdW  Elec       q    Type
REMARK                         _______ _______ _______ _____ _____    ______ ____
ROOT
ATOM      1  C   UNL     1      49.303   5.417  16.831  0.00  0.00    +0.000 A 
ATOM      2  C   UNL     1      49.958   6.560  16.377  0.00  0.00    +0.000 A 
ATOM      3  C   UNL     1      49.528   7.162  15.195  0.00  0.00    +0.000 A 
ATOM      4  C   UNL     1      48.446   6.626  14.496  0.00  0.00    +0.000 A 
ATOM      5  C   UNL     1      47.874   5.467  15.007  0.00  0.00    +0.000 A 
ATOM      6  N   UNL     1      48.272   4.859  16.149  0.00  0.00    +0.000 NA
ENDROOT
BRANCH   1   7
ATOM      7  C   UNL     1      49.700   4.761  18.134  0.00  0.00    +0.000 C 
BRANCH   7  11
ATOM      8  C   UNL     1      52.464   1.554  17.615  0.00  0.00    +0.000 A 
ATOM      9  C   UNL     1      52.920   2.734  18.190  0.00  0.00    +0.000 A 
ATOM     10  C   UNL     1      52.025   3.784  18.380  0.00  0.00    +0.000 A 
ATOM     11  C   UNL     1      50.693   3.637  17.988  0.00  0.00    +0.000 A 
ATOM     12  C   UNL     1      50.327   2.422  17.415  0.00  0.00    +0.000 A 
ATOM     13  N   UNL     1      51.174   1.382  17.224  0.00  0.00    +0.000 NA
BRANCH   8  14
ATOM     14  C   UNL     1      53.394   0.358  17.514  0.00  0.00    +0.000 C 
BRANCH  14  15
ATOM     15  N   UNL     1      53.082  -0.719  18.477  0.00  0.00    +0.000 NA
ATOM     16  H   UNL     1      52.659  -0.265  19.291  0.00  0.00    +0.000 HD
BRANCH  15  17
ATOM     17  C   UNL     1      54.307  -1.377  18.977  0.00  0.00    +0.000 C 
BRANCH  17  18
ATOM     18  C   UNL     1      54.048  -2.738  19.651  0.00  0.00    +0.000 C 
BRANCH  18  19
ATOM     19  N   UNL     1      52.802  -2.711  20.427  0.00  0.00    +0.000 NA
ATOM     20  H   UNL     1      53.019  -2.935  21.397  0.00  0.00    +0.000 HD
ATOM     21  H   UNL     1      52.193  -3.456  20.092  0.00  0.00    +0.000 HD
ENDBRANCH  18  19
ENDBRANCH  17  18
ENDBRANCH  15  17
ENDBRANCH  14  15
ENDBRANCH   8  14
ENDBRANCH   7  11
ENDBRANCH   1   7
BRANCH   4  22
ATOM     22  C   UNL     1      47.928   7.241  13.229  0.00  0.00    +0.000 C 
BRANCH  22  23
ATOM     23  N   UNL     1      47.257   6.267  12.407  0.00  0.00    +0.000 N 
ATOM     24  C   UNL     1      46.141   6.594  11.676  0.00  0.00    +0.000 C 
ATOM     25  O   UNL     1      45.696   7.736  11.644  0.00  0.00    +0.000 OA
ATOM     26  H   UNL     1      47.450   5.288  12.601  0.00  0.00    +0.000 HD
BRANCH  24  27
ATOM     27  C   UNL     1      45.549   5.511  10.880  0.00  0.00    +0.000 A 
ATOM     28  C   UNL     1      45.639   5.544   9.494  0.00  0.00    +0.000 A 
ATOM     29  S   UNL     1      44.955   4.181   8.730  0.00  0.00    +0.000 S 
ATOM     30  C   UNL     1      44.459   3.525  10.220  0.00  0.00    +0.000 A 
ATOM     31  N   UNL     1      43.778   2.350  10.274  0.00  0.00    +0.000 NA
ATOM     32  C   UNL     1      43.435   1.987  11.465  0.00  0.00    +0.000 A 
ATOM     33  N   UNL     1      43.718   2.688  12.608  0.00  0.00    +0.000 N 
ATOM     34  C   UNL     1      44.432   3.864  12.602  0.00  0.00    +0.000 A 
ATOM     35  O   UNL     1      44.711   4.447  13.645  0.00  0.00    +0.000 OA
ATOM     36  C   UNL     1      44.828   4.323  11.286  0.00  0.00    +0.000 A 
ATOM     37  H   UNL     1      43.428   2.345  13.511  0.00  0.00    +0.000 HD
ENDBRANCH  24  27
ENDBRANCH  22  23
ENDBRANCH   4  22
TORSDOF 10
ENDMDL
MODEL 4
REMARK VINA RESULT:    -6.630      2.678      3.954
REMARK INTER + INTRA:         -11.478
REMARK INTER:                 -10.035
REMARK INTRA:                  -1.443
REMARK UNBOUND:                -1.167
REMARK  Name = 
REMARK  10 active torsions:
REMARK  status: ('A' for Active; 'I' for Inactive)
REMARK    1  A    between atoms: N_1  and  C_2
REMARK    2  A    between atoms: C_2  and  C_3
REMARK    3  A    between atoms: C_3  and  N_4
REMARK    4  A    between atoms: N_4  and  C_5
REMARK    5  A    between atoms: C_5  and  C_6
REMARK    6  A    between atoms: C_9  and  C_10
REMARK    7  A    between atoms: C_10  and  C_11
REMARK    8  A    between atoms: C_14  and  C_15
REMARK    9  A    between atoms: C_15  and  N_16
REMARK   10  A    between atoms: C_17  and  C_19
REMARK                            x       y       z     vdW  Elec       q    Type
REMARK                         _______ _______ _______ _____ _____    ______ ____
ROOT
ATOM      1  C   UNL     1      48.439   8.038  13.687  0.00  0.00    +0.000 A 
ATOM      2  C   UNL     1      49.672   7.393  13.753  0.00  0.00    +0.000 A 
ATOM      3  C   UNL     1      50.410   7.464  14.934  0.00  0.00    +0.000 A 
ATOM      4  C   UNL     1      49.901   8.162  16.031  0.00  0.00    +0.000 A 
ATOM      5  C   UNL     1      48.678   8.800  15.862  0.00  0.00    +0.000 A 
ATOM      6  N   UNL     1      47.942   8.750  14.728  0.00  0.00    +0.000 NA
ENDROOT
BRANCH   1   7
ATOM      7  C   UNL     1      47.580   7.943  12.446  0.00  0.00    +0.000 C 
BRANCH   7  11
ATOM      8  C   UNL     1      44.495   4.998  12.535  0.00  0.00    +0.000 A 
ATOM      9  C   UNL     1      45.597   4.827  13.363  0.00  0.00    +0.000 A 
ATOM     10  C   UNL     1      46.604   5.788  13.357  0.00  0.00    +0.000 A 
ATOM     11  C   UNL     1      46.494   6.900  12.519  0.00  0.00    +0.000 A 
ATOM     12  C   UNL     1      45.358   6.985  11.719  0.00  0.00    +0.000 A 
ATOM     13  N   UNL     1      44.360   6.069  11.710  0.00  0.00    +0.000 NA
BRANCH   8  14
ATOM     14  C   UNL     1      43.332   4.026  12.620  0.00  0.00    +0.000 C 
BRANCH  14  15
ATOM     15  N   UNL     1      42.966   3.423  11.320  0.00  0.00    +0.000 NA
ATOM     16  H   UNL     1      42.264   2.706  11.522  0.00  0.00    +0.000 HD
BRANCH  15  17
ATOM     17  C   UNL     1      44.104   2.709  10.709  0.00  0.00    +0.000 C 
BRANCH  17  18
ATOM     18  C   UNL     1      44.417   3.159   9.269  0.00  0.00    +0.000 C 
BRANCH  18  19
ATOM     19  N   UNL     1      43.860   4.491   9.003  0.00  0.00    +0.000 NA
ATOM     20  H   UNL     1      42.873   4.486   9.257  0.00  0.00    +0.000 HD
ATOM     21  H   UNL     1      43.894   4.665   7.998  0.00  0.00    +0.000 HD
ENDBRANCH  18  19
ENDBRANCH  17  18
ENDBRANCH  15  17
ENDBRANCH  14  15
ENDBRANCH   8  14
ENDBRANCH   7  11
ENDBRANCH   1   7
BRANCH   4  22
ATOM     22  C   UNL     1      50.643   8.258  17.332  0.00  0.00    +0.000 C 
BRANCH  22  23
ATOM     23  N   UNL     1      51.424   7.074  17.580  0.00  0.00    +0.000 N 
ATOM     24  C   UNL     1      51.000   6.109  18.461  0.00  0.00    +0.000 C 
ATOM     25  O   UNL     1      49.920   6.181  19.035  0.00  0.00    +0.000 OA
ATOM     26  H   UNL     1      52.404   7.103  17.315  0.00  0.00    +0.000 HD
BRANCH  24  27
ATOM     27  C   UNL     1      51.887   4.949  18.626  0.00  0.00    +0.000 A 
ATOM     28  C   UNL     1      53.085   5.090  19.316  0.00  0.00    +0.000 A 
ATOM     29  S   UNL     1      53.962   3.635  19.469  0.00  0.00    +0.000 S 
ATOM     30  C   UNL     1      52.803   2.776  18.568  0.00  0.00    +0.000 A 
ATOM     31  N   UNL     1      52.964   1.452  18.302  0.00  0.00    +0.000 NA
ATOM     32  C   UNL     1      52.026   0.935  17.580  0.00  0.00    +0.000 A 
ATOM     33  N   UNL     1      50.937   1.619  17.106  0.00  0.00    +0.000 N 
ATOM     34  C   UNL     1      50.718   2.950  17.378  0.00  0.00    +0.000 A 
ATOM     35  O   UNL     1      49.711   3.526  16.979  0.00  0.00    +0.000 OA
ATOM     36  C   UNL     1      51.751   3.582  18.172  0.00  0.00    +0.000 A 
ATOM     37  H   UNL     1      50.233   1.154  16.553  0.00  0.00    +0.000 HD
ENDBRANCH  24  27
ENDBRANCH  22  23
ENDBRANCH   4  22
TORSDOF 10
ENDMDL
MODEL 5
REMARK VINA RESULT:    -6.583      5.062      9.008
REMARK INTER + INTRA:         -11.406
REMARK INTER:                 -10.307
REMARK INTRA:                  -1.099
REMARK UNBOUND:                -1.167
REMARK  Name = 
REMARK  10 active torsions:
REMARK  status: ('A' for Active; 'I' for Inactive)
REMARK    1  A    between atoms: N_1  and  C_2
REMARK    2  A    between atoms: C_2  and  C_3
REMARK    3  A    between atoms: C_3  and  N_4
REMARK    4  A    between atoms: N_4  and  C_5
REMARK    5  A    between atoms: C_5  and  C_6
REMARK    6  A    between atoms: C_9  and  C_10
REMARK    7  A    between atoms: C_10  and  C_11
REMARK    8  A    between atoms: C_14  and  C_15
REMARK    9  A    between atoms: C_15  and  N_16
REMARK   10  A    between atoms: C_17  and  C_19
REMARK                            x       y       z     vdW  Elec       q    Type
REMARK                         _______ _______ _______ _____ _____    ______ ____
ROOT
ATOM      1  C   UNL     1      49.822   4.983  17.317  0.00  0.00    +0.000 A 
ATOM      2  C   UNL     1      50.548   6.123  16.975  0.00  0.00    +0.000 A 
ATOM      3  C   UNL     1      50.061   6.959  15.970  0.00  0.00    +0.000 A 
ATOM      4  C   UNL     1      48.855   6.654  15.336  0.00  0.00    +0.000 A 
ATOM      5  C   UNL     1      48.217   5.480  15.722  0.00  0.00    +0.000 A 
ATOM      6  N   UNL     1      48.667   4.650  16.690  0.00  0.00    +0.000 NA
ENDROOT
BRANCH   1   7
ATOM      7  C   UNL     1      50.284   4.077  18.436  0.00  0.00    +0.000 C 
BRANCH   7  11
ATOM      8  C   UNL     1      53.463   1.411  17.446  0.00  0.00    +0.000 A 
ATOM      9  C   UNL     1      52.157   1.006  17.196  0.00  0.00    +0.000 A 
ATOM     10  C   UNL     1      51.110   1.873  17.499  0.00  0.00    +0.000 A 
ATOM     11  C   UNL     1      51.386   3.125  18.051  0.00  0.00    +0.000 A 
ATOM     12  C   UNL     1      52.724   3.443  18.273  0.00  0.00    +0.000 A 
ATOM     13  N   UNL     1      53.762   2.623  17.982  0.00  0.00    +0.000 NA
BRANCH   8  14
ATOM     14  C   UNL     1      54.620   0.531  17.008  0.00  0.00    +0.000 C 
BRANCH  14  15
ATOM     15  N   UNL     1      54.196  -0.754  16.413  0.00  0.00    +0.000 NA
ATOM     16  H   UNL     1      53.398  -1.079  16.966  0.00  0.00    +0.000 HD
BRANCH  15  17
ATOM     17  C   UNL     1      55.235  -1.793  16.559  0.00  0.00    +0.000 C 
BRANCH  17  18
ATOM     18  C   UNL     1      54.987  -3.044  15.694  0.00  0.00    +0.000 C 
BRANCH  18  19
ATOM     19  N   UNL     1      53.901  -2.811  14.734  0.00  0.00    +0.000 NA
ATOM     20  H   UNL     1      53.040  -2.643  15.253  0.00  0.00    +0.000 HD
ATOM     21  H   UNL     1      53.748  -3.666  14.200  0.00  0.00    +0.000 HD
ENDBRANCH  18  19
ENDBRANCH  17  18
ENDBRANCH  15  17
ENDBRANCH  14  15
ENDBRANCH   8  14
ENDBRANCH   7  11
ENDBRANCH   1   7
BRANCH   4  22
ATOM     22  C   UNL     1      48.274   7.525  14.261  0.00  0.00    +0.000 C 
BRANCH  22  23
ATOM     23  N   UNL     1      47.032   6.990  13.766  0.00  0.00    +0.000 N 
ATOM     24  C   UNL     1      46.801   6.846  12.420  0.00  0.00    +0.000 C 
ATOM     25  O   UNL     1      47.654   7.113  11.581  0.00  0.00    +0.000 OA
ATOM     26  H   UNL     1      46.242   6.990  14.404  0.00  0.00    +0.000 HD
BRANCH  24  27
ATOM     27  C   UNL     1      45.495   6.289  12.043  0.00  0.00    +0.000 A 
ATOM     28  C   UNL     1      44.518   7.121  11.510  0.00  0.00    +0.000 A 
ATOM     29  S   UNL     1      43.087   6.303  11.069  0.00  0.00    +0.000 S 
ATOM     30  C   UNL     1      43.698   4.818  11.631  0.00  0.00    +0.000 A 
ATOM     31  N   UNL     1      42.948   3.685  11.570  0.00  0.00    +0.000 NA
ATOM     32  C   UNL     1      43.521   2.638  12.060  0.00  0.00    +0.000 A 
ATOM     33  N   UNL     1      44.781   2.617  12.600  0.00  0.00    +0.000 N 
ATOM     34  C   UNL     1      45.587   3.732  12.653  0.00  0.00    +0.000 A 
ATOM     35  O   UNL     1      46.728   3.674  13.100  0.00  0.00    +0.000 OA
ATOM     36  C   UNL     1      44.982   4.938  12.128  0.00  0.00    +0.000 A 
ATOM     37  H   UNL     1      45.176   1.762  12.960  0.00  0.00    +0.000 HD
ENDBRANCH  24  27
ENDBRANCH  22  23
ENDBRANCH   4  22
TORSDOF 10
ENDMDL
MODEL 6
REMARK VINA RESULT:    -6.478      4.082      9.079
REMARK INTER + INTRA:         -11.243
REMARK INTER:                  -9.780
REMARK INTRA:                  -1.463
REMARK UNBOUND:                -1.167
REMARK  Name = 
REMARK  10 active torsions:
REMARK  status: ('A' for Active; 'I' for Inactive)
REMARK    1  A    between atoms: N_1  and  C_2
REMARK    2  A    between atoms: C_2  and  C_3
REMARK    3  A    between atoms: C_3  and  N_4
REMARK    4  A    between atoms: N_4  and  C_5
REMARK    5  A    between atoms: C_5  and  C_6
REMARK    6  A    between atoms: C_9  and  C_10
REMARK    7  A    between atoms: C_10  and  C_11
REMARK    8  A    between atoms: C_14  and  C_15
REMARK    9  A    between atoms: C_15  and  N_16
REMARK   10  A    between atoms: C_17  and  C_19
REMARK                            x       y       z     vdW  Elec       q    Type
REMARK                         _______ _______ _______ _____ _____    ______ ____
ROOT
ATOM      1  C   UNL     1      51.129   4.385  18.064  0.00  0.00    +0.000 A 
ATOM      2  C   UNL     1      50.897   3.113  17.546  0.00  0.00    +0.000 A 
ATOM      3  C   UNL     1      49.606   2.771  17.142  0.00  0.00    +0.000 A 
ATOM      4  C   UNL     1      48.575   3.707  17.247  0.00  0.00    +0.000 A 
ATOM      5  C   UNL     1      48.895   4.940  17.804  0.00  0.00    +0.000 A 
ATOM      6  N   UNL     1      50.136   5.297  18.206  0.00  0.00    +0.000 NA
ENDROOT
BRANCH   1   7
ATOM      7  C   UNL     1      52.522   4.817  18.464  0.00  0.00    +0.000 C 
BRANCH   7  11
ATOM      8  C   UNL     1      54.934   6.241  15.247  0.00  0.00    +0.000 A 
ATOM      9  C   UNL     1      55.389   5.154  15.984  0.00  0.00    +0.000 A 
ATOM     10  C   UNL     1      54.604   4.668  17.027  0.00  0.00    +0.000 A 
ATOM     11  C   UNL     1      53.383   5.280  17.318  0.00  0.00    +0.000 A 
ATOM     12  C   UNL     1      53.011   6.367  16.530  0.00  0.00    +0.000 A 
ATOM     13  N   UNL     1      53.751   6.856  15.507  0.00  0.00    +0.000 NA
BRANCH   8  14
ATOM     14  C   UNL     1      55.716   6.705  14.031  0.00  0.00    +0.000 C 
BRANCH  14  15
ATOM     15  N   UNL     1      54.994   6.518  12.755  0.00  0.00    +0.000 NA
ATOM     16  H   UNL     1      55.617   5.979  12.147  0.00  0.00    +0.000 HD
BRANCH  15  17
ATOM     17  C   UNL     1      54.768   7.802  12.061  0.00  0.00    +0.000 C 
BRANCH  17  18
ATOM     18  C   UNL     1      53.283   8.095  11.768  0.00  0.00    +0.000 C 
BRANCH  18  19
ATOM     19  N   UNL     1      52.494   8.092  13.005  0.00  0.00    +0.000 NA
ATOM     20  H   UNL     1      52.459   7.140  13.366  0.00  0.00    +0.000 HD
ATOM     21  H   UNL     1      51.532   8.346  12.779  0.00  0.00    +0.000 HD
ENDBRANCH  18  19
ENDBRANCH  17  18
ENDBRANCH  15  17
ENDBRANCH  14  15
ENDBRANCH   8  14
ENDBRANCH   7  11
ENDBRANCH   1   7
BRANCH   4  22
ATOM     22  C   UNL     1      47.172   3.402  16.812  0.00  0.00    +0.000 C 
BRANCH  22  23
ATOM     23  N   UNL     1      46.698   4.366  15.852  0.00  0.00    +0.000 N 
ATOM     24  C   UNL     1      46.801   4.139  14.501  0.00  0.00    +0.000 C 
ATOM     25  O   UNL     1      47.247   3.091  14.049  0.00  0.00    +0.000 OA
ATOM     26  H   UNL     1      46.554   5.315  16.183  0.00  0.00    +0.000 HD
BRANCH  24  27
ATOM     27  C   UNL     1      46.282   5.199  13.626  0.00  0.00    +0.000 A 
ATOM     28  C   UNL     1      47.038   6.343  13.405  0.00  0.00    +0.000 A 
ATOM     29  S   UNL     1      46.318   7.442  12.317  0.00  0.00    +0.000 S 
ATOM     30  C   UNL     1      44.941   6.457  12.148  0.00  0.00    +0.000 A 
ATOM     31  N   UNL     1      43.903   6.837  11.357  0.00  0.00    +0.000 NA
ATOM     32  C   UNL     1      42.909   6.011  11.347  0.00  0.00    +0.000 A 
ATOM     33  N   UNL     1      42.863   4.836  12.050  0.00  0.00    +0.000 N 
ATOM     34  C   UNL     1      43.904   4.397  12.837  0.00  0.00    +0.000 A 
ATOM     35  O   UNL     1      43.853   3.319  13.419  0.00  0.00    +0.000 OA
ATOM     36  C   UNL     1      45.037   5.297  12.894  0.00  0.00    +0.000 A 
ATOM     37  H   UNL     1      42.059   4.230  11.993  0.00  0.00    +0.000 HD
ENDBRANCH  24  27
ENDBRANCH  22  23
ENDBRANCH   4  22
TORSDOF 10
ENDMDL
MODEL 7
REMARK VINA RESULT:    -6.436      5.034      7.218
REMARK INTER + INTRA:         -11.177
REMARK INTER:                 -10.015
REMARK INTRA:                  -1.161
REMARK UNBOUND:                -1.167
REMARK  Name = 
REMARK  10 active torsions:
REMARK  status: ('A' for Active; 'I' for Inactive)
REMARK    1  A    between atoms: N_1  and  C_2
REMARK    2  A    between atoms: C_2  and  C_3
REMARK    3  A    between atoms: C_3  and  N_4
REMARK    4  A    between atoms: N_4  and  C_5
REMARK    5  A    between atoms: C_5  and  C_6
REMARK    6  A    between atoms: C_9  and  C_10
REMARK    7  A    between atoms: C_10  and  C_11
REMARK    8  A    between atoms: C_14  and  C_15
REMARK    9  A    between atoms: C_15  and  N_16
REMARK   10  A    between atoms: C_17  and  C_19
REMARK                            x       y       z     vdW  Elec       q    Type
REMARK                         _______ _______ _______ _____ _____    ______ ____
ROOT
ATOM      1  C   UNL     1      47.615   7.791  12.526  0.00  0.00    +0.000 A 
ATOM      2  C   UNL     1      47.643   9.133  12.154  0.00  0.00    +0.000 A 
ATOM      3  C   UNL     1      48.836   9.679  11.681  0.00  0.00    +0.000 A 
ATOM      4  C   UNL     1      49.973   8.876  11.573  0.00  0.00    +0.000 A 
ATOM      5  C   UNL     1      49.858   7.557  11.996  0.00  0.00    +0.000 A 
ATOM      6  N   UNL     1      48.715   7.002  12.462  0.00  0.00    +0.000 NA
ENDROOT
BRANCH   1   7
ATOM      7  C   UNL     1      46.331   7.143  12.993  0.00  0.00    +0.000 C 
BRANCH   7  11
ATOM      8  C   UNL     1      44.965   3.828  10.681  0.00  0.00    +0.000 A 
ATOM      9  C   UNL     1      45.193   5.037  10.035  0.00  0.00    +0.000 A 
ATOM     10  C   UNL     1      45.655   6.123  10.774  0.00  0.00    +0.000 A 
ATOM     11  C   UNL     1      45.875   5.983  12.146  0.00  0.00    +0.000 A 
ATOM     12  C   UNL     1      45.613   4.737  12.710  0.00  0.00    +0.000 A 
ATOM     13  N   UNL     1      45.171   3.662  12.014  0.00  0.00    +0.000 NA
BRANCH   8  14
ATOM     14  C   UNL     1      44.582   2.602   9.871  0.00  0.00    +0.000 C 
BRANCH  14  15
ATOM     15  N   UNL     1      44.928   2.706   8.438  0.00  0.00    +0.000 NA
ATOM     16  H   UNL     1      44.177   2.237   7.925  0.00  0.00    +0.000 HD
BRANCH  15  17
ATOM     17  C   UNL     1      46.161   1.959   8.117  0.00  0.00    +0.000 C 
BRANCH  17  18
ATOM     18  C   UNL     1      47.021   2.623   7.024  0.00  0.00    +0.000 C 
BRANCH  18  19
ATOM     19  N   UNL     1      46.808   4.075   6.998  0.00  0.00    +0.000 NA
ATOM     20  H   UNL     1      46.273   4.309   6.163  0.00  0.00    +0.000 HD
ATOM     21  H   UNL     1      47.712   4.536   6.895  0.00  0.00    +0.000 HD
ENDBRANCH  18  19
ENDBRANCH  17  18
ENDBRANCH  15  17
ENDBRANCH  14  15
ENDBRANCH   8  14
ENDBRANCH   7  11
ENDBRANCH   1   7
BRANCH   4  22
ATOM     22  C   UNL     1      51.279   9.404  11.054  0.00  0.00    +0.000 C 
BRANCH  22  23
ATOM     23  N   UNL     1      52.220   8.339  10.819  0.00  0.00    +0.000 N 
ATOM     24  C   UNL     1      52.872   8.213   9.617  0.00  0.00    +0.000 C 
ATOM     25  O   UNL     1      52.728   9.025   8.710  0.00  0.00    +0.000 OA
ATOM     26  H   UNL     1      52.176   7.538  11.442  0.00  0.00    +0.000 HD
BRANCH  24  27
ATOM     27  C   UNL     1      53.806   7.084   9.503  0.00  0.00    +0.000 A 
ATOM     28  C   UNL     1      54.823   6.933  10.437  0.00  0.00    +0.000 A 
ATOM     29  S   UNL     1      55.775   5.539  10.194  0.00  0.00    +0.000 S 
ATOM     30  C   UNL     1      54.901   5.119   8.796  0.00  0.00    +0.000 A 
ATOM     31  N   UNL     1      55.228   4.015   8.072  0.00  0.00    +0.000 NA
ATOM     32  C   UNL     1      54.504   3.834   7.018  0.00  0.00    +0.000 A 
ATOM     33  N   UNL     1      53.478   4.653   6.625  0.00  0.00    +0.000 N 
ATOM     34  C   UNL     1      53.092   5.762   7.344  0.00  0.00    +0.000 A 
ATOM     35  O   UNL     1      52.140   6.450   6.993  0.00  0.00    +0.000 OA
ATOM     36  C   UNL     1      53.885   6.017   8.529  0.00  0.00    +0.000 A 
ATOM     37  H   UNL     1      52.944   4.451   5.793  0.00  0.00    +0.000 HD
ENDBRANCH  24  27
ENDBRANCH  22  23
ENDBRANCH   4  22
TORSDOF 10
ENDMDL
MODEL 8
REMARK VINA RESULT:    -6.409      3.351      4.422
REMARK INTER + INTRA:         -11.135
REMARK INTER:                 -11.558
REMARK INTRA:                   0.423
REMARK UNBOUND:                -1.167
REMARK  Name = 
REMARK  10 active torsions:
REMARK  status: ('A' for Active; 'I' for Inactive)
REMARK    1  A    between atoms: N_1  and  C_2
REMARK    2  A    between atoms: C_2  and  C_3
REMARK    3  A    between atoms: C_3  and  N_4
REMARK    4  A    between atoms: N_4  and  C_5
REMARK    5  A    between atoms: C_5  and  C_6
REMARK    6  A    between atoms: C_9  and  C_10
REMARK    7  A    between atoms: C_10  and  C_11
REMARK    8  A    between atoms: C_14  and  C_15
REMARK    9  A    between atoms: C_15  and  N_16
REMARK   10  A    between atoms: C_17  and  C_19
REMARK                            x       y       z     vdW  Elec       q    Type
REMARK                         _______ _______ _______ _____ _____    ______ ____
ROOT
ATOM      1  C   UNL     1      47.424   5.549  14.718  0.00  0.00    +0.000 A 
ATOM      2  C   UNL     1      48.383   6.056  15.593  0.00  0.00    +0.000 A 
ATOM      3  C   UNL     1      48.719   5.319  16.728  0.00  0.00    +0.000 A 
ATOM      4  C   UNL     1      48.108   4.086  16.963  0.00  0.00    +0.000 A 
ATOM      5  C   UNL     1      47.141   3.676  16.052  0.00  0.00    +0.000 A 
ATOM      6  N   UNL     1      46.793   4.371  14.944  0.00  0.00    +0.000 NA
ENDROOT
BRANCH   1   7
ATOM      7  C   UNL     1      47.067   6.287  13.447  0.00  0.00    +0.000 C 
BRANCH   7  11
ATOM      8  C   UNL     1      44.927   3.885  10.646  0.00  0.00    +0.000 A 
ATOM      9  C   UNL     1      45.322   5.160  10.259  0.00  0.00    +0.000 A 
ATOM     10  C   UNL     1      46.035   5.950  11.157  0.00  0.00    +0.000 A 
ATOM     11  C   UNL     1      46.336   5.453  12.427  0.00  0.00    +0.000 A 
ATOM     12  C   UNL     1      45.895   4.167  12.730  0.00  0.00    +0.000 A 
ATOM     13  N   UNL     1      45.206   3.375  11.874  0.00  0.00    +0.000 NA
BRANCH   8  14
ATOM     14  C   UNL     1      44.259   2.966   9.639  0.00  0.00    +0.000 C 
BRANCH  14  15
ATOM     15  N   UNL     1      45.094   1.812   9.243  0.00  0.00    +0.000 NA
ATOM     16  H   UNL     1      45.705   1.611  10.039  0.00  0.00    +0.000 HD
BRANCH  15  17
ATOM     17  C   UNL     1      45.994   2.149   8.121  0.00  0.00    +0.000 C 
BRANCH  17  18
ATOM     18  C   UNL     1      46.848   0.961   7.634  0.00  0.00    +0.000 C 
BRANCH  18  19
ATOM     19  N   UNL     1      48.024   1.431   6.892  0.00  0.00    +0.000 NA
ATOM     20  H   UNL     1      48.862   1.100   7.368  0.00  0.00    +0.000 HD
ATOM     21  H   UNL     1      48.054   2.449   6.939  0.00  0.00    +0.000 HD
ENDBRANCH  18  19
ENDBRANCH  17  18
ENDBRANCH  15  17
ENDBRANCH  14  15
ENDBRANCH   8  14
ENDBRANCH   7  11
ENDBRANCH   1   7
BRANCH   4  22
ATOM     22  C   UNL     1      48.443   3.242  18.157  0.00  0.00    +0.000 C 
BRANCH  22  23
ATOM     23  N   UNL     1      49.863   3.029  18.269  0.00  0.00    +0.000 N 
ATOM     24  C   UNL     1      50.537   2.224  17.384  0.00  0.00    +0.000 C 
ATOM     25  O   UNL     1      49.979   1.692  16.432  0.00  0.00    +0.000 OA
ATOM     26  H   UNL     1      50.295   3.251  19.161  0.00  0.00    +0.000 HD
BRANCH  24  27
ATOM     27  C   UNL     1      51.984   2.088  17.606  0.00  0.00    +0.000 A 
ATOM     28  C   UNL     1      52.551   0.824  17.701  0.00  0.00    +0.000 A 
ATOM     29  S   UNL     1      54.246   0.846  17.895  0.00  0.00    +0.000 S 
ATOM     30  C   UNL     1      54.276   2.547  17.920  0.00  0.00    +0.000 A 
ATOM     31  N   UNL     1      55.444   3.223  18.086  0.00  0.00    +0.000 NA
ATOM     32  C   UNL     1      55.316   4.508  18.119  0.00  0.00    +0.000 A 
ATOM     33  N   UNL     1      54.128   5.180  17.994  0.00  0.00    +0.000 N 
ATOM     34  C   UNL     1      52.928   4.537  17.791  0.00  0.00    +0.000 A 
ATOM     35  O   UNL     1      51.886   5.165  17.636  0.00  0.00    +0.000 OA
ATOM     36  C   UNL     1      53.015   3.091  17.762  0.00  0.00    +0.000 A 
ATOM     37  H   UNL     1      54.097   6.187  18.020  0.00  0.00    +0.000 HD
ENDBRANCH  24  27
ENDBRANCH  22  23
ENDBRANCH   4  22
TORSDOF 10
ENDMDL
MODEL 9
REMARK VINA RESULT:    -6.391      4.265      8.937
REMARK INTER + INTRA:         -11.108
REMARK INTER:                  -8.980
REMARK INTRA:                  -2.127
REMARK UNBOUND:                -1.167
REMARK  Name = 
REMARK  10 active torsions:
REMARK  status: ('A' for Active; 'I' for Inactive)
REMARK    1  A    between atoms: N_1  and  C_2
REMARK    2  A    between atoms: C_2  and  C_3
REMARK    3  A    between atoms: C_3  and  N_4
REMARK    4  A    between atoms: N_4  and  C_5
REMARK    5  A    between atoms: C_5  and  C_6
REMARK    6  A    between atoms: C_9  and  C_10
REMARK    7  A    between atoms: C_10  and  C_11
REMARK    8  A    between atoms: C_14  and  C_15
REMARK    9  A    between atoms: C_15  and  N_16
REMARK   10  A    between atoms: C_17  and  C_19
REMARK                            x       y       z     vdW  Elec       q    Type
REMARK                         _______ _______ _______ _____ _____    ______ ____
ROOT
ATOM      1  C   UNL     1      51.338   3.848  18.206  0.00  0.00    +0.000 A 
ATOM      2  C   UNL     1      50.977   2.719  17.473  0.00  0.00    +0.000 A 
ATOM      3  C   UNL     1      49.634   2.517  17.160  0.00  0.00    +0.000 A 
ATOM      4  C   UNL     1      48.677   3.448  17.568  0.00  0.00    +0.000 A 
ATOM      5  C   UNL     1      49.126   4.526  18.322  0.00  0.00    +0.000 A 
ATOM      6  N   UNL     1      50.422   4.746  18.643  0.00  0.00    +0.000 NA
ENDROOT
BRANCH   1   7
ATOM      7  C   UNL     1      52.789   4.135  18.523  0.00  0.00    +0.000 C 
BRANCH   7  11
ATOM      8  C   UNL     1      54.840   6.345  15.504  0.00  0.00    +0.000 A 
ATOM      9  C   UNL     1      55.454   5.214  16.030  0.00  0.00    +0.000 A 
ATOM     10  C   UNL     1      54.789   4.474  17.004  0.00  0.00    +0.000 A 
ATOM     11  C   UNL     1      53.526   4.879  17.439  0.00  0.00    +0.000 A 
ATOM     12  C   UNL     1      52.991   6.028  16.861  0.00  0.00    +0.000 A 
ATOM     13  N   UNL     1      53.612   6.763  15.908  0.00  0.00    +0.000 NA
BRANCH   8  14
ATOM     14  C   UNL     1      55.494   7.091  14.356  0.00  0.00    +0.000 C 
BRANCH  14  15
ATOM     15  N   UNL     1      54.713   7.052  13.101  0.00  0.00    +0.000 NA
ATOM     16  H   UNL     1      55.383   6.867  12.350  0.00  0.00    +0.000 HD
BRANCH  15  17
ATOM     17  C   UNL     1      54.114   8.366  12.789  0.00  0.00    +0.000 C 
BRANCH  17  18
ATOM     18  C   UNL     1      52.595   8.309  12.532  0.00  0.00    +0.000 C 
BRANCH  18  19
ATOM     19  N   UNL     1      51.865   7.994  13.766  0.00  0.00    +0.000 NA
ATOM     20  H   UNL     1      52.487   8.146  14.558  0.00  0.00    +0.000 HD
ATOM     21  H   UNL     1      51.640   6.999  13.767  0.00  0.00    +0.000 HD
ENDBRANCH  18  19
ENDBRANCH  17  18
ENDBRANCH  15  17
ENDBRANCH  14  15
ENDBRANCH   8  14
ENDBRANCH   7  11
ENDBRANCH   1   7
BRANCH   4  22
ATOM     22  C   UNL     1      47.220   3.292  17.245  0.00  0.00    +0.000 C 
BRANCH  22  23
ATOM     23  N   UNL     1      46.797   4.245  16.251  0.00  0.00    +0.000 N 
ATOM     24  C   UNL     1      47.006   4.022  14.912  0.00  0.00    +0.000 C 
ATOM     25  O   UNL     1      47.510   2.986  14.496  0.00  0.00    +0.000 OA
ATOM     26  H   UNL     1      46.606   5.191  16.570  0.00  0.00    +0.000 HD
BRANCH  24  27
ATOM     27  C   UNL     1      46.530   5.071  14.000  0.00  0.00    +0.000 A 
ATOM     28  C   UNL     1      45.278   4.955  13.410  0.00  0.00    +0.000 A 
ATOM     29  S   UNL     1      44.856   6.287  12.430  0.00  0.00    +0.000 S 
ATOM     30  C   UNL     1      46.356   7.039  12.711  0.00  0.00    +0.000 A 
ATOM     31  N   UNL     1      46.660   8.230  12.131  0.00  0.00    +0.000 NA
ATOM     32  C   UNL     1      47.843   8.670  12.403  0.00  0.00    +0.000 A 
ATOM     33  N   UNL     1      48.749   8.030  13.209  0.00  0.00    +0.000 N 
ATOM     34  C   UNL     1      48.471   6.839  13.841  0.00  0.00    +0.000 A 
ATOM     35  O   UNL     1      49.284   6.312  14.594  0.00  0.00    +0.000 OA
ATOM     36  C   UNL     1      47.159   6.296  13.555  0.00  0.00    +0.000 A 
ATOM     37  H   UNL     1      49.656   8.431  13.389  0.00  0.00    +0.000 HD
ENDBRANCH  24  27
ENDBRANCH  22  23
ENDBRANCH   4  22
TORSDOF 10
ENDMDL
