MODEL 1
REMARK VINA RESULT:    -8.194      0.000      0.000
REMARK INTER + INTRA:         -13.538
REMARK INTER:                 -12.026
REMARK INTRA:                  -1.512
REMARK UNBOUND:                -1.512
REMARK  Name = 
REMARK  9 active torsions:
REMARK  status: ('A' for Active; 'I' for Inactive)
REMARK    1  A    between atoms: C_1  and  O_2
REMARK    2  A    between atoms: O_2  and  C_3
REMARK    3  A    between atoms: C_10  and  C_11
REMARK    4  A    between atoms: N_13  and  C_14
REMARK    5  A    between atoms: C_14  and  C_15
REMARK    6  A    between atoms: C_18  and  C_19
REMARK    7  A    between atoms: C_19  and  O_20
REMARK    8  A    between atoms: O_20  and  C_21
REMARK    9  A    between atoms: C_21  and  C_22
REMARK                            x       y       z     vdW  Elec       q    Type
REMARK                         _______ _______ _______ _____ _____    ______ ____
ROOT
ATOM      1  C   UNL     1      48.457   6.756  13.501  0.00  0.00    +0.000 C 
ENDROOT
BRANCH   1   2
ATOM      2  C   UNL     1      47.201   6.247  12.835  0.00  0.00    +0.000 A 
ATOM      3  C   UNL     1      46.818   6.723  11.574  0.00  0.00    +0.000 A 
ATOM      4  C   UNL     1      45.623   6.299  10.982  0.00  0.00    +0.000 A 
ATOM      5  C   UNL     1      44.773   5.403  11.642  0.00  0.00    +0.000 A 
ATOM      6  C   UNL     1      45.163   4.914  12.896  0.00  0.00    +0.000 A 
ATOM      7  C   UNL     1      46.363   5.331  13.486  0.00  0.00    +0.000 A 
BRANCH   5   8
ATOM      8  C   UNL     1      43.454   4.998  11.030  0.00  0.00    +0.000 C 
BRANCH   8   9
ATOM      9  O   UNL     1      43.689   4.415   9.754  0.00  0.00    +0.000 OA
BRANCH   9  10
ATOM     10  C   UNL     1      44.106   3.054   9.852  0.00  0.00    +0.000 C 
BRANCH  10  11
ATOM     11  C   UNL     1      45.173   2.772   8.822  0.00  0.00    +0.000 A 
ATOM     12  C   UNL     1      45.711   3.806   8.037  0.00  0.00    +0.000 A 
ATOM     13  C   UNL     1      46.721   3.554   7.107  0.00  0.00    +0.000 A 
ATOM     14  C   UNL     1      47.220   2.262   6.961  0.00  0.00    +0.000 A 
ATOM     15  C   UNL     1      46.701   1.237   7.743  0.00  0.00    +0.000 A 
ATOM     16  F   UNL     1      47.184  -0.004   7.605  0.00  0.00    +0.000 F 
ATOM     17  C   UNL     1      45.691   1.479   8.671  0.00  0.00    +0.000 A 
ENDBRANCH  10  11
ENDBRANCH   9  10
ENDBRANCH   8   9
ENDBRANCH   5   8
ENDBRANCH   1   2
BRANCH   1  20
ATOM     18  C   UNL     1      49.246   7.313  15.777  0.00  0.00    +0.000 C 
ATOM     19  O   UNL     1      50.264   7.843  15.337  0.00  0.00    +0.000 OA
ATOM     20  N   UNL     1      48.311   6.766  14.939  0.00  0.00    +0.000 N 
ATOM     21  H   UNL     1      47.447   6.404  15.317  0.00  0.00    +0.000 HD
BRANCH  18  29
ATOM     22  C   UNL     1      48.860   4.667  17.958  0.00  0.00    +0.000 A 
ATOM     23  N   UNL     1      48.773   3.840  19.020  0.00  0.00    +0.000 NA
ATOM     24  C   UNL     1      48.661   4.384  20.234  0.00  0.00    +0.000 A 
ATOM     25  N   UNL     1      48.607   5.680  20.528  0.00  0.00    +0.000 NA
ATOM     26  C   UNL     1      48.706   6.469  19.444  0.00  0.00    +0.000 A 
ATOM     27  S   UNL     1      48.639   8.155  19.627  0.00  0.00    +0.000 S 
ATOM     28  C   UNL     1      48.851   8.395  17.958  0.00  0.00    +0.000 A 
ATOM     29  C   UNL     1      48.988   7.216  17.229  0.00  0.00    +0.000 A 
ATOM     30  C   UNL     1      48.858   6.064  18.122  0.00  0.00    +0.000 A 
BRANCH  22  32
ATOM     31  C   UNL     1      47.818   3.274  16.376  0.00  0.00    +0.000 C 
ATOM     32  O   UNL     1      48.922   4.113  16.696  0.00  0.00    +0.000 OA
ENDBRANCH  22  32
ENDBRANCH  18  29
ENDBRANCH   1  20
TORSDOF 8
ENDMDL
MODEL 2
REMARK VINA RESULT:    -7.775      1.282      2.233
REMARK INTER + INTRA:         -12.924
REMARK INTER:                 -11.660
REMARK INTRA:                  -1.264
REMARK UNBOUND:                -1.512
REMARK  Name = 
REMARK  9 active torsions:
REMARK  status: ('A' for Active; 'I' for Inactive)
REMARK    1  A    between atoms: C_1  and  O_2
REMARK    2  A    between atoms: O_2  and  C_3
REMARK    3  A    between atoms: C_10  and  C_11
REMARK    4  A    between atoms: N_13  and  C_14
REMARK    5  A    between atoms: C_14  and  C_15
REMARK    6  A    between atoms: C_18  and  C_19
REMARK    7  A    between atoms: C_19  and  O_20
REMARK    8  A    between atoms: O_20  and  C_21
REMARK    9  A    between atoms: C_21  and  C_22
REMARK                            x       y       z     vdW  Elec       q    Type
REMARK                         _______ _______ _______ _____ _____    ______ ____
ROOT
ATOM      1  C   UNL     1      48.344   6.642  13.712  0.00  0.00    +0.000 C 
ENDROOT
BRANCH   1   2
ATOM      2  C   UNL     1      47.108   6.177  12.980  0.00  0.00    +0.000 A 
ATOM      3  C   UNL     1      46.726   6.774  11.771  0.00  0.00    +0.000 A 
ATOM      4  C   UNL     1      45.547   6.388  11.122  0.00  0.00    +0.000 A 
ATOM      5  C   UNL     1      44.712   5.407  11.675  0.00  0.00    +0.000 A 
ATOM      6  C   UNL     1      45.101   4.799  12.876  0.00  0.00    +0.000 A 
ATOM      7  C   UNL     1      46.284   5.180  13.521  0.00  0.00    +0.000 A 
BRANCH   5   8
ATOM      8  C   UNL     1      43.410   5.039  11.007  0.00  0.00    +0.000 C 
BRANCH   8   9
ATOM      9  O   UNL     1      43.681   4.469   9.732  0.00  0.00    +0.000 OA
BRANCH   9  10
ATOM     10  C   UNL     1      44.114   3.112   9.830  0.00  0.00    +0.000 C 
BRANCH  10  11
ATOM     11  C   UNL     1      45.179   2.841   8.796  0.00  0.00    +0.000 A 
ATOM     12  C   UNL     1      45.733   3.886   8.037  0.00  0.00    +0.000 A 
ATOM     13  C   UNL     1      46.743   3.642   7.104  0.00  0.00    +0.000 A 
ATOM     14  C   UNL     1      47.224   2.348   6.928  0.00  0.00    +0.000 A 
ATOM     15  C   UNL     1      46.690   1.312   7.684  0.00  0.00    +0.000 A 
ATOM     16  F   UNL     1      47.156   0.068   7.517  0.00  0.00    +0.000 F 
ATOM     17  C   UNL     1      45.680   1.545   8.615  0.00  0.00    +0.000 A 
ENDBRANCH  10  11
ENDBRANCH   9  10
ENDBRANCH   8   9
ENDBRANCH   5   8
ENDBRANCH   1   2
BRANCH   1  20
ATOM     18  C   UNL     1      49.314   6.402  15.973  0.00  0.00    +0.000 C 
ATOM     19  O   UNL     1      50.440   6.669  15.561  0.00  0.00    +0.000 OA
ATOM     20  N   UNL     1      48.236   6.377  15.128  0.00  0.00    +0.000 N 
ATOM     21  H   UNL     1      47.308   6.231  15.500  0.00  0.00    +0.000 HD
BRANCH  18  29
ATOM     22  C   UNL     1      48.768   8.299  18.804  0.00  0.00    +0.000 A 
ATOM     23  N   UNL     1      48.439   8.784  20.019  0.00  0.00    +0.000 NA
ATOM     24  C   UNL     1      48.175   7.912  20.994  0.00  0.00    +0.000 A 
ATOM     25  N   UNL     1      48.215   6.585  20.913  0.00  0.00    +0.000 NA
ATOM     26  C   UNL     1      48.538   6.143  19.685  0.00  0.00    +0.000 A 
ATOM     27  S   UNL     1      48.654   4.474  19.401  0.00  0.00    +0.000 S 
ATOM     28  C   UNL     1      49.029   4.729  17.762  0.00  0.00    +0.000 A 
ATOM     29  C   UNL     1      49.065   6.071  17.392  0.00  0.00    +0.000 A 
ATOM     30  C   UNL     1      48.810   6.914  18.560  0.00  0.00    +0.000 A 
BRANCH  22  32
ATOM     31  C   UNL     1      47.978   9.661  17.057  0.00  0.00    +0.000 C 
ATOM     32  O   UNL     1      49.095   9.193  17.805  0.00  0.00    +0.000 OA
ENDBRANCH  22  32
ENDBRANCH  18  29
ENDBRANCH   1  20
TORSDOF 8
ENDMDL
MODEL 3
REMARK VINA RESULT:    -7.656      1.943      3.516
REMARK INTER + INTRA:         -12.749
REMARK INTER:                 -11.397
REMARK INTRA:                  -1.352
REMARK UNBOUND:                -1.512
REMARK  Name = 
REMARK  9 active torsions:
REMARK  status: ('A' for Active; 'I' for Inactive)
REMARK    1  A    between atoms: C_1  and  O_2
REMARK    2  A    between atoms: O_2  and  C_3
REMARK    3  A    between atoms: C_10  and  C_11
REMARK    4  A    between atoms: N_13  and  C_14
REMARK    5  A    between atoms: C_14  and  C_15
REMARK    6  A    between atoms: C_18  and  C_19
REMARK    7  A    between atoms: C_19  and  O_20
REMARK    8  A    between atoms: O_20  and  C_21
REMARK    9  A    between atoms: C_21  and  C_22
REMARK                            x       y       z     vdW  Elec       q    Type
REMARK                         _______ _______ _______ _____ _____    ______ ____
ROOT
ATOM      1  C   UNL     1      47.167   4.368  14.932  0.00  0.00    +0.000 C 
ENDROOT
BRANCH   1   2
ATOM      2  C   UNL     1      46.296   4.428  13.701  0.00  0.00    +0.000 A 
ATOM      3  C   UNL     1      45.777   5.650  13.252  0.00  0.00    +0.000 A 
ATOM      4  C   UNL     1      44.918   5.700  12.147  0.00  0.00    +0.000 A 
ATOM      5  C   UNL     1      44.543   4.529  11.475  0.00  0.00    +0.000 A 
ATOM      6  C   UNL     1      45.074   3.309  11.915  0.00  0.00    +0.000 A 
ATOM      7  C   UNL     1      45.939   3.259  13.015  0.00  0.00    +0.000 A 
BRANCH   5   8
ATOM      8  C   UNL     1      43.567   4.579  10.325  0.00  0.00    +0.000 C 
BRANCH   8   9
ATOM      9  O   UNL     1      44.059   3.780   9.257  0.00  0.00    +0.000 OA
BRANCH   9  10
ATOM     10  C   UNL     1      45.246   4.324   8.681  0.00  0.00    +0.000 C 
BRANCH  10  11
ATOM     11  C   UNL     1      45.959   3.259   7.884  0.00  0.00    +0.000 A 
ATOM     12  C   UNL     1      46.663   3.583   6.712  0.00  0.00    +0.000 A 
ATOM     13  C   UNL     1      47.352   2.604   5.991  0.00  0.00    +0.000 A 
ATOM     14  C   UNL     1      47.358   1.288   6.444  0.00  0.00    +0.000 A 
ATOM     15  C   UNL     1      46.675   0.963   7.609  0.00  0.00    +0.000 A 
ATOM     16  F   UNL     1      46.684  -0.303   8.046  0.00  0.00    +0.000 F 
ATOM     17  C   UNL     1      45.982   1.932   8.333  0.00  0.00    +0.000 A 
ENDBRANCH  10  11
ENDBRANCH   9  10
ENDBRANCH   8   9
ENDBRANCH   5   8
ENDBRANCH   1   2
BRANCH   1  20
ATOM     18  C   UNL     1      48.662   5.904  16.165  0.00  0.00    +0.000 C 
ATOM     19  O   UNL     1      49.303   4.966  16.633  0.00  0.00    +0.000 OA
ATOM     20  N   UNL     1      47.607   5.689  15.318  0.00  0.00    +0.000 N 
ATOM     21  H   UNL     1      47.142   6.474  14.885  0.00  0.00    +0.000 HD
BRANCH  18  29
ATOM     22  C   UNL     1      48.991   8.793  14.307  0.00  0.00    +0.000 A 
ATOM     23  N   UNL     1      49.077  10.059  13.847  0.00  0.00    +0.000 NA
ATOM     24  C   UNL     1      49.271  11.039  14.733  0.00  0.00    +0.000 A 
ATOM     25  N   UNL     1      49.410  10.911  16.049  0.00  0.00    +0.000 NA
ATOM     26  C   UNL     1      49.309   9.638  16.468  0.00  0.00    +0.000 A 
ATOM     27  S   UNL     1      49.479   9.283  18.119  0.00  0.00    +0.000 S 
ATOM     28  C   UNL     1      49.209   7.627  17.842  0.00  0.00    +0.000 A 
ATOM     29  C   UNL     1      48.976   7.307  16.507  0.00  0.00    +0.000 A 
ATOM     30  C   UNL     1      49.079   8.512  15.683  0.00  0.00    +0.000 A 
BRANCH  22  32
ATOM     31  C   UNL     1      48.334   8.185  12.133  0.00  0.00    +0.000 C 
ATOM     32  O   UNL     1      48.845   7.770  13.395  0.00  0.00    +0.000 OA
ENDBRANCH  22  32
ENDBRANCH  18  29
ENDBRANCH   1  20
TORSDOF 8
ENDMDL
MODEL 4
REMARK VINA RESULT:    -7.619      1.644      2.333
REMARK INTER + INTRA:         -12.694
REMARK INTER:                 -11.277
REMARK INTRA:                  -1.416
REMARK UNBOUND:                -1.512
REMARK  Name = 
REMARK  9 active torsions:
REMARK  status: ('A' for Active; 'I' for Inactive)
REMARK    1  A    between atoms: C_1  and  O_2
REMARK    2  A    between atoms: O_2  and  C_3
REMARK    3  A    between atoms: C_10  and  C_11
REMARK    4  A    between atoms: N_13  and  C_14
REMARK    5  A    between atoms: C_14  and  C_15
REMARK    6  A    between atoms: C_18  and  C_19
REMARK    7  A    between atoms: C_19  and  O_20
REMARK    8  A    between atoms: O_20  and  C_21
REMARK    9  A    between atoms: C_21  and  C_22
REMARK                            x       y       z     vdW  Elec       q    Type
REMARK                         _______ _______ _______ _____ _____    ______ ____
ROOT
ATOM      1  C   UNL     1      47.680   4.420  14.930  0.00  0.00    +0.000 C 
ENDROOT
BRANCH   1   2
ATOM      2  C   UNL     1      46.620   4.529  13.860  0.00  0.00    +0.000 A 
ATOM      3  C   UNL     1      46.110   3.381  13.240  0.00  0.00    +0.000 A 
ATOM      4  C   UNL     1      45.172   3.483  12.205  0.00  0.00    +0.000 A 
ATOM      5  C   UNL     1      44.735   4.735  11.754  0.00  0.00    +0.000 A 
ATOM      6  C   UNL     1      45.234   5.883  12.384  0.00  0.00    +0.000 A 
ATOM      7  C   UNL     1      46.165   5.782  13.424  0.00  0.00    +0.000 A 
BRANCH   5   8
ATOM      8  C   UNL     1      43.774   4.844  10.595  0.00  0.00    +0.000 C 
BRANCH   8   9
ATOM      9  O   UNL     1      44.094   3.854   9.625  0.00  0.00    +0.000 OA
BRANCH   9  10
ATOM     10  C   UNL     1      44.906   4.376   8.573  0.00  0.00    +0.000 C 
BRANCH  10  11
ATOM     11  C   UNL     1      45.729   3.266   7.967  0.00  0.00    +0.000 A 
ATOM     12  C   UNL     1      45.751   1.984   8.543  0.00  0.00    +0.000 A 
ATOM     13  C   UNL     1      46.485   0.947   7.965  0.00  0.00    +0.000 A 
ATOM     14  C   UNL     1      47.197   1.174   6.790  0.00  0.00    +0.000 A 
ATOM     15  C   UNL     1      47.169   2.435   6.208  0.00  0.00    +0.000 A 
ATOM     16  F   UNL     1      47.850   2.652   5.075  0.00  0.00    +0.000 F 
ATOM     17  C   UNL     1      46.442   3.477   6.779  0.00  0.00    +0.000 A 
ENDBRANCH  10  11
ENDBRANCH   9  10
ENDBRANCH   8   9
ENDBRANCH   5   8
ENDBRANCH   1   2
BRANCH   1  20
ATOM     18  C   UNL     1      48.636   6.400  16.059  0.00  0.00    +0.000 C 
ATOM     19  O   UNL     1      49.695   6.287  15.447  0.00  0.00    +0.000 OA
ATOM     20  N   UNL     1      47.600   5.528  15.853  0.00  0.00    +0.000 N 
ATOM     21  H   UNL     1      46.712   5.685  16.308  0.00  0.00    +0.000 HD
BRANCH  18  29
ATOM     22  C   UNL     1      47.687   6.396  19.377  0.00  0.00    +0.000 A 
ATOM     23  N   UNL     1      47.441   6.669  20.675  0.00  0.00    +0.000 NA
ATOM     24  C   UNL     1      47.530   7.939  21.079  0.00  0.00    +0.000 A 
ATOM     25  N   UNL     1      47.824   8.997  20.330  0.00  0.00    +0.000 NA
ATOM     26  C   UNL     1      48.071   8.682  19.047  0.00  0.00    +0.000 A 
ATOM     27  S   UNL     1      48.446   9.912  17.939  0.00  0.00    +0.000 S 
ATOM     28  C   UNL     1      48.634   8.788  16.678  0.00  0.00    +0.000 A 
ATOM     29  C   UNL     1      48.429   7.466  17.063  0.00  0.00    +0.000 A 
ATOM     30  C   UNL     1      48.051   7.413  18.475  0.00  0.00    +0.000 A 
BRANCH  22  32
ATOM     31  C   UNL     1      48.696   4.284  19.149  0.00  0.00    +0.000 C 
ATOM     32  O   UNL     1      47.546   5.096  18.940  0.00  0.00    +0.000 OA
ENDBRANCH  22  32
ENDBRANCH  18  29
ENDBRANCH   1  20
TORSDOF 8
ENDMDL
MODEL 5
REMARK VINA RESULT:    -7.477      1.563      2.936
REMARK INTER + INTRA:         -12.485
REMARK INTER:                 -11.223
REMARK INTRA:                  -1.262
REMARK UNBOUND:                -1.512
REMARK  Name = 
REMARK  9 active torsions:
REMARK  status: ('A' for Active; 'I' for Inactive)
REMARK    1  A    between atoms: C_1  and  O_2
REMARK    2  A    between atoms: O_2  and  C_3
REMARK    3  A    between atoms: C_10  and  C_11
REMARK    4  A    between atoms: N_13  and  C_14
REMARK    5  A    between atoms: C_14  and  C_15
REMARK    6  A    between atoms: C_18  and  C_19
REMARK    7  A    between atoms: C_19  and  O_20
REMARK    8  A    between atoms: O_20  and  C_21
REMARK    9  A    between atoms: C_21  and  C_22
REMARK                            x       y       z     vdW  Elec       q    Type
REMARK                         _______ _______ _______ _____ _____    ______ ____
ROOT
ATOM      1  C   UNL     1      47.425   3.907  15.342  0.00  0.00    +0.000 C 
ENDROOT
BRANCH   1   2
ATOM      2  C   UNL     1      46.791   4.304  14.030  0.00  0.00    +0.000 A 
ATOM      3  C   UNL     1      46.824   5.636  13.596  0.00  0.00    +0.000 A 
ATOM      4  C   UNL     1      46.184   6.018  12.410  0.00  0.00    +0.000 A 
ATOM      5  C   UNL     1      45.482   5.081  11.640  0.00  0.00    +0.000 A 
ATOM      6  C   UNL     1      45.462   3.747  12.067  0.00  0.00    +0.000 A 
ATOM      7  C   UNL     1      46.109   3.362  13.248  0.00  0.00    +0.000 A 
BRANCH   5   8
ATOM      8  C   UNL     1      44.739   5.508  10.398  0.00  0.00    +0.000 C 
BRANCH   8   9
ATOM      9  O   UNL     1      45.442   5.050   9.250  0.00  0.00    +0.000 OA
BRANCH   9  10
ATOM     10  C   UNL     1      44.742   4.008   8.569  0.00  0.00    +0.000 C 
BRANCH  10  11
ATOM     11  C   UNL     1      45.727   3.108   7.864  0.00  0.00    +0.000 A 
ATOM     12  C   UNL     1      46.587   3.612   6.874  0.00  0.00    +0.000 A 
ATOM     13  C   UNL     1      47.522   2.788   6.245  0.00  0.00    +0.000 A 
ATOM     14  C   UNL     1      47.621   1.449   6.610  0.00  0.00    +0.000 A 
ATOM     15  C   UNL     1      46.783   0.947   7.598  0.00  0.00    +0.000 A 
ATOM     16  F   UNL     1      46.881  -0.341   7.952  0.00  0.00    +0.000 F 
ATOM     17  C   UNL     1      45.844   1.760   8.229  0.00  0.00    +0.000 A 
ENDBRANCH  10  11
ENDBRANCH   9  10
ENDBRANCH   8   9
ENDBRANCH   5   8
ENDBRANCH   1   2
BRANCH   1  20
ATOM     18  C   UNL     1      48.707   5.237  16.985  0.00  0.00    +0.000 C 
ATOM     19  O   UNL     1      49.626   4.422  16.987  0.00  0.00    +0.000 OA
ATOM     20  N   UNL     1      47.599   5.057  16.200  0.00  0.00    +0.000 N 
ATOM     21  H   UNL     1      46.891   5.776  16.156  0.00  0.00    +0.000 HD
BRANCH  18  29
ATOM     22  C   UNL     1      48.570   8.626  16.349  0.00  0.00    +0.000 A 
ATOM     23  N   UNL     1      48.437   9.968  16.390  0.00  0.00    +0.000 NA
ATOM     24  C   UNL     1      48.401  10.560  17.586  0.00  0.00    +0.000 A 
ATOM     25  N   UNL     1      48.499   9.970  18.774  0.00  0.00    +0.000 NA
ATOM     26  C   UNL     1      48.622   8.635  18.689  0.00  0.00    +0.000 A 
ATOM     27  S   UNL     1      48.779   7.717  20.108  0.00  0.00    +0.000 S 
ATOM     28  C   UNL     1      48.840   6.266  19.223  0.00  0.00    +0.000 A 
ATOM     29  C   UNL     1      48.734   6.440  17.845  0.00  0.00    +0.000 A 
ATOM     30  C   UNL     1      48.645   7.865  17.530  0.00  0.00    +0.000 A 
BRANCH  22  32
ATOM     31  C   UNL     1      49.996   7.860  14.643  0.00  0.00    +0.000 C 
ATOM     32  O   UNL     1      48.663   8.012  15.117  0.00  0.00    +0.000 OA
ENDBRANCH  22  32
ENDBRANCH  18  29
ENDBRANCH   1  20
TORSDOF 8
ENDMDL
MODEL 6
REMARK VINA RESULT:    -6.652      1.840      2.532
REMARK INTER + INTRA:         -11.276
REMARK INTER:                 -10.864
REMARK INTRA:                  -0.411
REMARK UNBOUND:                -1.512
REMARK  Name = 
REMARK  9 active torsions:
REMARK  status: ('A' for Active; 'I' for Inactive)
REMARK    1  A    between atoms: C_1  and  O_2
REMARK    2  A    between atoms: O_2  and  C_3
REMARK    3  A    between atoms: C_10  and  C_11
REMARK    4  A    between atoms: N_13  and  C_14
REMARK    5  A    between atoms: C_14  and  C_15
REMARK    6  A    between atoms: C_18  and  C_19
REMARK    7  A    between atoms: C_19  and  O_20
REMARK    8  A    between atoms: O_20  and  C_21
REMARK    9  A    between atoms: C_21  and  C_22
REMARK                            x       y       z     vdW  Elec       q    Type
REMARK                         _______ _______ _______ _____ _____    ______ ____
ROOT
ATOM      1  C   UNL     1      47.464   4.032  15.375  0.00  0.00    +0.000 C 
ENDROOT
BRANCH   1   2
ATOM      2  C   UNL     1      46.785   4.537  14.124  0.00  0.00    +0.000 A 
ATOM      3  C   UNL     1      46.043   3.667  13.314  0.00  0.00    +0.000 A 
ATOM      4  C   UNL     1      45.463   4.117  12.122  0.00  0.00    +0.000 A 
ATOM      5  C   UNL     1      45.627   5.444  11.701  0.00  0.00    +0.000 A 
ATOM      6  C   UNL     1      46.357   6.318  12.518  0.00  0.00    +0.000 A 
ATOM      7  C   UNL     1      46.929   5.870  13.715  0.00  0.00    +0.000 A 
BRANCH   5   8
ATOM      8  C   UNL     1      45.057   5.910  10.384  0.00  0.00    +0.000 C 
BRANCH   8   9
ATOM      9  O   UNL     1      45.684   5.199   9.323  0.00  0.00    +0.000 OA
BRANCH   9  10
ATOM     10  C   UNL     1      44.908   4.081   8.893  0.00  0.00    +0.000 C 
BRANCH  10  11
ATOM     11  C   UNL     1      45.770   3.144   8.083  0.00  0.00    +0.000 A 
ATOM     12  C   UNL     1      46.587   3.626   7.046  0.00  0.00    +0.000 A 
ATOM     13  C   UNL     1      47.411   2.765   6.319  0.00  0.00    +0.000 A 
ATOM     14  C   UNL     1      47.442   1.409   6.630  0.00  0.00    +0.000 A 
ATOM     15  C   UNL     1      46.646   0.927   7.663  0.00  0.00    +0.000 A 
ATOM     16  F   UNL     1      46.679  -0.377   7.964  0.00  0.00    +0.000 F 
ATOM     17  C   UNL     1      45.819   1.778   8.392  0.00  0.00    +0.000 A 
ENDBRANCH  10  11
ENDBRANCH   9  10
ENDBRANCH   8   9
ENDBRANCH   5   8
ENDBRANCH   1   2
BRANCH   1  20
ATOM     18  C   UNL     1      49.000   5.115  16.981  0.00  0.00    +0.000 C 
ATOM     19  O   UNL     1      49.767   4.156  16.954  0.00  0.00    +0.000 OA
ATOM     20  N   UNL     1      47.856   5.131  16.228  0.00  0.00    +0.000 N 
ATOM     21  H   UNL     1      47.279   5.960  16.206  0.00  0.00    +0.000 HD
BRANCH  18  29
ATOM     22  C   UNL     1      51.127   5.710  19.632  0.00  0.00    +0.000 A 
ATOM     23  N   UNL     1      51.909   6.233  20.600  0.00  0.00    +0.000 NA
ATOM     24  C   UNL     1      51.758   7.524  20.903  0.00  0.00    +0.000 A 
ATOM     25  N   UNL     1      50.894   8.376  20.361  0.00  0.00    +0.000 NA
ATOM     26  C   UNL     1      50.140   7.820  19.397  0.00  0.00    +0.000 A 
ATOM     27  S   UNL     1      48.967   8.757  18.606  0.00  0.00    +0.000 S 
ATOM     28  C   UNL     1      48.526   7.453  17.608  0.00  0.00    +0.000 A 
ATOM     29  C   UNL     1      49.256   6.290  17.841  0.00  0.00    +0.000 A 
ATOM     30  C   UNL     1      50.194   6.506  18.943  0.00  0.00    +0.000 A 
BRANCH  22  32
ATOM     31  C   UNL     1      52.577   3.923  19.150  0.00  0.00    +0.000 C 
ATOM     32  O   UNL     1      51.239   4.365  19.351  0.00  0.00    +0.000 OA
ENDBRANCH  22  32
ENDBRANCH  18  29
ENDBRANCH   1  20
TORSDOF 8
ENDMDL
MODEL 7
REMARK VINA RESULT:    -6.622      4.437      9.041
REMARK INTER + INTRA:         -11.231
REMARK INTER:                  -9.915
REMARK INTRA:                  -1.315
REMARK UNBOUND:                -1.512
REMARK  Name = 
REMARK  9 active torsions:
REMARK  status: ('A' for Active; 'I' for Inactive)
REMARK    1  A    between atoms: C_1  and  O_2
REMARK    2  A    between atoms: O_2  and  C_3
REMARK    3  A    between atoms: C_10  and  C_11
REMARK    4  A    between atoms: N_13  and  C_14
REMARK    5  A    between atoms: C_14  and  C_15
REMARK    6  A    between atoms: C_18  and  C_19
REMARK    7  A    between atoms: C_19  and  O_20
REMARK    8  A    between atoms: O_20  and  C_21
REMARK    9  A    between atoms: C_21  and  C_22
REMARK                            x       y       z     vdW  Elec       q    Type
REMARK                         _______ _______ _______ _____ _____    ______ ____
ROOT
ATOM      1  C   UNL     1      47.414   3.442  17.080  0.00  0.00    +0.000 C 
ENDROOT
BRANCH   1   2
ATOM      2  C   UNL     1      48.907   3.318  17.270  0.00  0.00    +0.000 A 
ATOM      3  C   UNL     1      49.567   2.118  16.971  0.00  0.00    +0.000 A 
ATOM      4  C   UNL     1      50.941   1.979  17.204  0.00  0.00    +0.000 A 
ATOM      5  C   UNL     1      51.684   3.030  17.758  0.00  0.00    +0.000 A 
ATOM      6  C   UNL     1      51.028   4.234  18.043  0.00  0.00    +0.000 A 
ATOM      7  C   UNL     1      49.655   4.377  17.802  0.00  0.00    +0.000 A 
BRANCH   5   8
ATOM      8  C   UNL     1      53.151   2.856  18.068  0.00  0.00    +0.000 C 
BRANCH   8   9
ATOM      9  O   UNL     1      53.766   4.134  18.160  0.00  0.00    +0.000 OA
BRANCH   9  10
ATOM     10  C   UNL     1      54.910   4.243  17.313  0.00  0.00    +0.000 C 
BRANCH  10  11
ATOM     11  C   UNL     1      54.699   5.351  16.310  0.00  0.00    +0.000 A 
ATOM     12  C   UNL     1      55.549   5.494  15.201  0.00  0.00    +0.000 A 
ATOM     13  C   UNL     1      55.335   6.498  14.254  0.00  0.00    +0.000 A 
ATOM     14  C   UNL     1      54.254   7.364  14.396  0.00  0.00    +0.000 A 
ATOM     15  C   UNL     1      53.402   7.219  15.484  0.00  0.00    +0.000 A 
ATOM     16  F   UNL     1      52.360   8.050  15.619  0.00  0.00    +0.000 F 
ATOM     17  C   UNL     1      53.609   6.223  16.435  0.00  0.00    +0.000 A 
ENDBRANCH  10  11
ENDBRANCH   9  10
ENDBRANCH   8   9
ENDBRANCH   5   8
ENDBRANCH   1   2
BRANCH   1  20
ATOM     18  C   UNL     1      47.116   4.205  14.748  0.00  0.00    +0.000 C 
ATOM     19  O   UNL     1      47.386   3.091  14.307  0.00  0.00    +0.000 OA
ATOM     20  N   UNL     1      47.102   4.452  16.095  0.00  0.00    +0.000 N 
ATOM     21  H   UNL     1      46.803   5.354  16.439  0.00  0.00    +0.000 HD
BRANCH  18  29
ATOM     22  C   UNL     1      44.485   4.952  12.643  0.00  0.00    +0.000 A 
ATOM     23  N   UNL     1      43.562   5.525  11.844  0.00  0.00    +0.000 NA
ATOM     24  C   UNL     1      43.810   6.750  11.373  0.00  0.00    +0.000 A 
ATOM     25  N   UNL     1      44.896   7.485  11.592  0.00  0.00    +0.000 NA
ATOM     26  C   UNL     1      45.786   6.883  12.399  0.00  0.00    +0.000 A 
ATOM     27  S   UNL     1      47.243   7.668  12.774  0.00  0.00    +0.000 S 
ATOM     28  C   UNL     1      47.737   6.383  13.772  0.00  0.00    +0.000 A 
ATOM     29  C   UNL     1      46.815   5.343  13.852  0.00  0.00    +0.000 A 
ATOM     30  C   UNL     1      45.666   5.630  12.994  0.00  0.00    +0.000 A 
BRANCH  22  32
ATOM     31  C   UNL     1      43.519   2.858  12.183  0.00  0.00    +0.000 C 
ATOM     32  O   UNL     1      44.261   3.666  13.090  0.00  0.00    +0.000 OA
ENDBRANCH  22  32
ENDBRANCH  18  29
ENDBRANCH   1  20
TORSDOF 8
ENDMDL
MODEL 8
REMARK VINA RESULT:    -6.361      4.420      9.448
REMARK INTER + INTRA:         -10.848
REMARK INTER:                  -9.105
REMARK INTRA:                  -1.743
REMARK UNBOUND:                -1.512
REMARK  Name = 
REMARK  9 active torsions:
REMARK  status: ('A' for Active; 'I' for Inactive)
REMARK    1  A    between atoms: C_1  and  O_2
REMARK    2  A    between atoms: O_2  and  C_3
REMARK    3  A    between atoms: C_10  and  C_11
REMARK    4  A    between atoms: N_13  and  C_14
REMARK    5  A    between atoms: C_14  and  C_15
REMARK    6  A    between atoms: C_18  and  C_19
REMARK    7  A    between atoms: C_19  and  O_20
REMARK    8  A    between atoms: O_20  and  C_21
REMARK    9  A    between atoms: C_21  and  C_22
REMARK                            x       y       z     vdW  Elec       q    Type
REMARK                         _______ _______ _______ _____ _____    ______ ____
ROOT
ATOM      1  C   UNL     1      47.171   3.628  16.756  0.00  0.00    +0.000 C 
ENDROOT
BRANCH   1   2
ATOM      2  C   UNL     1      47.949   4.360  17.823  0.00  0.00    +0.000 A 
ATOM      3  C   UNL     1      49.327   4.152  17.971  0.00  0.00    +0.000 A 
ATOM      4  C   UNL     1      50.039   4.781  18.999  0.00  0.00    +0.000 A 
ATOM      5  C   UNL     1      49.389   5.620  19.914  0.00  0.00    +0.000 A 
ATOM      6  C   UNL     1      48.014   5.840  19.757  0.00  0.00    +0.000 A 
ATOM      7  C   UNL     1      47.302   5.217  18.724  0.00  0.00    +0.000 A 
BRANCH   5   8
ATOM      8  C   UNL     1      50.147   6.245  21.059  0.00  0.00    +0.000 C 
BRANCH   8   9
ATOM      9  O   UNL     1      49.941   7.652  21.046  0.00  0.00    +0.000 OA
BRANCH   9  10
ATOM     10  C   UNL     1      50.731   8.302  20.050  0.00  0.00    +0.000 C 
BRANCH  10  11
ATOM     11  C   UNL     1      49.842   8.787  18.931  0.00  0.00    +0.000 A 
ATOM     12  C   UNL     1      49.966   8.266  17.631  0.00  0.00    +0.000 A 
ATOM     13  C   UNL     1      49.122   8.688  16.602  0.00  0.00    +0.000 A 
ATOM     14  C   UNL     1      48.130   9.629  16.863  0.00  0.00    +0.000 A 
ATOM     15  C   UNL     1      47.993  10.139  18.149  0.00  0.00    +0.000 A 
ATOM     16  F   UNL     1      47.036  11.040  18.401  0.00  0.00    +0.000 F 
ATOM     17  C   UNL     1      48.832   9.726  19.181  0.00  0.00    +0.000 A 
ENDBRANCH  10  11
ENDBRANCH   9  10
ENDBRANCH   8   9
ENDBRANCH   5   8
ENDBRANCH   1   2
BRANCH   1  20
ATOM     18  C   UNL     1      46.828   4.262  14.391  0.00  0.00    +0.000 C 
ATOM     19  O   UNL     1      47.307   3.201  13.997  0.00  0.00    +0.000 OA
ATOM     20  N   UNL     1      46.721   4.539  15.729  0.00  0.00    +0.000 N 
ATOM     21  H   UNL     1      46.255   5.382  16.032  0.00  0.00    +0.000 HD
BRANCH  18  29
ATOM     22  C   UNL     1      43.889   4.769  12.656  0.00  0.00    +0.000 A 
ATOM     23  N   UNL     1      42.840   5.252  11.957  0.00  0.00    +0.000 NA
ATOM     24  C   UNL     1      42.982   6.428  11.340  0.00  0.00    +0.000 A 
ATOM     25  N   UNL     1      44.069   7.193  11.319  0.00  0.00    +0.000 NA
ATOM     26  C   UNL     1      45.086   6.682  12.033  0.00  0.00    +0.000 A 
ATOM     27  S   UNL     1      46.562   7.517  12.103  0.00  0.00    +0.000 S 
ATOM     28  C   UNL     1      47.236   6.341  13.130  0.00  0.00    +0.000 A 
ATOM     29  C   UNL     1      46.365   5.303  13.449  0.00  0.00    +0.000 A 
ATOM     30  C   UNL     1      45.092   5.493  12.755  0.00  0.00    +0.000 A 
BRANCH  22  32
ATOM     31  C   UNL     1      43.664   2.451  12.329  0.00  0.00    +0.000 C 
ATOM     32  O   UNL     1      43.769   3.531  13.251  0.00  0.00    +0.000 OA
ENDBRANCH  22  32
ENDBRANCH  18  29
ENDBRANCH   1  20
TORSDOF 8
ENDMDL
MODEL 9
REMARK VINA RESULT:    -6.218      3.719      8.735
REMARK INTER + INTRA:         -10.638
REMARK INTER:                  -9.126
REMARK INTRA:                  -1.511
REMARK UNBOUND:                -1.512
REMARK  Name = 
REMARK  9 active torsions:
REMARK  status: ('A' for Active; 'I' for Inactive)
REMARK    1  A    between atoms: C_1  and  O_2
REMARK    2  A    between atoms: O_2  and  C_3
REMARK    3  A    between atoms: C_10  and  C_11
REMARK    4  A    between atoms: N_13  and  C_14
REMARK    5  A    between atoms: C_14  and  C_15
REMARK    6  A    between atoms: C_18  and  C_19
REMARK    7  A    between atoms: C_19  and  O_20
REMARK    8  A    between atoms: O_20  and  C_21
REMARK    9  A    between atoms: C_21  and  C_22
REMARK                            x       y       z     vdW  Elec       q    Type
REMARK                         _______ _______ _______ _____ _____    ______ ____
ROOT
ATOM      1  C   UNL     1      47.815   7.744  12.173  0.00  0.00    +0.000 C 
ENDROOT
BRANCH   1   2
ATOM      2  C   UNL     1      48.352   7.868  13.579  0.00  0.00    +0.000 A 
ATOM      3  C   UNL     1      47.879   8.870  14.438  0.00  0.00    +0.000 A 
ATOM      4  C   UNL     1      48.418   9.027  15.720  0.00  0.00    +0.000 A 
ATOM      5  C   UNL     1      49.455   8.199  16.169  0.00  0.00    +0.000 A 
ATOM      6  C   UNL     1      49.918   7.188  15.316  0.00  0.00    +0.000 A 
ATOM      7  C   UNL     1      49.373   7.025  14.036  0.00  0.00    +0.000 A 
BRANCH   5   8
ATOM      8  C   UNL     1      50.079   8.412  17.527  0.00  0.00    +0.000 C 
BRANCH   8   9
ATOM      9  O   UNL     1      49.352   7.670  18.498  0.00  0.00    +0.000 OA
BRANCH   9  10
ATOM     10  C   UNL     1      50.011   6.452  18.848  0.00  0.00    +0.000 C 
BRANCH  10  11
ATOM     11  C   UNL     1      49.258   5.281  18.266  0.00  0.00    +0.000 A 
ATOM     12  C   UNL     1      47.868   5.340  18.069  0.00  0.00    +0.000 A 
ATOM     13  C   UNL     1      47.175   4.270  17.499  0.00  0.00    +0.000 A 
ATOM     14  C   UNL     1      47.867   3.129  17.104  0.00  0.00    +0.000 A 
ATOM     15  C   UNL     1      49.244   3.069  17.284  0.00  0.00    +0.000 A 
ATOM     16  F   UNL     1      49.910   1.972  16.901  0.00  0.00    +0.000 F 
ATOM     17  C   UNL     1      49.943   4.130  17.855  0.00  0.00    +0.000 A 
ENDBRANCH  10  11
ENDBRANCH   9  10
ENDBRANCH   8   9
ENDBRANCH   5   8
ENDBRANCH   1   2
BRANCH   1  20
ATOM     18  C   UNL     1      45.664   6.646  11.647  0.00  0.00    +0.000 C 
ATOM     19  O   UNL     1      45.139   7.721  11.365  0.00  0.00    +0.000 OA
ATOM     20  N   UNL     1      46.973   6.577  12.044  0.00  0.00    +0.000 N 
ATOM     21  H   UNL     1      47.406   5.677  12.197  0.00  0.00    +0.000 HD
BRANCH  18  29
ATOM     22  C   UNL     1      45.329   4.161   9.276  0.00  0.00    +0.000 A 
ATOM     23  N   UNL     1      45.105   3.025   8.583  0.00  0.00    +0.000 NA
ATOM     24  C   UNL     1      44.364   2.074   9.157  0.00  0.00    +0.000 A 
ATOM     25  N   UNL     1      43.790   2.122  10.355  0.00  0.00    +0.000 NA
ATOM     26  C   UNL     1      44.044   3.265  11.015  0.00  0.00    +0.000 A 
ATOM     27  S   UNL     1      43.376   3.508  12.556  0.00  0.00    +0.000 S 
ATOM     28  C   UNL     1      44.131   5.025  12.699  0.00  0.00    +0.000 A 
ATOM     29  C   UNL     1      44.907   5.376  11.598  0.00  0.00    +0.000 A 
ATOM     30  C   UNL     1      44.817   4.335  10.575  0.00  0.00    +0.000 A 
BRANCH  22  32
ATOM     31  C   UNL     1      46.873   4.731   7.596  0.00  0.00    +0.000 C 
ATOM     32  O   UNL     1      46.048   5.170   8.670  0.00  0.00    +0.000 OA
ENDBRANCH  22  32
ENDBRANCH  18  29
ENDBRANCH   1  20
TORSDOF 8
ENDMDL
