MODEL 1
REMARK VINA RESULT:    -8.230      0.000      0.000
REMARK INTER + INTRA:         -13.265
REMARK INTER:                 -12.319
REMARK INTRA:                  -0.946
REMARK UNBOUND:                -0.946
REMARK  Name = 
REMARK  9 active torsions:
REMARK  status: ('A' for Active; 'I' for Inactive)
REMARK    1  A    between atoms: N_1  and  C_2
REMARK    2  A    between atoms: C_2  and  C_3
REMARK    3  A    between atoms: C_3  and  N_4
REMARK    4  A    between atoms: C_3  and  C_26
REMARK    5  A    between atoms: N_4  and  C_5
REMARK    6  A    between atoms: C_5  and  C_6
REMARK    7  A    between atoms: C_9  and  C_10
REMARK    8  A    between atoms: C_10  and  N_11
REMARK    9  A    between atoms: C_12  and  C_14
REMARK                            x       y       z     vdW  Elec       q    Type
REMARK                         _______ _______ _______ _____ _____    ______ ____
ROOT
ATOM      1  C   UNL     1      44.159   6.720  11.727  0.00  0.00    +0.000 A 
ATOM      2  C   UNL     1      44.949   6.032  12.659  0.00  0.00    +0.000 A 
ATOM      3  C   UNL     1      46.046   6.652  13.261  0.00  0.00    +0.000 A 
ATOM      4  C   UNL     1      46.373   7.975  12.941  0.00  0.00    +0.000 A 
ATOM      5  C   UNL     1      45.605   8.652  11.985  0.00  0.00    +0.000 A 
ATOM      6  C   UNL     1      44.506   8.033  11.386  0.00  0.00    +0.000 A 
ENDROOT
BRANCH   1   7
ATOM      7  C   UNL     1      43.002   6.029  11.048  0.00  0.00    +0.000 C 
BRANCH   7   8
ATOM      8  N   UNL     1      43.454   5.137   9.982  0.00  0.00    +0.000 NA
ATOM      9  H   UNL     1      44.052   5.673   9.346  0.00  0.00    +0.000 HD
BRANCH   8  10
ATOM     10  C   UNL     1      44.268   3.995  10.468  0.00  0.00    +0.000 C 
BRANCH  10  11
ATOM     11  C   UNL     1      45.086   3.435   9.297  0.00  0.00    +0.000 A 
ATOM     12  C   UNL     1      45.666   4.263   8.334  0.00  0.00    +0.000 A 
ATOM     13  C   UNL     1      46.438   3.700   7.320  0.00  0.00    +0.000 A 
ATOM     14  C   UNL     1      46.633   2.327   7.297  0.00  0.00    +0.000 A 
ATOM     15  C   UNL     1      46.047   1.571   8.297  0.00  0.00    +0.000 A 
ATOM     16  N   UNL     1      45.291   2.087   9.293  0.00  0.00    +0.000 NA
ENDBRANCH  10  11
BRANCH  10  17
ATOM     17  C   UNL     1      43.411   2.922  11.214  0.00  0.00    +0.000 C 
BRANCH  17  18
ATOM     18  N   UNL     1      43.994   2.411  12.460  0.00  0.00    +0.000 NA
ATOM     19  H   UNL     1      43.400   2.683  13.241  0.00  0.00    +0.000 HD
ATOM     20  H   UNL     1      44.898   2.857  12.618  0.00  0.00    +0.000 HD
ENDBRANCH  17  18
ENDBRANCH  10  17
ENDBRANCH   8  10
ENDBRANCH   7   8
ENDBRANCH   1   7
BRANCH   4  21
ATOM     21  C   UNL     1      47.564   8.645  13.570  0.00  0.00    +0.000 C 
BRANCH  21  22
ATOM     22  N   UNL     1      47.891   8.033  14.831  0.00  0.00    +0.000 N 
ATOM     23  C   UNL     1      48.881   7.090  14.925  0.00  0.00    +0.000 C 
ATOM     24  O   UNL     1      49.554   6.757  13.953  0.00  0.00    +0.000 OA
ATOM     25  H   UNL     1      47.219   8.137  15.586  0.00  0.00    +0.000 HD
BRANCH  23  26
ATOM     26  C   UNL     1      49.141   6.540  16.260  0.00  0.00    +0.000 A 
ATOM     27  C   UNL     1      49.892   7.276  17.167  0.00  0.00    +0.000 A 
ATOM     28  S   UNL     1      50.067   6.519  18.684  0.00  0.00    +0.000 S 
ATOM     29  C   UNL     1      49.186   5.159  18.168  0.00  0.00    +0.000 A 
ATOM     30  N   UNL     1      48.984   4.102  18.999  0.00  0.00    +0.000 NA
ATOM     31  C   UNL     1      48.320   3.128  18.472  0.00  0.00    +0.000 A 
ATOM     32  N   UNL     1      47.834   3.119  17.190  0.00  0.00    +0.000 N 
ATOM     33  C   UNL     1      47.992   4.172  16.324  0.00  0.00    +0.000 A 
ATOM     34  O   UNL     1      47.511   4.143  15.196  0.00  0.00    +0.000 OA
ATOM     35  C   UNL     1      48.744   5.289  16.863  0.00  0.00    +0.000 A 
ATOM     36  H   UNL     1      47.311   2.329  16.840  0.00  0.00    +0.000 HD
ENDBRANCH  23  26
ENDBRANCH  21  22
ENDBRANCH   4  21
TORSDOF 9
ENDMDL
MODEL 2
REMARK VINA RESULT:    -8.056      1.691      2.081
REMARK INTER + INTRA:         -13.005
REMARK INTER:                 -12.119
REMARK INTRA:                  -0.886
REMARK UNBOUND:                -0.946
REMARK  Name = 
REMARK  9 active torsions:
REMARK  status: ('A' for Active; 'I' for Inactive)
REMARK    1  A    between atoms: N_1  and  C_2
REMARK    2  A    between atoms: C_2  and  C_3
REMARK    3  A    between atoms: C_3  and  N_4
REMARK    4  A    between atoms: C_3  and  C_26
REMARK    5  A    between atoms: N_4  and  C_5
REMARK    6  A    between atoms: C_5  and  C_6
REMARK    7  A    between atoms: C_9  and  C_10
REMARK    8  A    between atoms: C_10  and  N_11
REMARK    9  A    between atoms: C_12  and  C_14
REMARK                            x       y       z     vdW  Elec       q    Type
REMARK                         _______ _______ _______ _____ _____    ______ ____
ROOT
ATOM      1  C   UNL     1      44.924   5.471  11.584  0.00  0.00    +0.000 A 
ATOM      2  C   UNL     1      45.861   6.365  11.046  0.00  0.00    +0.000 A 
ATOM      3  C   UNL     1      47.015   6.703  11.756  0.00  0.00    +0.000 A 
ATOM      4  C   UNL     1      47.254   6.151  13.019  0.00  0.00    +0.000 A 
ATOM      5  C   UNL     1      46.302   5.284  13.573  0.00  0.00    +0.000 A 
ATOM      6  C   UNL     1      45.150   4.944  12.862  0.00  0.00    +0.000 A 
ENDROOT
BRANCH   1   7
ATOM      7  C   UNL     1      43.657   5.145  10.830  0.00  0.00    +0.000 C 
BRANCH   7   8
ATOM      8  N   UNL     1      43.930   4.366   9.625  0.00  0.00    +0.000 NA
ATOM      9  H   UNL     1      44.511   4.932   8.999  0.00  0.00    +0.000 HD
BRANCH   8  10
ATOM     10  C   UNL     1      44.683   3.113   9.885  0.00  0.00    +0.000 C 
BRANCH  10  11
ATOM     11  C   UNL     1      45.542   2.786   8.656  0.00  0.00    +0.000 A 
ATOM     12  C   UNL     1      45.909   3.761   7.727  0.00  0.00    +0.000 A 
ATOM     13  C   UNL     1      46.730   3.414   6.656  0.00  0.00    +0.000 A 
ATOM     14  C   UNL     1      47.185   2.108   6.544  0.00  0.00    +0.000 A 
ATOM     15  C   UNL     1      46.799   1.200   7.515  0.00  0.00    +0.000 A 
ATOM     16  N   UNL     1      46.003   1.506   8.564  0.00  0.00    +0.000 NA
ENDBRANCH  10  11
BRANCH  10  17
ATOM     17  C   UNL     1      43.756   1.941  10.341  0.00  0.00    +0.000 C 
BRANCH  17  18
ATOM     18  N   UNL     1      43.202   2.070  11.694  0.00  0.00    +0.000 NA
ATOM     19  H   UNL     1      43.898   2.504  12.298  0.00  0.00    +0.000 HD
ATOM     20  H   UNL     1      43.027   1.142  12.078  0.00  0.00    +0.000 HD
ENDBRANCH  17  18
ENDBRANCH  10  17
ENDBRANCH   8  10
ENDBRANCH   7   8
ENDBRANCH   1   7
BRANCH   4  21
ATOM     21  C   UNL     1      48.485   6.523  13.799  0.00  0.00    +0.000 C 
BRANCH  21  22
ATOM     22  N   UNL     1      48.172   6.724  15.190  0.00  0.00    +0.000 N 
ATOM     23  C   UNL     1      49.120   6.539  16.162  0.00  0.00    +0.000 C 
ATOM     24  O   UNL     1      50.278   6.235  15.890  0.00  0.00    +0.000 OA
ATOM     25  H   UNL     1      47.189   6.765  15.442  0.00  0.00    +0.000 HD
BRANCH  23  26
ATOM     26  C   UNL     1      48.697   6.781  17.546  0.00  0.00    +0.000 A 
ATOM     27  C   UNL     1      48.331   8.064  17.933  0.00  0.00    +0.000 A 
ATOM     28  S   UNL     1      47.826   8.170  19.557  0.00  0.00    +0.000 S 
ATOM     29  C   UNL     1      48.124   6.516  19.816  0.00  0.00    +0.000 A 
ATOM     30  N   UNL     1      47.916   5.952  21.035  0.00  0.00    +0.000 NA
ATOM     31  C   UNL     1      48.205   4.694  21.098  0.00  0.00    +0.000 A 
ATOM     32  N   UNL     1      48.677   3.950  20.049  0.00  0.00    +0.000 N 
ATOM     33  C   UNL     1      48.878   4.470  18.794  0.00  0.00    +0.000 A 
ATOM     34  O   UNL     1      49.267   3.764  17.869  0.00  0.00    +0.000 OA
ATOM     35  C   UNL     1      48.581   5.884  18.672  0.00  0.00    +0.000 A 
ATOM     36  H   UNL     1      48.874   2.965  20.159  0.00  0.00    +0.000 HD
ENDBRANCH  23  26
ENDBRANCH  21  22
ENDBRANCH   4  21
TORSDOF 9
ENDMDL
MODEL 3
REMARK VINA RESULT:    -7.709      2.700      3.516
REMARK INTER + INTRA:         -12.485
REMARK INTER:                 -11.897
REMARK INTRA:                  -0.588
REMARK UNBOUND:                -0.946
REMARK  Name = 
REMARK  9 active torsions:
REMARK  status: ('A' for Active; 'I' for Inactive)
REMARK    1  A    between atoms: N_1  and  C_2
REMARK    2  A    between atoms: C_2  and  C_3
REMARK    3  A    between atoms: C_3  and  N_4
REMARK    4  A    between atoms: C_3  and  C_26
REMARK    5  A    between atoms: N_4  and  C_5
REMARK    6  A    between atoms: C_5  and  C_6
REMARK    7  A    between atoms: C_9  and  C_10
REMARK    8  A    between atoms: C_10  and  N_11
REMARK    9  A    between atoms: C_12  and  C_14
REMARK                            x       y       z     vdW  Elec       q    Type
REMARK                         _______ _______ _______ _____ _____    ______ ____
ROOT
ATOM      1  C   UNL     1      46.505   4.324  13.455  0.00  0.00    +0.000 A 
ATOM      2  C   UNL     1      46.751   3.857  14.755  0.00  0.00    +0.000 A 
ATOM      3  C   UNL     1      47.525   4.603  15.646  0.00  0.00    +0.000 A 
ATOM      4  C   UNL     1      48.068   5.831  15.254  0.00  0.00    +0.000 A 
ATOM      5  C   UNL     1      47.850   6.283  13.945  0.00  0.00    +0.000 A 
ATOM      6  C   UNL     1      47.074   5.539  13.055  0.00  0.00    +0.000 A 
ENDROOT
BRANCH   1   7
ATOM      7  C   UNL     1      45.704   3.491  12.483  0.00  0.00    +0.000 C 
BRANCH   7   8
ATOM      8  N   UNL     1      44.302   3.393  12.881  0.00  0.00    +0.000 NA
ATOM      9  H   UNL     1      44.130   4.074  13.626  0.00  0.00    +0.000 HD
BRANCH   8  10
ATOM     10  C   UNL     1      43.350   3.711  11.788  0.00  0.00    +0.000 C 
BRANCH  10  11
ATOM     11  C   UNL     1      44.073   3.568  10.442  0.00  0.00    +0.000 A 
ATOM     12  C   UNL     1      44.728   4.641   9.834  0.00  0.00    +0.000 A 
ATOM     13  C   UNL     1      45.407   4.440   8.634  0.00  0.00    +0.000 A 
ATOM     14  C   UNL     1      45.437   3.171   8.075  0.00  0.00    +0.000 A 
ATOM     15  C   UNL     1      44.786   2.150   8.745  0.00  0.00    +0.000 A 
ATOM     16  N   UNL     1      44.117   2.313   9.908  0.00  0.00    +0.000 NA
ENDBRANCH  10  11
BRANCH  10  17
ATOM     17  C   UNL     1      42.648   5.093  11.986  0.00  0.00    +0.000 C 
BRANCH  17  18
ATOM     18  N   UNL     1      42.927   5.759  13.263  0.00  0.00    +0.000 NA
ATOM     19  H   UNL     1      42.773   5.100  14.023  0.00  0.00    +0.000 HD
ATOM     20  H   UNL     1      42.260   6.518  13.402  0.00  0.00    +0.000 HD
ENDBRANCH  17  18
ENDBRANCH  10  17
ENDBRANCH   8  10
ENDBRANCH   7   8
ENDBRANCH   1   7
BRANCH   4  21
ATOM     21  C   UNL     1      48.917   6.633  16.201  0.00  0.00    +0.000 C 
BRANCH  21  22
ATOM     22  N   UNL     1      50.036   5.858  16.669  0.00  0.00    +0.000 N 
ATOM     23  C   UNL     1      50.033   5.293  17.918  0.00  0.00    +0.000 C 
ATOM     24  O   UNL     1      49.066   5.388  18.670  0.00  0.00    +0.000 OA
ATOM     25  H   UNL     1      50.909   5.947  16.157  0.00  0.00    +0.000 HD
BRANCH  23  26
ATOM     26  C   UNL     1      51.218   4.514  18.290  0.00  0.00    +0.000 A 
ATOM     27  C   UNL     1      52.222   5.114  19.041  0.00  0.00    +0.000 A 
ATOM     28  S   UNL     1      53.509   4.065  19.426  0.00  0.00    +0.000 S 
ATOM     29  C   UNL     1      52.795   2.784  18.565  0.00  0.00    +0.000 A 
ATOM     30  N   UNL     1      53.411   1.576  18.474  0.00  0.00    +0.000 NA
ATOM     31  C   UNL     1      52.771   0.701  17.772  0.00  0.00    +0.000 A 
ATOM     32  N   UNL     1      51.567   0.926  17.156  0.00  0.00    +0.000 N 
ATOM     33  C   UNL     1      50.897   2.122  17.240  0.00  0.00    +0.000 A 
ATOM     34  O   UNL     1      49.803   2.274  16.706  0.00  0.00    +0.000 OA
ATOM     35  C   UNL     1      51.579   3.144  18.009  0.00  0.00    +0.000 A 
ATOM     36  H   UNL     1      51.110   0.196  16.628  0.00  0.00    +0.000 HD
ENDBRANCH  23  26
ENDBRANCH  21  22
ENDBRANCH   4  21
TORSDOF 9
ENDMDL
MODEL 4
REMARK VINA RESULT:    -7.414      1.899      2.596
REMARK INTER + INTRA:         -12.044
REMARK INTER:                 -11.379
REMARK INTRA:                  -0.665
REMARK UNBOUND:                -0.946
REMARK  Name = 
REMARK  9 active torsions:
REMARK  status: ('A' for Active; 'I' for Inactive)
REMARK    1  A    between atoms: N_1  and  C_2
REMARK    2  A    between atoms: C_2  and  C_3
REMARK    3  A    between atoms: C_3  and  N_4
REMARK    4  A    between atoms: C_3  and  C_26
REMARK    5  A    between atoms: N_4  and  C_5
REMARK    6  A    between atoms: C_5  and  C_6
REMARK    7  A    between atoms: C_9  and  C_10
REMARK    8  A    between atoms: C_10  and  N_11
REMARK    9  A    between atoms: C_12  and  C_14
REMARK                            x       y       z     vdW  Elec       q    Type
REMARK                         _______ _______ _______ _____ _____    ______ ____
ROOT
ATOM      1  C   UNL     1      44.631   5.908  11.566  0.00  0.00    +0.000 A 
ATOM      2  C   UNL     1      44.987   7.252  11.383  0.00  0.00    +0.000 A 
ATOM      3  C   UNL     1      46.047   7.814  12.098  0.00  0.00    +0.000 A 
ATOM      4  C   UNL     1      46.773   7.039  13.009  0.00  0.00    +0.000 A 
ATOM      5  C   UNL     1      46.398   5.705  13.217  0.00  0.00    +0.000 A 
ATOM      6  C   UNL     1      45.339   5.143  12.500  0.00  0.00    +0.000 A 
ENDROOT
BRANCH   1   7
ATOM      7  C   UNL     1      43.455   5.321  10.823  0.00  0.00    +0.000 C 
BRANCH   7   8
ATOM      8  N   UNL     1      43.878   4.580   9.638  0.00  0.00    +0.000 NA
ATOM      9  H   UNL     1      44.469   5.193   9.068  0.00  0.00    +0.000 HD
BRANCH   8  10
ATOM     10  C   UNL     1      44.691   3.377   9.947  0.00  0.00    +0.000 C 
BRANCH  10  11
ATOM     11  C   UNL     1      45.623   3.089   8.764  0.00  0.00    +0.000 A 
ATOM     12  C   UNL     1      46.018   1.791   8.430  0.00  0.00    +0.000 A 
ATOM     13  C   UNL     1      46.829   1.586   7.315  0.00  0.00    +0.000 A 
ATOM     14  C   UNL     1      47.214   2.674   6.546  0.00  0.00    +0.000 A 
ATOM     15  C   UNL     1      46.766   3.928   6.923  0.00  0.00    +0.000 A 
ATOM     16  N   UNL     1      45.980   4.160   7.999  0.00  0.00    +0.000 NA
ENDBRANCH  10  11
BRANCH  10  17
ATOM     17  C   UNL     1      43.815   2.156  10.377  0.00  0.00    +0.000 C 
BRANCH  17  18
ATOM     18  N   UNL     1      43.102   2.314  11.649  0.00  0.00    +0.000 NA
ATOM     19  H   UNL     1      42.411   1.571  11.738  0.00  0.00    +0.000 HD
ATOM     20  H   UNL     1      42.581   3.191  11.639  0.00  0.00    +0.000 HD
ENDBRANCH  17  18
ENDBRANCH  10  17
ENDBRANCH   8  10
ENDBRANCH   7   8
ENDBRANCH   1   7
BRANCH   4  21
ATOM     21  C   UNL     1      47.906   7.639  13.796  0.00  0.00    +0.000 C 
BRANCH  21  22
ATOM     22  N   UNL     1      47.901   7.158  15.152  0.00  0.00    +0.000 N 
ATOM     23  C   UNL     1      49.049   6.700  15.744  0.00  0.00    +0.000 C 
ATOM     24  O   UNL     1      50.131   6.717  15.163  0.00  0.00    +0.000 OA
ATOM     25  H   UNL     1      46.998   6.941  15.565  0.00  0.00    +0.000 HD
BRANCH  23  26
ATOM     26  C   UNL     1      48.935   6.243  17.134  0.00  0.00    +0.000 A 
ATOM     27  C   UNL     1      49.319   4.949  17.461  0.00  0.00    +0.000 A 
ATOM     28  S   UNL     1      49.165   4.588  19.119  0.00  0.00    +0.000 S 
ATOM     29  C   UNL     1      48.536   6.132  19.454  0.00  0.00    +0.000 A 
ATOM     30  N   UNL     1      48.165   6.476  20.715  0.00  0.00    +0.000 NA
ATOM     31  C   UNL     1      47.682   7.669  20.823  0.00  0.00    +0.000 A 
ATOM     32  N   UNL     1      47.543   8.551  19.783  0.00  0.00    +0.000 N 
ATOM     33  C   UNL     1      47.927   8.256  18.498  0.00  0.00    +0.000 A 
ATOM     34  O   UNL     1      47.821   9.085  17.599  0.00  0.00    +0.000 OA
ATOM     35  C   UNL     1      48.465   6.922  18.319  0.00  0.00    +0.000 A 
ATOM     36  H   UNL     1      47.167   9.476  19.935  0.00  0.00    +0.000 HD
ENDBRANCH  23  26
ENDBRANCH  21  22
ENDBRANCH   4  21
TORSDOF 9
ENDMDL
MODEL 5
REMARK VINA RESULT:    -7.407      1.817      2.457
REMARK INTER + INTRA:         -12.034
REMARK INTER:                 -11.093
REMARK INTRA:                  -0.940
REMARK UNBOUND:                -0.946
REMARK  Name = 
REMARK  9 active torsions:
REMARK  status: ('A' for Active; 'I' for Inactive)
REMARK    1  A    between atoms: N_1  and  C_2
REMARK    2  A    between atoms: C_2  and  C_3
REMARK    3  A    between atoms: C_3  and  N_4
REMARK    4  A    between atoms: C_3  and  C_26
REMARK    5  A    between atoms: N_4  and  C_5
REMARK    6  A    between atoms: C_5  and  C_6
REMARK    7  A    between atoms: C_9  and  C_10
REMARK    8  A    between atoms: C_10  and  N_11
REMARK    9  A    between atoms: C_12  and  C_14
REMARK                            x       y       z     vdW  Elec       q    Type
REMARK                         _______ _______ _______ _____ _____    ______ ____
ROOT
ATOM      1  C   UNL     1      44.557   6.181  11.833  0.00  0.00    +0.000 A 
ATOM      2  C   UNL     1      45.185   7.359  11.403  0.00  0.00    +0.000 A 
ATOM      3  C   UNL     1      46.346   7.819  12.029  0.00  0.00    +0.000 A 
ATOM      4  C   UNL     1      46.902   7.107  13.097  0.00  0.00    +0.000 A 
ATOM      5  C   UNL     1      46.257   5.947  13.549  0.00  0.00    +0.000 A 
ATOM      6  C   UNL     1      45.098   5.487  12.922  0.00  0.00    +0.000 A 
ENDROOT
BRANCH   1   7
ATOM      7  C   UNL     1      43.278   5.715  11.181  0.00  0.00    +0.000 C 
BRANCH   7   8
ATOM      8  N   UNL     1      43.539   4.830  10.049  0.00  0.00    +0.000 NA
ATOM      9  H   UNL     1      44.103   5.340   9.363  0.00  0.00    +0.000 HD
BRANCH   8  10
ATOM     10  C   UNL     1      44.309   3.613  10.410  0.00  0.00    +0.000 C 
BRANCH  10  11
ATOM     11  C   UNL     1      45.122   3.159   9.191  0.00  0.00    +0.000 A 
ATOM     12  C   UNL     1      45.552   4.056   8.210  0.00  0.00    +0.000 A 
ATOM     13  C   UNL     1      46.328   3.593   7.149  0.00  0.00    +0.000 A 
ATOM     14  C   UNL     1      46.675   2.251   7.097  0.00  0.00    +0.000 A 
ATOM     15  C   UNL     1      46.233   1.425   8.116  0.00  0.00    +0.000 A 
ATOM     16  N   UNL     1      45.478   1.843   9.157  0.00  0.00    +0.000 NA
ENDBRANCH  10  11
BRANCH  10  17
ATOM     17  C   UNL     1      43.408   2.494  11.025  0.00  0.00    +0.000 C 
BRANCH  17  18
ATOM     18  N   UNL     1      43.544   2.306  12.473  0.00  0.00    +0.000 NA
ATOM     19  H   UNL     1      43.316   3.179  12.945  0.00  0.00    +0.000 HD
ATOM     20  H   UNL     1      44.518   2.104  12.699  0.00  0.00    +0.000 HD
ENDBRANCH  17  18
ENDBRANCH  10  17
ENDBRANCH   8  10
ENDBRANCH   7   8
ENDBRANCH   1   7
BRANCH   4  21
ATOM     21  C   UNL     1      48.142   7.603  13.788  0.00  0.00    +0.000 C 
BRANCH  21  22
ATOM     22  N   UNL     1      48.680   6.596  14.665  0.00  0.00    +0.000 N 
ATOM     23  C   UNL     1      48.896   6.855  15.993  0.00  0.00    +0.000 C 
ATOM     24  O   UNL     1      48.604   7.936  16.499  0.00  0.00    +0.000 OA
ATOM     25  H   UNL     1      49.116   5.788  14.230  0.00  0.00    +0.000 HD
BRANCH  23  26
ATOM     26  C   UNL     1      49.437   5.755  16.798  0.00  0.00    +0.000 A 
ATOM     27  C   UNL     1      48.565   4.859  17.403  0.00  0.00    +0.000 A 
ATOM     28  S   UNL     1      49.350   3.617  18.267  0.00  0.00    +0.000 S 
ATOM     29  C   UNL     1      50.883   4.257  17.902  0.00  0.00    +0.000 A 
ATOM     30  N   UNL     1      52.014   3.668  18.371  0.00  0.00    +0.000 NA
ATOM     31  C   UNL     1      53.107   4.271  18.039  0.00  0.00    +0.000 A 
ATOM     32  N   UNL     1      53.169   5.407  17.274  0.00  0.00    +0.000 N 
ATOM     33  C   UNL     1      52.055   6.022  16.758  0.00  0.00    +0.000 A 
ATOM     34  O   UNL     1      52.152   7.017  16.047  0.00  0.00    +0.000 OA
ATOM     35  C   UNL     1      50.799   5.392  17.113  0.00  0.00    +0.000 A 
ATOM     36  H   UNL     1      54.058   5.826  17.039  0.00  0.00    +0.000 HD
ENDBRANCH  23  26
ENDBRANCH  21  22
ENDBRANCH   4  21
TORSDOF 9
ENDMDL
MODEL 6
REMARK VINA RESULT:    -7.396      2.900      8.158
REMARK INTER + INTRA:         -12.017
REMARK INTER:                 -10.219
REMARK INTRA:                  -1.798
REMARK UNBOUND:                -0.946
REMARK  Name = 
REMARK  9 active torsions:
REMARK  status: ('A' for Active; 'I' for Inactive)
REMARK    1  A    between atoms: N_1  and  C_2
REMARK    2  A    between atoms: C_2  and  C_3
REMARK    3  A    between atoms: C_3  and  N_4
REMARK    4  A    between atoms: C_3  and  C_26
REMARK    5  A    between atoms: N_4  and  C_5
REMARK    6  A    between atoms: C_5  and  C_6
REMARK    7  A    between atoms: C_9  and  C_10
REMARK    8  A    between atoms: C_10  and  N_11
REMARK    9  A    between atoms: C_12  and  C_14
REMARK                            x       y       z     vdW  Elec       q    Type
REMARK                         _______ _______ _______ _____ _____    ______ ____
ROOT
ATOM      1  C   UNL     1      48.692   8.057  15.943  0.00  0.00    +0.000 A 
ATOM      2  C   UNL     1      48.654   6.814  15.294  0.00  0.00    +0.000 A 
ATOM      3  C   UNL     1      48.255   6.718  13.959  0.00  0.00    +0.000 A 
ATOM      4  C   UNL     1      47.888   7.865  13.247  0.00  0.00    +0.000 A 
ATOM      5  C   UNL     1      47.893   9.103  13.904  0.00  0.00    +0.000 A 
ATOM      6  C   UNL     1      48.295   9.199  15.238  0.00  0.00    +0.000 A 
ENDROOT
BRANCH   1   7
ATOM      7  C   UNL     1      49.081   8.147  17.399  0.00  0.00    +0.000 C 
BRANCH   7   8
ATOM      8  N   UNL     1      48.035   7.617  18.272  0.00  0.00    +0.000 NA
ATOM      9  H   UNL     1      47.292   7.227  17.685  0.00  0.00    +0.000 HD
BRANCH   8  10
ATOM     10  C   UNL     1      48.498   6.519  19.155  0.00  0.00    +0.000 C 
BRANCH  10  11
ATOM     11  C   UNL     1      48.459   5.200  18.372  0.00  0.00    +0.000 A 
ATOM     12  C   UNL     1      49.602   4.422  18.173  0.00  0.00    +0.000 A 
ATOM     13  C   UNL     1      49.496   3.210  17.493  0.00  0.00    +0.000 A 
ATOM     14  C   UNL     1      48.253   2.789  17.043  0.00  0.00    +0.000 A 
ATOM     15  C   UNL     1      47.161   3.601  17.297  0.00  0.00    +0.000 A 
ATOM     16  N   UNL     1      47.231   4.782  17.951  0.00  0.00    +0.000 NA
ENDBRANCH  10  11
BRANCH  10  17
ATOM     17  C   UNL     1      47.725   6.473  20.512  0.00  0.00    +0.000 C 
BRANCH  17  18
ATOM     18  N   UNL     1      47.408   5.129  21.008  0.00  0.00    +0.000 NA
ATOM     19  H   UNL     1      47.593   5.091  22.008  0.00  0.00    +0.000 HD
ATOM     20  H   UNL     1      48.035   4.452  20.574  0.00  0.00    +0.000 HD
ENDBRANCH  17  18
ENDBRANCH  10  17
ENDBRANCH   8  10
ENDBRANCH   7   8
ENDBRANCH   1   7
BRANCH   4  21
ATOM     21  C   UNL     1      47.440   7.769  11.815  0.00  0.00    +0.000 C 
BRANCH  21  22
ATOM     22  N   UNL     1      46.772   6.518  11.567  0.00  0.00    +0.000 N 
ATOM     23  C   UNL     1      45.404   6.433  11.576  0.00  0.00    +0.000 C 
ATOM     24  O   UNL     1      44.693   7.418  11.755  0.00  0.00    +0.000 OA
ATOM     25  H   UNL     1      47.332   5.673  11.629  0.00  0.00    +0.000 HD
BRANCH  23  26
ATOM     26  C   UNL     1      44.826   5.113  11.301  0.00  0.00    +0.000 A 
ATOM     27  C   UNL     1      44.051   4.491  12.271  0.00  0.00    +0.000 A 
ATOM     28  S   UNL     1      43.419   2.986  11.781  0.00  0.00    +0.000 S 
ATOM     29  C   UNL     1      44.197   3.088  10.273  0.00  0.00    +0.000 A 
ATOM     30  N   UNL     1      44.086   2.086   9.361  0.00  0.00    +0.000 NA
ATOM     31  C   UNL     1      44.746   2.283   8.268  0.00  0.00    +0.000 A 
ATOM     32  N   UNL     1      45.503   3.395   8.004  0.00  0.00    +0.000 N 
ATOM     33  C   UNL     1      45.625   4.442   8.884  0.00  0.00    +0.000 A 
ATOM     34  O   UNL     1      46.281   5.438   8.597  0.00  0.00    +0.000 OA
ATOM     35  C   UNL     1      44.912   4.266  10.134  0.00  0.00    +0.000 A 
ATOM     36  H   UNL     1      45.988   3.494   7.124  0.00  0.00    +0.000 HD
ENDBRANCH  23  26
ENDBRANCH  21  22
ENDBRANCH   4  21
TORSDOF 9
ENDMDL
MODEL 7
REMARK VINA RESULT:    -7.298      4.832      9.630
REMARK INTER + INTRA:         -11.870
REMARK INTER:                 -10.642
REMARK INTRA:                  -1.227
REMARK UNBOUND:                -0.946
REMARK  Name = 
REMARK  9 active torsions:
REMARK  status: ('A' for Active; 'I' for Inactive)
REMARK    1  A    between atoms: N_1  and  C_2
REMARK    2  A    between atoms: C_2  and  C_3
REMARK    3  A    between atoms: C_3  and  N_4
REMARK    4  A    between atoms: C_3  and  C_26
REMARK    5  A    between atoms: N_4  and  C_5
REMARK    6  A    between atoms: C_5  and  C_6
REMARK    7  A    between atoms: C_9  and  C_10
REMARK    8  A    between atoms: C_10  and  N_11
REMARK    9  A    between atoms: C_12  and  C_14
REMARK                            x       y       z     vdW  Elec       q    Type
REMARK                         _______ _______ _______ _____ _____    ______ ____
ROOT
ATOM      1  C   UNL     1      51.052   2.306  17.387  0.00  0.00    +0.000 A 
ATOM      2  C   UNL     1      51.695   3.545  17.529  0.00  0.00    +0.000 A 
ATOM      3  C   UNL     1      50.974   4.737  17.441  0.00  0.00    +0.000 A 
ATOM      4  C   UNL     1      49.594   4.713  17.211  0.00  0.00    +0.000 A 
ATOM      5  C   UNL     1      48.956   3.477  17.035  0.00  0.00    +0.000 A 
ATOM      6  C   UNL     1      49.677   2.285  17.126  0.00  0.00    +0.000 A 
ENDROOT
BRANCH   1   7
ATOM      7  C   UNL     1      51.846   1.023  17.439  0.00  0.00    +0.000 C 
BRANCH   7   8
ATOM      8  N   UNL     1      52.743   0.988  18.591  0.00  0.00    +0.000 NA
ATOM      9  H   UNL     1      52.403   0.276  19.244  0.00  0.00    +0.000 HD
BRANCH   8  10
ATOM     10  C   UNL     1      54.138   0.615  18.247  0.00  0.00    +0.000 C 
BRANCH  10  11
ATOM     11  C   UNL     1      54.256  -0.914  18.239  0.00  0.00    +0.000 A 
ATOM     12  C   UNL     1      54.964  -1.598  17.248  0.00  0.00    +0.000 A 
ATOM     13  C   UNL     1      55.077  -2.985  17.318  0.00  0.00    +0.000 A 
ATOM     14  C   UNL     1      54.500  -3.661  18.384  0.00  0.00    +0.000 A 
ATOM     15  C   UNL     1      53.834  -2.915  19.342  0.00  0.00    +0.000 A 
ATOM     16  N   UNL     1      53.705  -1.570  19.301  0.00  0.00    +0.000 NA
ENDBRANCH  10  11
BRANCH  10  17
ATOM     17  C   UNL     1      55.191   1.328  19.156  0.00  0.00    +0.000 C 
BRANCH  17  18
ATOM     18  N   UNL     1      55.027   1.105  20.597  0.00  0.00    +0.000 NA
ATOM     19  H   UNL     1      54.321   0.386  20.745  0.00  0.00    +0.000 HD
ATOM     20  H   UNL     1      54.667   1.955  21.032  0.00  0.00    +0.000 HD
ENDBRANCH  17  18
ENDBRANCH  10  17
ENDBRANCH   8  10
ENDBRANCH   7   8
ENDBRANCH   1   7
BRANCH   4  21
ATOM     21  C   UNL     1      48.811   5.993  17.097  0.00  0.00    +0.000 C 
BRANCH  21  22
ATOM     22  N   UNL     1      47.901   5.942  15.983  0.00  0.00    +0.000 N 
ATOM     23  C   UNL     1      48.294   6.329  14.729  0.00  0.00    +0.000 C 
ATOM     24  O   UNL     1      49.443   6.696  14.493  0.00  0.00    +0.000 OA
ATOM     25  H   UNL     1      46.912   5.847  16.196  0.00  0.00    +0.000 HD
BRANCH  23  26
ATOM     26  C   UNL     1      47.291   6.226  13.664  0.00  0.00    +0.000 A 
ATOM     27  C   UNL     1      46.892   7.373  12.989  0.00  0.00    +0.000 A 
ATOM     28  S   UNL     1      45.754   7.079  11.754  0.00  0.00    +0.000 S 
ATOM     29  C   UNL     1      45.718   5.416  12.108  0.00  0.00    +0.000 A 
ATOM     30  N   UNL     1      44.907   4.573  11.415  0.00  0.00    +0.000 NA
ATOM     31  C   UNL     1      44.961   3.342  11.802  0.00  0.00    +0.000 A 
ATOM     32  N   UNL     1      45.758   2.878  12.816  0.00  0.00    +0.000 N 
ATOM     33  C   UNL     1      46.611   3.687  13.526  0.00  0.00    +0.000 A 
ATOM     34  O   UNL     1      47.337   3.229  14.403  0.00  0.00    +0.000 OA
ATOM     35  C   UNL     1      46.580   5.084  13.139  0.00  0.00    +0.000 A 
ATOM     36  H   UNL     1      45.764   1.899  13.065  0.00  0.00    +0.000 HD
ENDBRANCH  23  26
ENDBRANCH  21  22
ENDBRANCH   4  21
TORSDOF 9
ENDMDL
MODEL 8
REMARK VINA RESULT:    -7.276      4.327      9.446
REMARK INTER + INTRA:         -11.837
REMARK INTER:                 -10.459
REMARK INTRA:                  -1.378
REMARK UNBOUND:                -0.946
REMARK  Name = 
REMARK  9 active torsions:
REMARK  status: ('A' for Active; 'I' for Inactive)
REMARK    1  A    between atoms: N_1  and  C_2
REMARK    2  A    between atoms: C_2  and  C_3
REMARK    3  A    between atoms: C_3  and  N_4
REMARK    4  A    between atoms: C_3  and  C_26
REMARK    5  A    between atoms: N_4  and  C_5
REMARK    6  A    between atoms: C_5  and  C_6
REMARK    7  A    between atoms: C_9  and  C_10
REMARK    8  A    between atoms: C_10  and  N_11
REMARK    9  A    between atoms: C_12  and  C_14
REMARK                            x       y       z     vdW  Elec       q    Type
REMARK                         _______ _______ _______ _____ _____    ______ ____
ROOT
ATOM      1  C   UNL     1      50.695   2.294  17.485  0.00  0.00    +0.000 A 
ATOM      2  C   UNL     1      49.327   2.388  17.189  0.00  0.00    +0.000 A 
ATOM      3  C   UNL     1      48.729   3.630  16.962  0.00  0.00    +0.000 A 
ATOM      4  C   UNL     1      49.491   4.802  17.026  0.00  0.00    +0.000 A 
ATOM      5  C   UNL     1      50.850   4.712  17.354  0.00  0.00    +0.000 A 
ATOM      6  C   UNL     1      51.448   3.470  17.578  0.00  0.00    +0.000 A 
ENDROOT
BRANCH   1   7
ATOM      7  C   UNL     1      51.323   0.952  17.773  0.00  0.00    +0.000 C 
BRANCH   7   8
ATOM      8  N   UNL     1      52.600   0.793  17.081  0.00  0.00    +0.000 NA
ATOM      9  H   UNL     1      52.907   1.713  16.754  0.00  0.00    +0.000 HD
BRANCH   8  10
ATOM     10  C   UNL     1      53.684   0.268  17.948  0.00  0.00    +0.000 C 
BRANCH  10  11
ATOM     11  C   UNL     1      54.449   1.450  18.559  0.00  0.00    +0.000 A 
ATOM     12  C   UNL     1      54.957   2.488  17.775  0.00  0.00    +0.000 A 
ATOM     13  C   UNL     1      55.603   3.559  18.390  0.00  0.00    +0.000 A 
ATOM     14  C   UNL     1      55.710   3.585  19.773  0.00  0.00    +0.000 A 
ATOM     15  C   UNL     1      55.162   2.533  20.486  0.00  0.00    +0.000 A 
ATOM     16  N   UNL     1      54.532   1.479  19.919  0.00  0.00    +0.000 NA
ENDBRANCH  10  11
BRANCH  10  17
ATOM     17  C   UNL     1      54.597  -0.764  17.210  0.00  0.00    +0.000 C 
BRANCH  17  18
ATOM     18  N   UNL     1      54.265  -0.996  15.800  0.00  0.00    +0.000 NA
ATOM     19  H   UNL     1      54.423  -0.138  15.275  0.00  0.00    +0.000 HD
ATOM     20  H   UNL     1      53.270  -1.205  15.716  0.00  0.00    +0.000 HD
ENDBRANCH  17  18
ENDBRANCH  10  17
ENDBRANCH   8  10
ENDBRANCH   7   8
ENDBRANCH   1   7
BRANCH   4  21
ATOM     21  C   UNL     1      48.853   6.145  16.801  0.00  0.00    +0.000 C 
BRANCH  21  22
ATOM     22  N   UNL     1      47.849   6.072  15.771  0.00  0.00    +0.000 N 
ATOM     23  C   UNL     1      48.155   6.345  14.464  0.00  0.00    +0.000 C 
ATOM     24  O   UNL     1      49.297   6.624  14.109  0.00  0.00    +0.000 OA
ATOM     25  H   UNL     1      46.879   6.053  16.071  0.00  0.00    +0.000 HD
BRANCH  23  26
ATOM     26  C   UNL     1      47.060   6.229  13.495  0.00  0.00    +0.000 A 
ATOM     27  C   UNL     1      46.551   7.376  12.900  0.00  0.00    +0.000 A 
ATOM     28  S   UNL     1      45.314   7.069  11.768  0.00  0.00    +0.000 S 
ATOM     29  C   UNL     1      45.382   5.396  12.066  0.00  0.00    +0.000 A 
ATOM     30  N   UNL     1      44.545   4.538  11.424  0.00  0.00    +0.000 NA
ATOM     31  C   UNL     1      44.688   3.300  11.762  0.00  0.00    +0.000 A 
ATOM     32  N   UNL     1      45.596   2.842  12.680  0.00  0.00    +0.000 N 
ATOM     33  C   UNL     1      46.478   3.667  13.335  0.00  0.00    +0.000 A 
ATOM     34  O   UNL     1      47.302   3.216  14.123  0.00  0.00    +0.000 OA
ATOM     35  C   UNL     1      46.351   5.072  13.000  0.00  0.00    +0.000 A 
ATOM     36  H   UNL     1      45.667   1.857  12.893  0.00  0.00    +0.000 HD
ENDBRANCH  23  26
ENDBRANCH  21  22
ENDBRANCH   4  21
TORSDOF 9
ENDMDL
MODEL 9
REMARK VINA RESULT:    -7.013      4.153      9.476
REMARK INTER + INTRA:         -11.444
REMARK INTER:                 -10.168
REMARK INTRA:                  -1.275
REMARK UNBOUND:                -0.946
REMARK  Name = 
REMARK  9 active torsions:
REMARK  status: ('A' for Active; 'I' for Inactive)
REMARK    1  A    between atoms: N_1  and  C_2
REMARK    2  A    between atoms: C_2  and  C_3
REMARK    3  A    between atoms: C_3  and  N_4
REMARK    4  A    between atoms: C_3  and  C_26
REMARK    5  A    between atoms: N_4  and  C_5
REMARK    6  A    between atoms: C_5  and  C_6
REMARK    7  A    between atoms: C_9  and  C_10
REMARK    8  A    between atoms: C_10  and  N_11
REMARK    9  A    between atoms: C_12  and  C_14
REMARK                            x       y       z     vdW  Elec       q    Type
REMARK                         _______ _______ _______ _____ _____    ______ ____
ROOT
ATOM      1  C   UNL     1      51.123   4.570  18.005  0.00  0.00    +0.000 A 
ATOM      2  C   UNL     1      50.828   3.231  17.710  0.00  0.00    +0.000 A 
ATOM      3  C   UNL     1      49.556   2.861  17.266  0.00  0.00    +0.000 A 
ATOM      4  C   UNL     1      48.555   3.826  17.107  0.00  0.00    +0.000 A 
ATOM      5  C   UNL     1      48.839   5.159  17.433  0.00  0.00    +0.000 A 
ATOM      6  C   UNL     1      50.111   5.529  17.874  0.00  0.00    +0.000 A 
ENDROOT
BRANCH   1   7
ATOM      7  C   UNL     1      52.486   4.955  18.527  0.00  0.00    +0.000 C 
BRANCH   7   8
ATOM      8  N   UNL     1      53.555   4.268  17.807  0.00  0.00    +0.000 NA
ATOM      9  H   UNL     1      54.199   4.973  17.437  0.00  0.00    +0.000 HD
BRANCH   8  10
ATOM     10  C   UNL     1      54.363   3.364  18.662  0.00  0.00    +0.000 C 
BRANCH  10  11
ATOM     11  C   UNL     1      54.435   1.983  17.997  0.00  0.00    +0.000 A 
ATOM     12  C   UNL     1      55.253   1.735  16.893  0.00  0.00    +0.000 A 
ATOM     13  C   UNL     1      55.313   0.448  16.359  0.00  0.00    +0.000 A 
ATOM     14  C   UNL     1      54.574  -0.567  16.948  0.00  0.00    +0.000 A 
ATOM     15  C   UNL     1      53.804  -0.252  18.055  0.00  0.00    +0.000 A 
ATOM     16  N   UNL     1      53.723   0.986  18.594  0.00  0.00    +0.000 NA
ENDBRANCH  10  11
BRANCH  10  17
ATOM     17  C   UNL     1      53.860   3.329  20.142  0.00  0.00    +0.000 C 
BRANCH  17  18
ATOM     18  N   UNL     1      54.540   2.364  21.012  0.00  0.00    +0.000 NA
ATOM     19  H   UNL     1      53.859   1.689  21.356  0.00  0.00    +0.000 HD
ATOM     20  H   UNL     1      54.906   2.846  21.832  0.00  0.00    +0.000 HD
ENDBRANCH  17  18
ENDBRANCH  10  17
ENDBRANCH   8  10
ENDBRANCH   7   8
ENDBRANCH   1   7
BRANCH   4  21
ATOM     21  C   UNL     1      47.178   3.435  16.646  0.00  0.00    +0.000 C 
BRANCH  21  22
ATOM     22  N   UNL     1      46.658   4.393  15.707  0.00  0.00    +0.000 N 
ATOM     23  C   UNL     1      46.740   4.176  14.356  0.00  0.00    +0.000 C 
ATOM     24  O   UNL     1      47.219   3.145  13.892  0.00  0.00    +0.000 OA
ATOM     25  H   UNL     1      46.457   5.325  16.058  0.00  0.00    +0.000 HD
BRANCH  23  26
ATOM     26  C   UNL     1      46.168   5.212  13.488  0.00  0.00    +0.000 A 
ATOM     27  C   UNL     1      46.909   6.353  13.208  0.00  0.00    +0.000 A 
ATOM     28  S   UNL     1      46.124   7.437  12.154  0.00  0.00    +0.000 S 
ATOM     29  C   UNL     1      44.747   6.443  12.069  0.00  0.00    +0.000 A 
ATOM     30  N   UNL     1      43.665   6.811  11.333  0.00  0.00    +0.000 NA
ATOM     31  C   UNL     1      42.680   5.976  11.376  0.00  0.00    +0.000 A 
ATOM     32  N   UNL     1      42.684   4.803  12.085  0.00  0.00    +0.000 N 
ATOM     33  C   UNL     1      43.762   4.379  12.822  0.00  0.00    +0.000 A 
ATOM     34  O   UNL     1      43.742   3.305  13.414  0.00  0.00    +0.000 OA
ATOM     35  C   UNL     1      44.892   5.288  12.818  0.00  0.00    +0.000 A 
ATOM     36  H   UNL     1      41.884   4.186  12.069  0.00  0.00    +0.000 HD
ENDBRANCH  23  26
ENDBRANCH  21  22
ENDBRANCH   4  21
TORSDOF 9
ENDMDL
