MODEL 1
REMARK VINA RESULT:    -8.127      0.000      0.000
REMARK INTER + INTRA:         -12.310
REMARK INTER:                 -10.977
REMARK INTRA:                  -1.332
REMARK UNBOUND:                -1.332
REMARK  Name = 
REMARK  7 active torsions:
REMARK  status: ('A' for Active; 'I' for Inactive)
REMARK    1  A    between atoms: C_1  and  O_2
REMARK    2  A    between atoms: O_2  and  C_3
REMARK    3  A    between atoms: C_5  and  C_6
REMARK    4  A    between atoms: C_11  and  O_12
REMARK    5  A    between atoms: O_12  and  C_13
REMARK    6  A    between atoms: C_13  and  C_14
REMARK    7  A    between atoms: C_18  and  C_19
REMARK                            x       y       z     vdW  Elec       q    Type
REMARK                         _______ _______ _______ _____ _____    ______ ____
ROOT
ATOM      1  C   UNL     1      44.083   7.050  11.715  0.00  0.00    +0.000 C 
ENDROOT
BRANCH   1   2
ATOM      2  C   UNL     1      43.973   5.630  11.223  0.00  0.00    +0.000 A 
ATOM      3  C   UNL     1      43.153   4.736  11.901  0.00  0.00    +0.000 A 
ATOM      4  N   UNL     1      43.056   3.425  11.602  0.00  0.00    +0.000 NA
ATOM      5  C   UNL     1      43.824   2.981  10.580  0.00  0.00    +0.000 A 
ATOM      6  C   UNL     1      44.703   3.766   9.825  0.00  0.00    +0.000 A 
ATOM      7  C   UNL     1      44.760   5.123  10.180  0.00  0.00    +0.000 A 
BRANCH   6   8
ATOM      8  C   UNL     1      45.518   3.194   8.733  0.00  0.00    +0.000 A 
ATOM      9  C   UNL     1      46.119   4.020   7.762  0.00  0.00    +0.000 A 
ATOM     10  C   UNL     1      46.926   3.490   6.751  0.00  0.00    +0.000 A 
ATOM     11  C   UNL     1      47.134   2.119   6.685  0.00  0.00    +0.000 A 
ATOM     12  F   UNL     1      47.919   1.631   5.714  0.00  0.00    +0.000 F 
ATOM     13  C   UNL     1      46.538   1.274   7.615  0.00  0.00    +0.000 A 
ATOM     14 CL   UNL     1      46.782  -0.428   7.535  0.00  0.00    +0.000 Cl
ATOM     15  C   UNL     1      45.737   1.807   8.631  0.00  0.00    +0.000 A 
ENDBRANCH   6   8
ENDBRANCH   1   2
BRANCH   1  16
ATOM     16  O   UNL     1      44.843   7.138  12.920  0.00  0.00    +0.000 OA
BRANCH  16  22
ATOM     17  C   UNL     1      47.153   6.275  13.342  0.00  0.00    +0.000 A 
ATOM     18  C   UNL     1      48.519   6.502  13.112  0.00  0.00    +0.000 A 
ATOM     19  C   UNL     1      48.969   7.606  12.371  0.00  0.00    +0.000 A 
ATOM     20  C   UNL     1      48.031   8.491  11.841  0.00  0.00    +0.000 A 
ATOM     21  C   UNL     1      46.666   8.272  12.062  0.00  0.00    +0.000 A 
ATOM     22  C   UNL     1      46.212   7.173  12.809  0.00  0.00    +0.000 A 
BRANCH  19  23
ATOM     23  C   UNL     1      50.442   7.751  12.198  0.00  0.00    +0.000 C 
ATOM     24  N   UNL     1      51.218   7.997  13.294  0.00  0.00    +0.000 N 
ATOM     25  O   UNL     1      50.969   7.652  11.092  0.00  0.00    +0.000 OA
ATOM     26  H   UNL     1      50.879   8.109  14.235  0.00  0.00    +0.000 HD
ATOM     27  H   UNL     1      52.213   8.091  13.133  0.00  0.00    +0.000 HD
ENDBRANCH  19  23
BRANCH  17  29
ATOM     28  C   UNL     1      46.646   3.940  13.310  0.00  0.00    +0.000 C 
ATOM     29  O   UNL     1      46.709   5.172  14.019  0.00  0.00    +0.000 OA
ENDBRANCH  17  29
ENDBRANCH  16  22
ENDBRANCH   1  16
TORSDOF 6
ENDMDL
MODEL 2
REMARK VINA RESULT:    -7.512      1.071      2.007
REMARK INTER + INTRA:         -11.480
REMARK INTER:                 -10.468
REMARK INTRA:                  -1.012
REMARK UNBOUND:                -1.332
REMARK  Name = 
REMARK  7 active torsions:
REMARK  status: ('A' for Active; 'I' for Inactive)
REMARK    1  A    between atoms: C_1  and  O_2
REMARK    2  A    between atoms: O_2  and  C_3
REMARK    3  A    between atoms: C_5  and  C_6
REMARK    4  A    between atoms: C_11  and  O_12
REMARK    5  A    between atoms: O_12  and  C_13
REMARK    6  A    between atoms: C_13  and  C_14
REMARK    7  A    between atoms: C_18  and  C_19
REMARK                            x       y       z     vdW  Elec       q    Type
REMARK                         _______ _______ _______ _____ _____    ______ ____
ROOT
ATOM      1  C   UNL     1      44.433   7.154  11.889  0.00  0.00    +0.000 C 
ENDROOT
BRANCH   1   2
ATOM      2  C   UNL     1      44.189   5.783  11.314  0.00  0.00    +0.000 A 
ATOM      3  C   UNL     1      43.233   4.959  11.898  0.00  0.00    +0.000 A 
ATOM      4  N   UNL     1      43.003   3.686  11.522  0.00  0.00    +0.000 NA
ATOM      5  C   UNL     1      43.772   3.206  10.516  0.00  0.00    +0.000 A 
ATOM      6  C   UNL     1      44.777   3.918   9.852  0.00  0.00    +0.000 A 
ATOM      7  C   UNL     1      44.969   5.239  10.285  0.00  0.00    +0.000 A 
BRANCH   6   8
ATOM      8  C   UNL     1      45.581   3.308   8.772  0.00  0.00    +0.000 A 
ATOM      9  C   UNL     1      46.226   4.105   7.804  0.00  0.00    +0.000 A 
ATOM     10  C   UNL     1      47.023   3.538   6.806  0.00  0.00    +0.000 A 
ATOM     11  C   UNL     1      47.178   2.160   6.749  0.00  0.00    +0.000 A 
ATOM     12  F   UNL     1      47.954   1.636   5.790  0.00  0.00    +0.000 F 
ATOM     13  C   UNL     1      46.539   1.344   7.676  0.00  0.00    +0.000 A 
ATOM     14 CL   UNL     1      46.716  -0.367   7.608  0.00  0.00    +0.000 Cl
ATOM     15  C   UNL     1      45.747   1.913   8.680  0.00  0.00    +0.000 A 
ENDBRANCH   6   8
ENDBRANCH   1   2
BRANCH   1  16
ATOM     16  O   UNL     1      45.395   7.125  12.942  0.00  0.00    +0.000 OA
BRANCH  16  22
ATOM     17  C   UNL     1      47.154   8.831  12.435  0.00  0.00    +0.000 A 
ATOM     18  C   UNL     1      48.512   9.020  12.136  0.00  0.00    +0.000 A 
ATOM     19  C   UNL     1      49.402   7.940  12.035  0.00  0.00    +0.000 A 
ATOM     20  C   UNL     1      48.924   6.648  12.250  0.00  0.00    +0.000 A 
ATOM     21  C   UNL     1      47.571   6.448  12.552  0.00  0.00    +0.000 A 
ATOM     22  C   UNL     1      46.676   7.526  12.647  0.00  0.00    +0.000 A 
BRANCH  19  23
ATOM     23  C   UNL     1      50.820   8.259  11.704  0.00  0.00    +0.000 C 
ATOM     24  N   UNL     1      51.589   7.308  11.098  0.00  0.00    +0.000 N 
ATOM     25  O   UNL     1      51.306   9.356  11.964  0.00  0.00    +0.000 OA
ATOM     26  H   UNL     1      51.287   6.377  10.859  0.00  0.00    +0.000 HD
ATOM     27  H   UNL     1      52.547   7.563  10.893  0.00  0.00    +0.000 HD
ENDBRANCH  19  23
BRANCH  17  29
ATOM     28  C   UNL     1      46.011  10.678  11.438  0.00  0.00    +0.000 C 
ATOM     29  O   UNL     1      46.294   9.885  12.586  0.00  0.00    +0.000 OA
ENDBRANCH  17  29
ENDBRANCH  16  22
ENDBRANCH   1  16
TORSDOF 6
ENDMDL
MODEL 3
REMARK VINA RESULT:    -7.446      2.601      3.509
REMARK INTER + INTRA:         -11.391
REMARK INTER:                 -10.569
REMARK INTRA:                  -0.822
REMARK UNBOUND:                -1.332
REMARK  Name = 
REMARK  7 active torsions:
REMARK  status: ('A' for Active; 'I' for Inactive)
REMARK    1  A    between atoms: C_1  and  O_2
REMARK    2  A    between atoms: O_2  and  C_3
REMARK    3  A    between atoms: C_5  and  C_6
REMARK    4  A    between atoms: C_11  and  O_12
REMARK    5  A    between atoms: O_12  and  C_13
REMARK    6  A    between atoms: C_13  and  C_14
REMARK    7  A    between atoms: C_18  and  C_19
REMARK                            x       y       z     vdW  Elec       q    Type
REMARK                         _______ _______ _______ _____ _____    ______ ____
ROOT
ATOM      1  C   UNL     1      45.582   6.555  12.880  0.00  0.00    +0.000 C 
ENDROOT
BRANCH   1   2
ATOM      2  C   UNL     1      44.914   5.576  11.950  0.00  0.00    +0.000 A 
ATOM      3  C   UNL     1      43.642   5.104  12.256  0.00  0.00    +0.000 A 
ATOM      4  N   UNL     1      42.996   4.159  11.544  0.00  0.00    +0.000 NA
ATOM      5  C   UNL     1      43.656   3.652  10.476  0.00  0.00    +0.000 A 
ATOM      6  C   UNL     1      44.941   4.023  10.065  0.00  0.00    +0.000 A 
ATOM      7  C   UNL     1      45.563   5.013  10.843  0.00  0.00    +0.000 A 
BRANCH   6   8
ATOM      8  C   UNL     1      45.593   3.405   8.892  0.00  0.00    +0.000 A 
ATOM      9  C   UNL     1      46.063   4.191   7.820  0.00  0.00    +0.000 A 
ATOM     10  C   UNL     1      46.720   3.617   6.727  0.00  0.00    +0.000 A 
ATOM     11  C   UNL     1      46.905   2.242   6.681  0.00  0.00    +0.000 A 
ATOM     12  F   UNL     1      47.545   1.712   5.629  0.00  0.00    +0.000 F 
ATOM     13  C   UNL     1      46.435   1.436   7.711  0.00  0.00    +0.000 A 
ATOM     14 CL   UNL     1      46.650  -0.271   7.658  0.00  0.00    +0.000 Cl
ATOM     15  C   UNL     1      45.785   2.012   8.809  0.00  0.00    +0.000 A 
ENDBRANCH   6   8
ENDBRANCH   1   2
BRANCH   1  16
ATOM     16  O   UNL     1      46.984   6.315  12.986  0.00  0.00    +0.000 OA
BRANCH  16  22
ATOM     17  C   UNL     1      48.419   6.561  15.022  0.00  0.00    +0.000 A 
ATOM     18  C   UNL     1      48.785   5.971  16.242  0.00  0.00    +0.000 A 
ATOM     19  C   UNL     1      48.237   4.750  16.664  0.00  0.00    +0.000 A 
ATOM     20  C   UNL     1      47.296   4.115  15.855  0.00  0.00    +0.000 A 
ATOM     21  C   UNL     1      46.921   4.697  14.637  0.00  0.00    +0.000 A 
ATOM     22  C   UNL     1      47.472   5.915  14.207  0.00  0.00    +0.000 A 
BRANCH  19  23
ATOM     23  C   UNL     1      48.706   4.213  17.973  0.00  0.00    +0.000 C 
ATOM     24  N   UNL     1      47.806   4.067  18.990  0.00  0.00    +0.000 N 
ATOM     25  O   UNL     1      49.880   3.900  18.153  0.00  0.00    +0.000 OA
ATOM     26  H   UNL     1      46.830   4.308  18.945  0.00  0.00    +0.000 HD
ATOM     27  H   UNL     1      48.166   3.702  19.863  0.00  0.00    +0.000 HD
ENDBRANCH  19  23
BRANCH  17  29
ATOM     28  C   UNL     1      48.238   8.943  15.091  0.00  0.00    +0.000 C 
ATOM     29  O   UNL     1      48.911   7.777  14.631  0.00  0.00    +0.000 OA
ENDBRANCH  17  29
ENDBRANCH  16  22
ENDBRANCH   1  16
TORSDOF 6
ENDMDL
MODEL 4
REMARK VINA RESULT:    -7.445      1.972      2.034
REMARK INTER + INTRA:         -11.389
REMARK INTER:                 -10.365
REMARK INTRA:                  -1.024
REMARK UNBOUND:                -1.332
REMARK  Name = 
REMARK  7 active torsions:
REMARK  status: ('A' for Active; 'I' for Inactive)
REMARK    1  A    between atoms: C_1  and  O_2
REMARK    2  A    between atoms: O_2  and  C_3
REMARK    3  A    between atoms: C_5  and  C_6
REMARK    4  A    between atoms: C_11  and  O_12
REMARK    5  A    between atoms: O_12  and  C_13
REMARK    6  A    between atoms: C_13  and  C_14
REMARK    7  A    between atoms: C_18  and  C_19
REMARK                            x       y       z     vdW  Elec       q    Type
REMARK                         _______ _______ _______ _____ _____    ______ ____
ROOT
ATOM      1  C   UNL     1      44.945   7.033  12.326  0.00  0.00    +0.000 C 
ENDROOT
BRANCH   1   2
ATOM      2  C   UNL     1      44.524   5.767  11.627  0.00  0.00    +0.000 A 
ATOM      3  C   UNL     1      43.474   5.018  12.146  0.00  0.00    +0.000 A 
ATOM      4  N   UNL     1      43.081   3.826  11.654  0.00  0.00    +0.000 NA
ATOM      5  C   UNL     1      43.777   3.353  10.593  0.00  0.00    +0.000 A 
ATOM      6  C   UNL     1      44.861   3.993   9.983  0.00  0.00    +0.000 A 
ATOM      7  C   UNL     1      45.223   5.231  10.537  0.00  0.00    +0.000 A 
BRANCH   6   8
ATOM      8  C   UNL     1      45.575   3.394   8.835  0.00  0.00    +0.000 A 
ATOM      9  C   UNL     1      46.066   4.195   7.784  0.00  0.00    +0.000 A 
ATOM     10  C   UNL     1      46.780   3.641   6.717  0.00  0.00    +0.000 A 
ATOM     11  C   UNL     1      47.002   2.271   6.676  0.00  0.00    +0.000 A 
ATOM     12  F   UNL     1      47.696   1.760   5.649  0.00  0.00    +0.000 F 
ATOM     13  C   UNL     1      46.513   1.451   7.686  0.00  0.00    +0.000 A 
ATOM     14 CL   UNL     1      46.775  -0.250   7.639  0.00  0.00    +0.000 Cl
ATOM     15  C   UNL     1      45.806   2.007   8.758  0.00  0.00    +0.000 A 
ENDBRANCH   6   8
ENDBRANCH   1   2
BRANCH   1  16
ATOM     16  O   UNL     1      46.319   7.337  12.095  0.00  0.00    +0.000 OA
BRANCH  16  22
ATOM     17  C   UNL     1      47.842   6.352  13.820  0.00  0.00    +0.000 A 
ATOM     18  C   UNL     1      48.642   6.638  14.937  0.00  0.00    +0.000 A 
ATOM     19  C   UNL     1      48.762   7.942  15.444  0.00  0.00    +0.000 A 
ATOM     20  C   UNL     1      48.078   8.979  14.811  0.00  0.00    +0.000 A 
ATOM     21  C   UNL     1      47.279   8.704  13.693  0.00  0.00    +0.000 A 
ATOM     22  C   UNL     1      47.151   7.401  13.188  0.00  0.00    +0.000 A 
BRANCH  19  23
ATOM     23  C   UNL     1      49.632   8.127  16.640  0.00  0.00    +0.000 C 
ATOM     24  N   UNL     1      49.332   7.453  17.788  0.00  0.00    +0.000 N 
ATOM     25  O   UNL     1      50.611   8.869  16.610  0.00  0.00    +0.000 OA
ATOM     26  H   UNL     1      48.546   6.837  17.915  0.00  0.00    +0.000 HD
ATOM     27  H   UNL     1      49.946   7.608  18.578  0.00  0.00    +0.000 HD
ENDBRANCH  19  23
BRANCH  17  29
ATOM     28  C   UNL     1      46.896   4.160  13.926  0.00  0.00    +0.000 C 
ATOM     29  O   UNL     1      47.764   5.092  13.291  0.00  0.00    +0.000 OA
ENDBRANCH  17  29
ENDBRANCH  16  22
ENDBRANCH   1  16
TORSDOF 6
ENDMDL
MODEL 5
REMARK VINA RESULT:    -7.008      4.371      7.092
REMARK INTER + INTRA:         -10.798
REMARK INTER:                  -9.703
REMARK INTRA:                  -1.095
REMARK UNBOUND:                -1.332
REMARK  Name = 
REMARK  7 active torsions:
REMARK  status: ('A' for Active; 'I' for Inactive)
REMARK    1  A    between atoms: C_1  and  O_2
REMARK    2  A    between atoms: O_2  and  C_3
REMARK    3  A    between atoms: C_5  and  C_6
REMARK    4  A    between atoms: C_11  and  O_12
REMARK    5  A    between atoms: O_12  and  C_13
REMARK    6  A    between atoms: C_13  and  C_14
REMARK    7  A    between atoms: C_18  and  C_19
REMARK                            x       y       z     vdW  Elec       q    Type
REMARK                         _______ _______ _______ _____ _____    ______ ____
ROOT
ATOM      1  C   UNL     1      44.006   2.453  11.258  0.00  0.00    +0.000 C 
ENDROOT
BRANCH   1   2
ATOM      2  C   UNL     1      44.250   3.743  11.997  0.00  0.00    +0.000 A 
ATOM      3  C   UNL     1      43.378   4.810  11.811  0.00  0.00    +0.000 A 
ATOM      4  N   UNL     1      43.555   6.033  12.348  0.00  0.00    +0.000 NA
ATOM      5  C   UNL     1      44.665   6.203  13.104  0.00  0.00    +0.000 A 
ATOM      6  C   UNL     1      45.632   5.224  13.360  0.00  0.00    +0.000 A 
ATOM      7  C   UNL     1      45.391   3.970  12.776  0.00  0.00    +0.000 A 
BRANCH   6   8
ATOM      8  C   UNL     1      46.825   5.503  14.186  0.00  0.00    +0.000 A 
ATOM      9  C   UNL     1      47.705   6.556  13.865  0.00  0.00    +0.000 A 
ATOM     10  C   UNL     1      48.812   6.853  14.666  0.00  0.00    +0.000 A 
ATOM     11  C   UNL     1      49.065   6.090  15.798  0.00  0.00    +0.000 A 
ATOM     12  F   UNL     1      50.126   6.396  16.558  0.00  0.00    +0.000 F 
ATOM     13  C   UNL     1      48.229   5.030  16.131  0.00  0.00    +0.000 A 
ATOM     14 CL   UNL     1      48.542   4.072  17.527  0.00  0.00    +0.000 Cl
ATOM     15  C   UNL     1      47.117   4.739  15.333  0.00  0.00    +0.000 A 
ENDBRANCH   6   8
ENDBRANCH   1   2
BRANCH   1  16
ATOM     16  O   UNL     1      43.741   2.675   9.873  0.00  0.00    +0.000 OA
BRANCH  16  22
ATOM     17  C   UNL     1      45.457   3.802   8.442  0.00  0.00    +0.000 A 
ATOM     18  C   UNL     1      46.541   3.590   7.575  0.00  0.00    +0.000 A 
ATOM     19  C   UNL     1      46.991   2.299   7.258  0.00  0.00    +0.000 A 
ATOM     20  C   UNL     1      46.351   1.201   7.830  0.00  0.00    +0.000 A 
ATOM     21  C   UNL     1      45.271   1.400   8.699  0.00  0.00    +0.000 A 
ATOM     22  C   UNL     1      44.813   2.690   9.013  0.00  0.00    +0.000 A 
BRANCH  19  23
ATOM     23  C   UNL     1      48.145   2.195   6.320  0.00  0.00    +0.000 C 
ATOM     24  N   UNL     1      49.256   2.953   6.550  0.00  0.00    +0.000 N 
ATOM     25  O   UNL     1      48.115   1.442   5.350  0.00  0.00    +0.000 OA
ATOM     26  H   UNL     1      49.370   3.608   7.306  0.00  0.00    +0.000 HD
ATOM     27  H   UNL     1      50.016   2.855   5.888  0.00  0.00    +0.000 HD
ENDBRANCH  19  23
BRANCH  17  29
ATOM     28  C   UNL     1      45.932   5.845   9.586  0.00  0.00    +0.000 C 
ATOM     29  O   UNL     1      45.049   5.059   8.794  0.00  0.00    +0.000 OA
ENDBRANCH  17  29
ENDBRANCH  16  22
ENDBRANCH   1  16
TORSDOF 6
ENDMDL
MODEL 6
REMARK VINA RESULT:    -6.924      4.037      6.933
REMARK INTER + INTRA:         -10.685
REMARK INTER:                  -9.606
REMARK INTRA:                  -1.079
REMARK UNBOUND:                -1.332
REMARK  Name = 
REMARK  7 active torsions:
REMARK  status: ('A' for Active; 'I' for Inactive)
REMARK    1  A    between atoms: C_1  and  O_2
REMARK    2  A    between atoms: O_2  and  C_3
REMARK    3  A    between atoms: C_5  and  C_6
REMARK    4  A    between atoms: C_11  and  O_12
REMARK    5  A    between atoms: O_12  and  C_13
REMARK    6  A    between atoms: C_13  and  C_14
REMARK    7  A    between atoms: C_18  and  C_19
REMARK                            x       y       z     vdW  Elec       q    Type
REMARK                         _______ _______ _______ _____ _____    ______ ____
ROOT
ATOM      1  C   UNL     1      44.315   2.481  11.542  0.00  0.00    +0.000 C 
ENDROOT
BRANCH   1   2
ATOM      2  C   UNL     1      44.508   3.814  12.217  0.00  0.00    +0.000 A 
ATOM      3  C   UNL     1      43.400   4.616  12.468  0.00  0.00    +0.000 A 
ATOM      4  N   UNL     1      43.470   5.861  12.980  0.00  0.00    +0.000 NA
ATOM      5  C   UNL     1      44.711   6.334  13.247  0.00  0.00    +0.000 A 
ATOM      6  C   UNL     1      45.907   5.642  13.029  0.00  0.00    +0.000 A 
ATOM      7  C   UNL     1      45.771   4.350  12.498  0.00  0.00    +0.000 A 
BRANCH   6   8
ATOM      8  C   UNL     1      47.222   6.243  13.337  0.00  0.00    +0.000 A 
ATOM      9  C   UNL     1      47.801   6.115  14.616  0.00  0.00    +0.000 A 
ATOM     10  C   UNL     1      49.064   6.643  14.901  0.00  0.00    +0.000 A 
ATOM     11  C   UNL     1      49.764   7.323  13.914  0.00  0.00    +0.000 A 
ATOM     12  F   UNL     1      50.977   7.814  14.205  0.00  0.00    +0.000 F 
ATOM     13  C   UNL     1      49.212   7.486  12.648  0.00  0.00    +0.000 A 
ATOM     14 CL   UNL     1      50.068   8.336  11.420  0.00  0.00    +0.000 Cl
ATOM     15  C   UNL     1      47.952   6.949  12.361  0.00  0.00    +0.000 A 
ENDBRANCH   6   8
ENDBRANCH   1   2
BRANCH   1  16
ATOM     16  O   UNL     1      43.851   2.627  10.200  0.00  0.00    +0.000 OA
BRANCH  16  22
ATOM     17  C   UNL     1      45.325   3.802   8.553  0.00  0.00    +0.000 A 
ATOM     18  C   UNL     1      46.284   3.621   7.545  0.00  0.00    +0.000 A 
ATOM     19  C   UNL     1      46.719   2.343   7.160  0.00  0.00    +0.000 A 
ATOM     20  C   UNL     1      46.192   1.227   7.807  0.00  0.00    +0.000 A 
ATOM     21  C   UNL     1      45.237   1.396   8.818  0.00  0.00    +0.000 A 
ATOM     22  C   UNL     1      44.794   2.672   9.201  0.00  0.00    +0.000 A 
BRANCH  19  23
ATOM     23  C   UNL     1      47.735   2.272   6.071  0.00  0.00    +0.000 C 
ATOM     24  N   UNL     1      47.678   3.178   5.052  0.00  0.00    +0.000 N 
ATOM     25  O   UNL     1      48.619   1.419   6.076  0.00  0.00    +0.000 OA
ATOM     26  H   UNL     1      46.985   3.902   4.952  0.00  0.00    +0.000 HD
ATOM     27  H   UNL     1      48.384   3.093   4.331  0.00  0.00    +0.000 HD
ENDBRANCH  19  23
BRANCH  17  29
ATOM     28  C   UNL     1      45.941   5.920   9.471  0.00  0.00    +0.000 C 
ATOM     29  O   UNL     1      44.937   5.047   8.967  0.00  0.00    +0.000 OA
ENDBRANCH  17  29
ENDBRANCH  16  22
ENDBRANCH   1  16
TORSDOF 6
ENDMDL
MODEL 7
REMARK VINA RESULT:    -6.876      1.277      1.574
REMARK INTER + INTRA:         -10.620
REMARK INTER:                  -9.761
REMARK INTRA:                  -0.859
REMARK UNBOUND:                -1.332
REMARK  Name = 
REMARK  7 active torsions:
REMARK  status: ('A' for Active; 'I' for Inactive)
REMARK    1  A    between atoms: C_1  and  O_2
REMARK    2  A    between atoms: O_2  and  C_3
REMARK    3  A    between atoms: C_5  and  C_6
REMARK    4  A    between atoms: C_11  and  O_12
REMARK    5  A    between atoms: O_12  and  C_13
REMARK    6  A    between atoms: C_13  and  C_14
REMARK    7  A    between atoms: C_18  and  C_19
REMARK                            x       y       z     vdW  Elec       q    Type
REMARK                         _______ _______ _______ _____ _____    ______ ____
ROOT
ATOM      1  C   UNL     1      45.670   5.045  13.672  0.00  0.00    +0.000 C 
ENDROOT
BRANCH   1   2
ATOM      2  C   UNL     1      44.940   4.572  12.442  0.00  0.00    +0.000 A 
ATOM      3  C   UNL     1      43.557   4.440  12.478  0.00  0.00    +0.000 A 
ATOM      4  N   UNL     1      42.819   3.938  11.468  0.00  0.00    +0.000 NA
ATOM      5  C   UNL     1      43.498   3.537  10.367  0.00  0.00    +0.000 A 
ATOM      6  C   UNL     1      44.886   3.597  10.203  0.00  0.00    +0.000 A 
ATOM      7  C   UNL     1      45.601   4.132  11.287  0.00  0.00    +0.000 A 
BRANCH   6   8
ATOM      8  C   UNL     1      45.547   3.122   8.970  0.00  0.00    +0.000 A 
ATOM      9  C   UNL     1      45.958   4.024   7.968  0.00  0.00    +0.000 A 
ATOM     10  C   UNL     1      46.622   3.586   6.818  0.00  0.00    +0.000 A 
ATOM     11  C   UNL     1      46.874   2.232   6.644  0.00  0.00    +0.000 A 
ATOM     12  F   UNL     1      47.520   1.833   5.540  0.00  0.00    +0.000 F 
ATOM     13  C   UNL     1      46.463   1.313   7.603  0.00  0.00    +0.000 A 
ATOM     14 CL   UNL     1      46.762  -0.369   7.391  0.00  0.00    +0.000 Cl
ATOM     15  C   UNL     1      45.806   1.754   8.757  0.00  0.00    +0.000 A 
ENDBRANCH   6   8
ENDBRANCH   1   2
BRANCH   1  16
ATOM     16  O   UNL     1      45.960   6.441  13.613  0.00  0.00    +0.000 OA
BRANCH  16  22
ATOM     17  C   UNL     1      48.425   6.710  13.953  0.00  0.00    +0.000 A 
ATOM     18  C   UNL     1      49.618   7.160  13.367  0.00  0.00    +0.000 A 
ATOM     19  C   UNL     1      49.643   7.720  12.080  0.00  0.00    +0.000 A 
ATOM     20  C   UNL     1      48.451   7.817  11.362  0.00  0.00    +0.000 A 
ATOM     21  C   UNL     1      47.255   7.367  11.936  0.00  0.00    +0.000 A 
ATOM     22  C   UNL     1      47.225   6.814  13.226  0.00  0.00    +0.000 A 
BRANCH  19  23
ATOM     23  C   UNL     1      50.965   8.172  11.562  0.00  0.00    +0.000 C 
ATOM     24  N   UNL     1      51.775   7.269  10.934  0.00  0.00    +0.000 N 
ATOM     25  O   UNL     1      51.338   9.335  11.688  0.00  0.00    +0.000 OA
ATOM     26  H   UNL     1      51.565   6.294  10.796  0.00  0.00    +0.000 HD
ATOM     27  H   UNL     1      52.665   7.616  10.600  0.00  0.00    +0.000 HD
ENDBRANCH  19  23
BRANCH  17  29
ATOM     28  C   UNL     1      49.392   6.516  16.129  0.00  0.00    +0.000 C 
ATOM     29  O   UNL     1      48.405   6.117  15.186  0.00  0.00    +0.000 OA
ENDBRANCH  17  29
ENDBRANCH  16  22
ENDBRANCH   1  16
TORSDOF 6
ENDMDL
MODEL 8
REMARK VINA RESULT:    -6.833      4.004      7.049
REMARK INTER + INTRA:         -10.562
REMARK INTER:                 -10.152
REMARK INTRA:                  -0.410
REMARK UNBOUND:                -1.332
REMARK  Name = 
REMARK  7 active torsions:
REMARK  status: ('A' for Active; 'I' for Inactive)
REMARK    1  A    between atoms: C_1  and  O_2
REMARK    2  A    between atoms: O_2  and  C_3
REMARK    3  A    between atoms: C_5  and  C_6
REMARK    4  A    between atoms: C_11  and  O_12
REMARK    5  A    between atoms: O_12  and  C_13
REMARK    6  A    between atoms: C_13  and  C_14
REMARK    7  A    between atoms: C_18  and  C_19
REMARK                            x       y       z     vdW  Elec       q    Type
REMARK                         _______ _______ _______ _____ _____    ______ ____
ROOT
ATOM      1  C   UNL     1      44.212   5.375  11.361  0.00  0.00    +0.000 C 
ENDROOT
BRANCH   1   2
ATOM      2  C   UNL     1      44.887   6.700  11.603  0.00  0.00    +0.000 A 
ATOM      3  C   UNL     1      44.168   7.875  11.417  0.00  0.00    +0.000 A 
ATOM      4  N   UNL     1      44.700   9.109  11.515  0.00  0.00    +0.000 NA
ATOM      5  C   UNL     1      46.021   9.175  11.805  0.00  0.00    +0.000 A 
ATOM      6  C   UNL     1      46.865   8.076  12.000  0.00  0.00    +0.000 A 
ATOM      7  C   UNL     1      46.254   6.817  11.889  0.00  0.00    +0.000 A 
BRANCH   6   8
ATOM      8  C   UNL     1      48.303   8.240  12.298  0.00  0.00    +0.000 A 
ATOM      9  C   UNL     1      48.735   8.817  13.510  0.00  0.00    +0.000 A 
ATOM     10  C   UNL     1      50.094   8.936  13.818  0.00  0.00    +0.000 A 
ATOM     11  C   UNL     1      51.046   8.493  12.910  0.00  0.00    +0.000 A 
ATOM     12  F   UNL     1      52.343   8.608  13.227  0.00  0.00    +0.000 F 
ATOM     13  C   UNL     1      50.653   7.940  11.696  0.00  0.00    +0.000 A 
ATOM     14 CL   UNL     1      51.826   7.397  10.559  0.00  0.00    +0.000 Cl
ATOM     15  C   UNL     1      49.293   7.813  11.393  0.00  0.00    +0.000 A 
ENDBRANCH   6   8
ENDBRANCH   1   2
BRANCH   1  16
ATOM     16  O   UNL     1      43.999   5.133   9.971  0.00  0.00    +0.000 OA
BRANCH  16  22
ATOM     17  C   UNL     1      44.459   2.695   9.637  0.00  0.00    +0.000 A 
ATOM     18  C   UNL     1      45.250   1.765   8.946  0.00  0.00    +0.000 A 
ATOM     19  C   UNL     1      46.237   2.169   8.033  0.00  0.00    +0.000 A 
ATOM     20  C   UNL     1      46.425   3.531   7.801  0.00  0.00    +0.000 A 
ATOM     21  C   UNL     1      45.639   4.468   8.483  0.00  0.00    +0.000 A 
ATOM     22  C   UNL     1      44.656   4.068   9.402  0.00  0.00    +0.000 A 
BRANCH  19  23
ATOM     23  C   UNL     1      47.022   1.094   7.363  0.00  0.00    +0.000 C 
ATOM     24  N   UNL     1      46.750  -0.210   7.662  0.00  0.00    +0.000 N 
ATOM     25  O   UNL     1      47.904   1.358   6.550  0.00  0.00    +0.000 OA
ATOM     26  H   UNL     1      46.060  -0.525   8.324  0.00  0.00    +0.000 HD
ATOM     27  H   UNL     1      47.307  -0.909   7.188  0.00  0.00    +0.000 HD
ENDBRANCH  19  23
BRANCH  17  29
ATOM     28  C   UNL     1      43.741   2.308  11.883  0.00  0.00    +0.000 C 
ATOM     29  O   UNL     1      43.461   2.304  10.488  0.00  0.00    +0.000 OA
ENDBRANCH  17  29
ENDBRANCH  16  22
ENDBRANCH   1  16
TORSDOF 6
ENDMDL
MODEL 9
REMARK VINA RESULT:    -6.692      4.068      5.465
REMARK INTER + INTRA:         -10.371
REMARK INTER:                  -9.496
REMARK INTRA:                  -0.876
REMARK UNBOUND:                -1.332
REMARK  Name = 
REMARK  7 active torsions:
REMARK  status: ('A' for Active; 'I' for Inactive)
REMARK    1  A    between atoms: C_1  and  O_2
REMARK    2  A    between atoms: O_2  and  C_3
REMARK    3  A    between atoms: C_5  and  C_6
REMARK    4  A    between atoms: C_11  and  O_12
REMARK    5  A    between atoms: O_12  and  C_13
REMARK    6  A    between atoms: C_13  and  C_14
REMARK    7  A    between atoms: C_18  and  C_19
REMARK                            x       y       z     vdW  Elec       q    Type
REMARK                         _______ _______ _______ _____ _____    ______ ____
ROOT
ATOM      1  C   UNL     1      48.753   7.591  14.254  0.00  0.00    +0.000 C 
ENDROOT
BRANCH   1   2
ATOM      2  C   UNL     1      47.575   7.671  13.317  0.00  0.00    +0.000 A 
ATOM      3  C   UNL     1      46.826   8.842  13.263  0.00  0.00    +0.000 A 
ATOM      4  N   UNL     1      45.703   8.986  12.532  0.00  0.00    +0.000 NA
ATOM      5  C   UNL     1      45.301   7.904  11.825  0.00  0.00    +0.000 A 
ATOM      6  C   UNL     1      45.948   6.664  11.801  0.00  0.00    +0.000 A 
ATOM      7  C   UNL     1      47.114   6.574  12.578  0.00  0.00    +0.000 A 
BRANCH   6   8
ATOM      8  C   UNL     1      45.429   5.528  11.010  0.00  0.00    +0.000 A 
ATOM      9  C   UNL     1      45.705   5.412   9.632  0.00  0.00    +0.000 A 
ATOM     10  C   UNL     1      45.253   4.318   8.887  0.00  0.00    +0.000 A 
ATOM     11  C   UNL     1      44.503   3.328   9.506  0.00  0.00    +0.000 A 
ATOM     12  F   UNL     1      44.087   2.283   8.777  0.00  0.00    +0.000 F 
ATOM     13  C   UNL     1      44.195   3.423  10.859  0.00  0.00    +0.000 A 
ATOM     14 CL   UNL     1      43.257   2.204  11.632  0.00  0.00    +0.000 Cl
ATOM     15  C   UNL     1      44.655   4.514  11.605  0.00  0.00    +0.000 A 
ENDBRANCH   6   8
ENDBRANCH   1   2
BRANCH   1  16
ATOM     16  O   UNL     1      48.921   6.277  14.784  0.00  0.00    +0.000 OA
BRANCH  16  22
ATOM     17  C   UNL     1      48.221   4.899  16.752  0.00  0.00    +0.000 A 
ATOM     18  C   UNL     1      47.965   4.922  18.132  0.00  0.00    +0.000 A 
ATOM     19  C   UNL     1      48.094   6.099  18.887  0.00  0.00    +0.000 A 
ATOM     20  C   UNL     1      48.501   7.270  18.249  0.00  0.00    +0.000 A 
ATOM     21  C   UNL     1      48.763   7.256  16.873  0.00  0.00    +0.000 A 
ATOM     22  C   UNL     1      48.627   6.084  16.113  0.00  0.00    +0.000 A 
BRANCH  19  23
ATOM     23  C   UNL     1      47.787   6.007  20.342  0.00  0.00    +0.000 C 
ATOM     24  N   UNL     1      47.805   4.784  20.948  0.00  0.00    +0.000 N 
ATOM     25  O   UNL     1      47.523   7.008  21.004  0.00  0.00    +0.000 OA
ATOM     26  H   UNL     1      47.996   3.908  20.489  0.00  0.00    +0.000 HD
ATOM     27  H   UNL     1      47.589   4.765  21.937  0.00  0.00    +0.000 HD
ENDBRANCH  19  23
BRANCH  17  29
ATOM     28  C   UNL     1      48.550   2.534  16.656  0.00  0.00    +0.000 C 
ATOM     29  O   UNL     1      48.147   3.743  16.024  0.00  0.00    +0.000 OA
ENDBRANCH  17  29
ENDBRANCH  16  22
ENDBRANCH   1  16
TORSDOF 6
ENDMDL
