MODEL 1
REMARK VINA RESULT:    -6.859      0.000      0.000
REMARK INTER + INTRA:          -9.149
REMARK INTER:                  -8.463
REMARK INTRA:                  -0.686
REMARK UNBOUND:                -0.686
REMARK  Name = 
REMARK  5 active torsions:
REMARK  status: ('A' for Active; 'I' for Inactive)
REMARK    1  A    between atoms: N_1  and  C_2
REMARK    2  A    between atoms: C_2  and  C_3
REMARK    3  A    between atoms: C_6  and  C_7
REMARK    4  A    between atoms: C_7  and  N_8
REMARK    5  A    between atoms: C_14  and  O_15
REMARK                            x       y       z     vdW  Elec       q    Type
REMARK                         _______ _______ _______ _____ _____    ______ ____
ROOT
ATOM      1  C   UNL     1      44.520   6.489  11.388  0.00  0.00    +0.000 C 
ENDROOT
BRANCH   1   2
ATOM      2  N   UNL     1      44.286   5.092  11.046  0.00  0.00    +0.000 N 
ATOM      3  C   UNL     1      43.536   4.234  11.812  0.00  0.00    +0.000 A 
ATOM      4  C   UNL     1      43.628   2.978  11.262  0.00  0.00    +0.000 A 
ATOM      5  C   UNL     1      44.460   3.070  10.115  0.00  0.00    +0.000 A 
ATOM      6  C   UNL     1      44.920   2.127   9.173  0.00  0.00    +0.000 A 
ATOM      7  C   UNL     1      45.738   2.545   8.118  0.00  0.00    +0.000 A 
ATOM      8  C   UNL     1      46.090   3.884   8.003  0.00  0.00    +0.000 A 
ATOM      9  C   UNL     1      45.664   4.841   8.926  0.00  0.00    +0.000 A 
ATOM     10  C   UNL     1      44.846   4.409   9.983  0.00  0.00    +0.000 A 
BRANCH   8  11
ATOM     11  O   UNL     1      46.873   4.316   6.971  0.00  0.00    +0.000 OA
ATOM     12  H   UNL     1      46.684   5.256   6.815  0.00  0.00    +0.000 HD
ENDBRANCH   8  11
ENDBRANCH   1   2
BRANCH   1  16
ATOM     13  C   UNL     1      48.008   7.723  12.440  0.00  0.00    +0.000 C 
ATOM     14  C   UNL     1      47.634   6.252  12.193  0.00  0.00    +0.000 C 
ATOM     15  C   UNL     1      46.411   5.820  13.002  0.00  0.00    +0.000 C 
ATOM     16  C   UNL     1      45.177   6.709  12.766  0.00  0.00    +0.000 C 
ATOM     17  C   UNL     1      45.550   8.193  12.955  0.00  0.00    +0.000 C 
ATOM     18  C   UNL     1      46.786   8.612  12.155  0.00  0.00    +0.000 C 
BRANCH  13  19
ATOM     19  C   UNL     1      48.603   7.894  13.855  0.00  0.00    +0.000 C 
BRANCH  19  20
ATOM     20  N   UNL     1      49.725   6.998  14.115  0.00  0.00    +0.000 NA
ATOM     21  H   UNL     1      50.247   7.349  14.919  0.00  0.00    +0.000 HD
ATOM     22  H   UNL     1      50.378   7.030  13.334  0.00  0.00    +0.000 HD
ENDBRANCH  19  20
ENDBRANCH  13  19
ENDBRANCH   1  16
TORSDOF 5
ENDMDL
MODEL 2
REMARK VINA RESULT:    -5.910      3.754      7.074
REMARK INTER + INTRA:          -7.978
REMARK INTER:                  -7.619
REMARK INTRA:                  -0.359
REMARK UNBOUND:                -0.686
REMARK  Name = 
REMARK  5 active torsions:
REMARK  status: ('A' for Active; 'I' for Inactive)
REMARK    1  A    between atoms: N_1  and  C_2
REMARK    2  A    between atoms: C_2  and  C_3
REMARK    3  A    between atoms: C_6  and  C_7
REMARK    4  A    between atoms: C_7  and  N_8
REMARK    5  A    between atoms: C_14  and  O_15
REMARK                            x       y       z     vdW  Elec       q    Type
REMARK                         _______ _______ _______ _____ _____    ______ ____
ROOT
ATOM      1  C   UNL     1      47.538   5.684  13.359  0.00  0.00    +0.000 C 
ENDROOT
BRANCH   1   2
ATOM      2  N   UNL     1      48.087   6.081  14.649  0.00  0.00    +0.000 N 
ATOM      3  C   UNL     1      48.901   7.172  14.829  0.00  0.00    +0.000 A 
ATOM      4  C   UNL     1      49.328   7.176  16.136  0.00  0.00    +0.000 A 
ATOM      5  C   UNL     1      48.752   6.050  16.781  0.00  0.00    +0.000 A 
ATOM      6  C   UNL     1      48.836   5.535  18.091  0.00  0.00    +0.000 A 
ATOM      7  C   UNL     1      48.116   4.384  18.430  0.00  0.00    +0.000 A 
ATOM      8  C   UNL     1      47.323   3.757  17.476  0.00  0.00    +0.000 A 
ATOM      9  C   UNL     1      47.230   4.233  16.167  0.00  0.00    +0.000 A 
ATOM     10  C   UNL     1      47.959   5.386  15.837  0.00  0.00    +0.000 A 
BRANCH   8  11
ATOM     11  O   UNL     1      46.599   2.643  17.791  0.00  0.00    +0.000 OA
ATOM     12  H   UNL     1      45.780   2.924  18.231  0.00  0.00    +0.000 HD
ENDBRANCH   8  11
ENDBRANCH   1   2
BRANCH   1  16
ATOM     13  C   UNL     1      44.942   4.544  10.759  0.00  0.00    +0.000 C 
ATOM     14  C   UNL     1      45.814   5.806  10.636  0.00  0.00    +0.000 C 
ATOM     15  C   UNL     1      45.707   6.707  11.866  0.00  0.00    +0.000 C 
ATOM     16  C   UNL     1      46.035   5.984  13.184  0.00  0.00    +0.000 C 
ATOM     17  C   UNL     1      45.209   4.687  13.297  0.00  0.00    +0.000 C 
ATOM     18  C   UNL     1      45.309   3.799  12.053  0.00  0.00    +0.000 C 
BRANCH  13  19
ATOM     19  C   UNL     1      43.447   4.913  10.639  0.00  0.00    +0.000 C 
BRANCH  19  20
ATOM     20  N   UNL     1      42.576   4.022  11.398  0.00  0.00    +0.000 NA
ATOM     21  H   UNL     1      42.468   3.149  10.881  0.00  0.00    +0.000 HD
ATOM     22  H   UNL     1      41.640   4.421  11.454  0.00  0.00    +0.000 HD
ENDBRANCH  19  20
ENDBRANCH  13  19
ENDBRANCH   1  16
TORSDOF 5
ENDMDL
MODEL 3
REMARK VINA RESULT:    -5.668      3.987      5.132
REMARK INTER + INTRA:          -7.680
REMARK INTER:                  -7.346
REMARK INTRA:                  -0.333
REMARK UNBOUND:                -0.686
REMARK  Name = 
REMARK  5 active torsions:
REMARK  status: ('A' for Active; 'I' for Inactive)
REMARK    1  A    between atoms: N_1  and  C_2
REMARK    2  A    between atoms: C_2  and  C_3
REMARK    3  A    between atoms: C_6  and  C_7
REMARK    4  A    between atoms: C_7  and  N_8
REMARK    5  A    between atoms: C_14  and  O_15
REMARK                            x       y       z     vdW  Elec       q    Type
REMARK                         _______ _______ _______ _____ _____    ______ ____
ROOT
ATOM      1  C   UNL     1      47.367   3.979  14.662  0.00  0.00    +0.000 C 
ENDROOT
BRANCH   1   2
ATOM      2  N   UNL     1      46.885   4.724  13.506  0.00  0.00    +0.000 N 
ATOM      3  C   UNL     1      47.398   5.935  13.110  0.00  0.00    +0.000 A 
ATOM      4  C   UNL     1      46.633   6.404  12.068  0.00  0.00    +0.000 A 
ATOM      5  C   UNL     1      45.618   5.444  11.814  0.00  0.00    +0.000 A 
ATOM      6  C   UNL     1      44.551   5.382  10.894  0.00  0.00    +0.000 A 
ATOM      7  C   UNL     1      43.711   4.263  10.882  0.00  0.00    +0.000 A 
ATOM      8  C   UNL     1      43.933   3.221  11.774  0.00  0.00    +0.000 A 
ATOM      9  C   UNL     1      44.970   3.258  12.707  0.00  0.00    +0.000 A 
ATOM     10  C   UNL     1      45.805   4.387  12.712  0.00  0.00    +0.000 A 
BRANCH   8  11
ATOM     11  O   UNL     1      43.135   2.113  11.767  0.00  0.00    +0.000 OA
ATOM     12  H   UNL     1      42.222   2.392  11.948  0.00  0.00    +0.000 HD
ENDBRANCH   8  11
ENDBRANCH   1   2
BRANCH   1  16
ATOM     13  C   UNL     1      49.212   3.760  18.031  0.00  0.00    +0.000 C 
ATOM     14  C   UNL     1      48.007   2.891  17.629  0.00  0.00    +0.000 C 
ATOM     15  C   UNL     1      46.816   3.728  17.164  0.00  0.00    +0.000 C 
ATOM     16  C   UNL     1      47.159   4.692  16.014  0.00  0.00    +0.000 C 
ATOM     17  C   UNL     1      48.400   5.532  16.378  0.00  0.00    +0.000 C 
ATOM     18  C   UNL     1      49.581   4.685  16.859  0.00  0.00    +0.000 C 
BRANCH  13  19
ATOM     19  C   UNL     1      48.922   4.496  19.357  0.00  0.00    +0.000 C 
BRANCH  19  20
ATOM     20  N   UNL     1      48.332   3.631  20.373  0.00  0.00    +0.000 NA
ATOM     21  H   UNL     1      48.449   2.659  20.087  0.00  0.00    +0.000 HD
ATOM     22  H   UNL     1      47.325   3.783  20.411  0.00  0.00    +0.000 HD
ENDBRANCH  19  20
ENDBRANCH  13  19
ENDBRANCH   1  16
TORSDOF 5
ENDMDL
MODEL 4
REMARK VINA RESULT:    -5.649      2.859      6.394
REMARK INTER + INTRA:          -7.656
REMARK INTER:                  -6.960
REMARK INTRA:                  -0.696
REMARK UNBOUND:                -0.686
REMARK  Name = 
REMARK  5 active torsions:
REMARK  status: ('A' for Active; 'I' for Inactive)
REMARK    1  A    between atoms: N_1  and  C_2
REMARK    2  A    between atoms: C_2  and  C_3
REMARK    3  A    between atoms: C_6  and  C_7
REMARK    4  A    between atoms: C_7  and  N_8
REMARK    5  A    between atoms: C_14  and  O_15
REMARK                            x       y       z     vdW  Elec       q    Type
REMARK                         _______ _______ _______ _____ _____    ______ ____
ROOT
ATOM      1  C   UNL     1      46.465   6.682  13.268  0.00  0.00    +0.000 C 
ENDROOT
BRANCH   1   2
ATOM      2  N   UNL     1      47.006   7.869  12.618  0.00  0.00    +0.000 N 
ATOM      3  C   UNL     1      48.341   8.052  12.353  0.00  0.00    +0.000 A 
ATOM      4  C   UNL     1      48.506   9.321  11.851  0.00  0.00    +0.000 A 
ATOM      5  C   UNL     1      47.227   9.935  11.802  0.00  0.00    +0.000 A 
ATOM      6  C   UNL     1      46.778  11.211  11.401  0.00  0.00    +0.000 A 
ATOM      7  C   UNL     1      45.414  11.515  11.459  0.00  0.00    +0.000 A 
ATOM      8  C   UNL     1      44.510  10.560  11.908  0.00  0.00    +0.000 A 
ATOM      9  C   UNL     1      44.923   9.294  12.327  0.00  0.00    +0.000 A 
ATOM     10  C   UNL     1      46.295   9.000  12.268  0.00  0.00    +0.000 A 
BRANCH   8  11
ATOM     11  O   UNL     1      43.173  10.830  11.956  0.00  0.00    +0.000 OA
ATOM     12  H   UNL     1      42.849  10.935  11.046  0.00  0.00    +0.000 HD
ENDBRANCH   8  11
ENDBRANCH   1   2
BRANCH   1  16
ATOM     13  C   UNL     1      43.565   4.580  11.865  0.00  0.00    +0.000 C 
ATOM     14  C   UNL     1      44.265   4.324  13.211  0.00  0.00    +0.000 C 
ATOM     15  C   UNL     1      45.782   4.208  13.063  0.00  0.00    +0.000 C 
ATOM     16  C   UNL     1      46.424   5.425  12.374  0.00  0.00    +0.000 C 
ATOM     17  C   UNL     1      45.696   5.730  11.049  0.00  0.00    +0.000 C 
ATOM     18  C   UNL     1      44.176   5.827  11.205  0.00  0.00    +0.000 C 
BRANCH  13  19
ATOM     19  C   UNL     1      43.608   3.309  10.989  0.00  0.00    +0.000 C 
BRANCH  19  20
ATOM     20  N   UNL     1      43.095   2.126  11.671  0.00  0.00    +0.000 NA
ATOM     21  H   UNL     1      42.277   2.393  12.220  0.00  0.00    +0.000 HD
ATOM     22  H   UNL     1      43.780   1.795  12.349  0.00  0.00    +0.000 HD
ENDBRANCH  19  20
ENDBRANCH  13  19
ENDBRANCH   1  16
TORSDOF 5
ENDMDL
MODEL 5
REMARK VINA RESULT:    -5.582      2.799      6.175
REMARK INTER + INTRA:          -7.574
REMARK INTER:                  -7.067
REMARK INTRA:                  -0.506
REMARK UNBOUND:                -0.686
REMARK  Name = 
REMARK  5 active torsions:
REMARK  status: ('A' for Active; 'I' for Inactive)
REMARK    1  A    between atoms: N_1  and  C_2
REMARK    2  A    between atoms: C_2  and  C_3
REMARK    3  A    between atoms: C_6  and  C_7
REMARK    4  A    between atoms: C_7  and  N_8
REMARK    5  A    between atoms: C_14  and  O_15
REMARK                            x       y       z     vdW  Elec       q    Type
REMARK                         _______ _______ _______ _____ _____    ______ ____
ROOT
ATOM      1  C   UNL     1      45.270   7.458  12.775  0.00  0.00    +0.000 C 
ENDROOT
BRANCH   1   2
ATOM      2  N   UNL     1      45.994   8.665  12.398  0.00  0.00    +0.000 N 
ATOM      3  C   UNL     1      45.389   9.872  12.148  0.00  0.00    +0.000 A 
ATOM      4  C   UNL     1      46.351  10.748  11.704  0.00  0.00    +0.000 A 
ATOM      5  C   UNL     1      47.590  10.055  11.685  0.00  0.00    +0.000 A 
ATOM      6  C   UNL     1      48.900  10.421  11.315  0.00  0.00    +0.000 A 
ATOM      7  C   UNL     1      49.938   9.490  11.428  0.00  0.00    +0.000 A 
ATOM      8  C   UNL     1      49.672   8.212  11.905  0.00  0.00    +0.000 A 
ATOM      9  C   UNL     1      48.384   7.812  12.265  0.00  0.00    +0.000 A 
ATOM     10  C   UNL     1      47.350   8.754  12.144  0.00  0.00    +0.000 A 
BRANCH   8  11
ATOM     11  O   UNL     1      50.673   7.293  12.039  0.00  0.00    +0.000 OA
ATOM     12  H   UNL     1      50.552   6.828  12.884  0.00  0.00    +0.000 HD
ENDBRANCH   8  11
ENDBRANCH   1   2
BRANCH   1  16
ATOM     13  C   UNL     1      43.604   3.994  12.611  0.00  0.00    +0.000 C 
ATOM     14  C   UNL     1      45.109   4.237  12.822  0.00  0.00    +0.000 C 
ATOM     15  C   UNL     1      45.707   5.140  11.744  0.00  0.00    +0.000 C 
ATOM     16  C   UNL     1      44.984   6.492  11.607  0.00  0.00    +0.000 C 
ATOM     17  C   UNL     1      43.467   6.267  11.451  0.00  0.00    +0.000 C 
ATOM     18  C   UNL     1      42.879   5.348  12.525  0.00  0.00    +0.000 C 
BRANCH  13  19
ATOM     19  C   UNL     1      43.377   3.072  11.393  0.00  0.00    +0.000 C 
BRANCH  19  20
ATOM     20  N   UNL     1      42.954   1.726  11.766  0.00  0.00    +0.000 NA
ATOM     21  H   UNL     1      42.457   1.307  10.980  0.00  0.00    +0.000 HD
ATOM     22  H   UNL     1      42.273   1.777  12.522  0.00  0.00    +0.000 HD
ENDBRANCH  19  20
ENDBRANCH  13  19
ENDBRANCH   1  16
TORSDOF 5
ENDMDL
MODEL 6
REMARK VINA RESULT:    -5.248      2.284      3.270
REMARK INTER + INTRA:          -7.161
REMARK INTER:                  -6.748
REMARK INTRA:                  -0.413
REMARK UNBOUND:                -0.686
REMARK  Name = 
REMARK  5 active torsions:
REMARK  status: ('A' for Active; 'I' for Inactive)
REMARK    1  A    between atoms: N_1  and  C_2
REMARK    2  A    between atoms: C_2  and  C_3
REMARK    3  A    between atoms: C_6  and  C_7
REMARK    4  A    between atoms: C_7  and  N_8
REMARK    5  A    between atoms: C_14  and  O_15
REMARK                            x       y       z     vdW  Elec       q    Type
REMARK                         _______ _______ _______ _____ _____    ______ ____
ROOT
ATOM      1  C   UNL     1      47.451   7.094  11.768  0.00  0.00    +0.000 C 
ENDROOT
BRANCH   1   2
ATOM      2  N   UNL     1      46.661   6.016  12.347  0.00  0.00    +0.000 N 
ATOM      3  C   UNL     1      46.832   5.547  13.626  0.00  0.00    +0.000 A 
ATOM      4  C   UNL     1      46.011   4.457  13.795  0.00  0.00    +0.000 A 
ATOM      5  C   UNL     1      45.309   4.253  12.577  0.00  0.00    +0.000 A 
ATOM      6  C   UNL     1      44.361   3.301  12.153  0.00  0.00    +0.000 A 
ATOM      7  C   UNL     1      43.830   3.380  10.861  0.00  0.00    +0.000 A 
ATOM      8  C   UNL     1      44.238   4.397  10.006  0.00  0.00    +0.000 A 
ATOM      9  C   UNL     1      45.186   5.346  10.390  0.00  0.00    +0.000 A 
ATOM     10  C   UNL     1      45.715   5.255  11.687  0.00  0.00    +0.000 A 
BRANCH   8  11
ATOM     11  O   UNL     1      43.720   4.502   8.747  0.00  0.00    +0.000 OA
ATOM     12  H   UNL     1      43.538   3.607   8.415  0.00  0.00    +0.000 HD
ENDBRANCH   8  11
ENDBRANCH   1   2
BRANCH   1  16
ATOM     13  C   UNL     1      50.232   9.722  11.358  0.00  0.00    +0.000 C 
ATOM     14  C   UNL     1      50.463   8.204  11.448  0.00  0.00    +0.000 C 
ATOM     15  C   UNL     1      49.807   7.589  12.684  0.00  0.00    +0.000 C 
ATOM     16  C   UNL     1      48.300   7.884  12.786  0.00  0.00    +0.000 C 
ATOM     17  C   UNL     1      48.045   9.398  12.642  0.00  0.00    +0.000 C 
ATOM     18  C   UNL     1      48.721  10.008  11.411  0.00  0.00    +0.000 C 
BRANCH  13  19
ATOM     19  C   UNL     1      51.056  10.455  12.439  0.00  0.00    +0.000 C 
BRANCH  19  20
ATOM     20  N   UNL     1      52.476  10.119  12.400  0.00  0.00    +0.000 NA
ATOM     21  H   UNL     1      52.581   9.116  12.554  0.00  0.00    +0.000 HD
ATOM     22  H   UNL     1      52.956  10.564  13.181  0.00  0.00    +0.000 HD
ENDBRANCH  19  20
ENDBRANCH  13  19
ENDBRANCH   1  16
TORSDOF 5
ENDMDL
MODEL 7
REMARK VINA RESULT:    -5.165      2.718      3.773
REMARK INTER + INTRA:          -7.059
REMARK INTER:                  -6.405
REMARK INTRA:                  -0.654
REMARK UNBOUND:                -0.686
REMARK  Name = 
REMARK  5 active torsions:
REMARK  status: ('A' for Active; 'I' for Inactive)
REMARK    1  A    between atoms: N_1  and  C_2
REMARK    2  A    between atoms: C_2  and  C_3
REMARK    3  A    between atoms: C_6  and  C_7
REMARK    4  A    between atoms: C_7  and  N_8
REMARK    5  A    between atoms: C_14  and  O_15
REMARK                            x       y       z     vdW  Elec       q    Type
REMARK                         _______ _______ _______ _____ _____    ______ ____
ROOT
ATOM      1  C   UNL     1      47.345   6.382  13.893  0.00  0.00    +0.000 C 
ENDROOT
BRANCH   1   2
ATOM      2  N   UNL     1      46.540   5.267  13.413  0.00  0.00    +0.000 N 
ATOM      3  C   UNL     1      46.889   3.949  13.575  0.00  0.00    +0.000 A 
ATOM      4  C   UNL     1      45.972   3.177  12.900  0.00  0.00    +0.000 A 
ATOM      5  C   UNL     1      45.026   4.054  12.307  0.00  0.00    +0.000 A 
ATOM      6  C   UNL     1      43.889   3.850  11.498  0.00  0.00    +0.000 A 
ATOM      7  C   UNL     1      43.134   4.948  11.075  0.00  0.00    +0.000 A 
ATOM      8  C   UNL     1      43.506   6.232  11.455  0.00  0.00    +0.000 A 
ATOM      9  C   UNL     1      44.634   6.470  12.241  0.00  0.00    +0.000 A 
ATOM     10  C   UNL     1      45.387   5.360  12.657  0.00  0.00    +0.000 A 
BRANCH   8  11
ATOM     11  O   UNL     1      42.772   7.317  11.066  0.00  0.00    +0.000 OA
ATOM     12  H   UNL     1      43.386   8.024  10.806  0.00  0.00    +0.000 HD
ENDBRANCH   8  11
ENDBRANCH   1   2
BRANCH   1  16
ATOM     13  C   UNL     1      48.981   9.707  12.855  0.00  0.00    +0.000 C 
ATOM     14  C   UNL     1      47.864   8.994  12.073  0.00  0.00    +0.000 C 
ATOM     15  C   UNL     1      48.212   7.539  11.761  0.00  0.00    +0.000 C 
ATOM     16  C   UNL     1      48.567   6.714  13.011  0.00  0.00    +0.000 C 
ATOM     17  C   UNL     1      49.646   7.443  13.837  0.00  0.00    +0.000 C 
ATOM     18  C   UNL     1      49.297   8.905  14.129  0.00  0.00    +0.000 C 
BRANCH  13  19
ATOM     19  C   UNL     1      50.200   9.957  11.941  0.00  0.00    +0.000 C 
BRANCH  19  20
ATOM     20  N   UNL     1      49.881  10.773  10.774  0.00  0.00    +0.000 NA
ATOM     21  H   UNL     1      49.655  11.718  11.086  0.00  0.00    +0.000 HD
ATOM     22  H   UNL     1      49.032  10.424  10.332  0.00  0.00    +0.000 HD
ENDBRANCH  19  20
ENDBRANCH  13  19
ENDBRANCH   1  16
TORSDOF 5
ENDMDL
MODEL 8
REMARK VINA RESULT:    -5.111      2.885      4.067
REMARK INTER + INTRA:          -6.992
REMARK INTER:                  -6.374
REMARK INTRA:                  -0.618
REMARK UNBOUND:                -0.686
REMARK  Name = 
REMARK  5 active torsions:
REMARK  status: ('A' for Active; 'I' for Inactive)
REMARK    1  A    between atoms: N_1  and  C_2
REMARK    2  A    between atoms: C_2  and  C_3
REMARK    3  A    between atoms: C_6  and  C_7
REMARK    4  A    between atoms: C_7  and  N_8
REMARK    5  A    between atoms: C_14  and  O_15
REMARK                            x       y       z     vdW  Elec       q    Type
REMARK                         _______ _______ _______ _____ _____    ______ ____
ROOT
ATOM      1  C   UNL     1      46.607   8.428  13.282  0.00  0.00    +0.000 C 
ENDROOT
BRANCH   1   2
ATOM      2  N   UNL     1      45.864   7.417  12.541  0.00  0.00    +0.000 N 
ATOM      3  C   UNL     1      44.894   7.710  11.614  0.00  0.00    +0.000 A 
ATOM      4  C   UNL     1      44.322   6.529  11.205  0.00  0.00    +0.000 A 
ATOM      5  C   UNL     1      44.967   5.474  11.904  0.00  0.00    +0.000 A 
ATOM      6  C   UNL     1      44.801   4.074  11.912  0.00  0.00    +0.000 A 
ATOM      7  C   UNL     1      45.626   3.284  12.720  0.00  0.00    +0.000 A 
ATOM      8  C   UNL     1      46.602   3.883  13.508  0.00  0.00    +0.000 A 
ATOM      9  C   UNL     1      46.782   5.267  13.535  0.00  0.00    +0.000 A 
ATOM     10  C   UNL     1      45.946   6.050  12.722  0.00  0.00    +0.000 A 
BRANCH   8  11
ATOM     11  O   UNL     1      47.429   3.129  14.291  0.00  0.00    +0.000 OA
ATOM     12  H   UNL     1      46.897   2.442  14.725  0.00  0.00    +0.000 HD
ENDBRANCH   8  11
ENDBRANCH   1   2
BRANCH   1  16
ATOM     13  C   UNL     1      50.445   8.196  13.426  0.00  0.00    +0.000 C 
ATOM     14  C   UNL     1      49.594   9.194  14.230  0.00  0.00    +0.000 C 
ATOM     15  C   UNL     1      48.647   9.998  13.339  0.00  0.00    +0.000 C 
ATOM     16  C   UNL     1      47.726   9.119  12.475  0.00  0.00    +0.000 C 
ATOM     17  C   UNL     1      48.560   8.074  11.705  0.00  0.00    +0.000 C 
ATOM     18  C   UNL     1      49.517   7.286  12.603  0.00  0.00    +0.000 C 
BRANCH  13  19
ATOM     19  C   UNL     1      51.505   8.946  12.591  0.00  0.00    +0.000 C 
BRANCH  19  20
ATOM     20  N   UNL     1      52.531   8.065  12.044  0.00  0.00    +0.000 NA
ATOM     21  H   UNL     1      53.067   8.578  11.344  0.00  0.00    +0.000 HD
ATOM     22  H   UNL     1      52.090   7.297  11.539  0.00  0.00    +0.000 HD
ENDBRANCH  19  20
ENDBRANCH  13  19
ENDBRANCH   1  16
TORSDOF 5
ENDMDL
MODEL 9
REMARK VINA RESULT:    -4.738      4.531      7.478
REMARK INTER + INTRA:          -6.532
REMARK INTER:                  -5.997
REMARK INTRA:                  -0.535
REMARK UNBOUND:                -0.686
REMARK  Name = 
REMARK  5 active torsions:
REMARK  status: ('A' for Active; 'I' for Inactive)
REMARK    1  A    between atoms: N_1  and  C_2
REMARK    2  A    between atoms: C_2  and  C_3
REMARK    3  A    between atoms: C_6  and  C_7
REMARK    4  A    between atoms: C_7  and  N_8
REMARK    5  A    between atoms: C_14  and  O_15
REMARK                            x       y       z     vdW  Elec       q    Type
REMARK                         _______ _______ _______ _____ _____    ______ ____
ROOT
ATOM      1  C   UNL     1      46.786   4.413  15.298  0.00  0.00    +0.000 C 
ENDROOT
BRANCH   1   2
ATOM      2  N   UNL     1      47.886   4.025  16.172  0.00  0.00    +0.000 N 
ATOM      3  C   UNL     1      48.220   2.721  16.445  0.00  0.00    +0.000 A 
ATOM      4  C   UNL     1      49.217   2.725  17.392  0.00  0.00    +0.000 A 
ATOM      5  C   UNL     1      49.506   4.078  17.708  0.00  0.00    +0.000 A 
ATOM      6  C   UNL     1      50.405   4.694  18.603  0.00  0.00    +0.000 A 
ATOM      7  C   UNL     1      50.465   6.090  18.673  0.00  0.00    +0.000 A 
ATOM      8  C   UNL     1      49.641   6.860  17.861  0.00  0.00    +0.000 A 
ATOM      9  C   UNL     1      48.729   6.282  16.976  0.00  0.00    +0.000 A 
ATOM     10  C   UNL     1      48.675   4.880  16.917  0.00  0.00    +0.000 A 
BRANCH   8  11
ATOM     11  O   UNL     1      49.696   8.224  17.902  0.00  0.00    +0.000 OA
ATOM     12  H   UNL     1      49.196   8.573  17.145  0.00  0.00    +0.000 HD
ENDBRANCH   8  11
ENDBRANCH   1   2
BRANCH   1  16
ATOM     13  C   UNL     1      45.171   5.974  12.175  0.00  0.00    +0.000 C 
ATOM     14  C   UNL     1      44.751   4.635  12.806  0.00  0.00    +0.000 C 
ATOM     15  C   UNL     1      45.931   3.681  12.982  0.00  0.00    +0.000 C 
ATOM     16  C   UNL     1      47.092   4.287  13.791  0.00  0.00    +0.000 C 
ATOM     17  C   UNL     1      47.488   5.656  13.204  0.00  0.00    +0.000 C 
ATOM     18  C   UNL     1      46.297   6.599  13.016  0.00  0.00    +0.000 C 
BRANCH  13  19
ATOM     19  C   UNL     1      45.524   5.775  10.684  0.00  0.00    +0.000 C 
BRANCH  19  20
ATOM     20  N   UNL     1      44.448   5.154   9.920  0.00  0.00    +0.000 NA
ATOM     21  H   UNL     1      43.694   5.831   9.803  0.00  0.00    +0.000 HD
ATOM     22  H   UNL     1      44.043   4.387  10.456  0.00  0.00    +0.000 HD
ENDBRANCH  19  20
ENDBRANCH  13  19
ENDBRANCH   1  16
TORSDOF 5
ENDMDL
