MODEL 1
REMARK VINA RESULT:    -6.421      0.000      0.000
REMARK INTER + INTRA:          -9.711
REMARK INTER:                  -8.673
REMARK INTRA:                  -1.038
REMARK UNBOUND:                -1.038
REMARK  Name = 
REMARK  6 active torsions:
REMARK  status: ('A' for Active; 'I' for Inactive)
REMARK    1  A    between atoms: C_2  and  C_3
REMARK    2  A    between atoms: C_6  and  C_7
REMARK    3  A    between atoms: C_9  and  C_10
REMARK    4  A    between atoms: C_10  and  N_11
REMARK    5  A    between atoms: N_11  and  C_12
REMARK    6  A    between atoms: C_15  and  C_16
REMARK                            x       y       z     vdW  Elec       q    Type
REMARK                         _______ _______ _______ _____ _____    ______ ____
ROOT
ATOM      1  C   UNL     1      49.107   5.661  18.163  0.00  0.00    +0.000 C 
ATOM      2  C   UNL     1      47.721   5.417  18.720  0.00  0.00    +0.000 C 
ATOM      3  C   UNL     1      48.460   6.635  19.149  0.00  0.00    +0.000 C 
ENDROOT
BRANCH   1   6
ATOM      4  C   UNL     1      48.309   6.201  14.452  0.00  0.00    +0.000 A 
ATOM      5  C   UNL     1      48.239   5.727  15.764  0.00  0.00    +0.000 A 
ATOM      6  C   UNL     1      49.203   6.106  16.706  0.00  0.00    +0.000 A 
ATOM      7  C   UNL     1      50.253   6.911  16.250  0.00  0.00    +0.000 A 
ATOM      8  C   UNL     1      50.255   7.353  14.942  0.00  0.00    +0.000 A 
ATOM      9  N   UNL     1      49.311   7.020  14.044  0.00  0.00    +0.000 NA
BRANCH   4  13
ATOM     10  C   UNL     1      45.396   5.150  11.461  0.00  0.00    +0.000 A 
ATOM     11  C   UNL     1      46.231   6.253  11.264  0.00  0.00    +0.000 A 
ATOM     12  C   UNL     1      47.180   6.594  12.231  0.00  0.00    +0.000 A 
ATOM     13  C   UNL     1      47.317   5.852  13.418  0.00  0.00    +0.000 A 
ATOM     14  C   UNL     1      46.469   4.739  13.588  0.00  0.00    +0.000 A 
ATOM     15  C   UNL     1      45.518   4.392  12.627  0.00  0.00    +0.000 A 
BRANCH  10  17
ATOM     16  N   UNL     1      43.641   4.514   9.666  0.00  0.00    +0.000 NA
ATOM     17  C   UNL     1      44.424   4.800  10.471  0.00  0.00    +0.000 C 
ENDBRANCH  10  17
ENDBRANCH   4  13
ENDBRANCH   1   6
BRANCH   1  18
ATOM     18  N   UNL     1      50.361   5.088  18.648  0.00  0.00    +0.000 N 
ATOM     19  H   UNL     1      50.889   5.675  19.286  0.00  0.00    +0.000 HD
BRANCH  18  20
ATOM     20  C   UNL     1      51.043   3.922  18.270  0.00  0.00    +0.000 A 
ATOM     21  C   UNL     1      50.500   2.865  17.539  0.00  0.00    +0.000 A 
ATOM     22  C   UNL     1      51.242   1.691  17.317  0.00  0.00    +0.000 A 
ATOM     23  C   UNL     1      52.553   1.575  17.795  0.00  0.00    +0.000 A 
ATOM     24  C   UNL     1      53.121   2.638  18.492  0.00  0.00    +0.000 A 
ATOM     25  C   UNL     1      52.367   3.790  18.728  0.00  0.00    +0.000 A 
BRANCH  23  26
ATOM     26  C   UNL     1      53.287   0.298  17.604  0.00  0.00    +0.000 C 
ATOM     27  N   UNL     1      53.115  -0.677  18.548  0.00  0.00    +0.000 N 
ATOM     28  O   UNL     1      54.025   0.121  16.643  0.00  0.00    +0.000 OA
ATOM     29  H   UNL     1      52.619  -0.543  19.416  0.00  0.00    +0.000 HD
ATOM     30  H   UNL     1      53.641  -1.533  18.427  0.00  0.00    +0.000 HD
ENDBRANCH  23  26
ENDBRANCH  18  20
ENDBRANCH   1  18
TORSDOF 6
ENDMDL
MODEL 2
REMARK VINA RESULT:    -6.387      3.014      8.367
REMARK INTER + INTRA:          -9.666
REMARK INTER:                  -8.782
REMARK INTRA:                  -0.884
REMARK UNBOUND:                -1.038
REMARK  Name = 
REMARK  6 active torsions:
REMARK  status: ('A' for Active; 'I' for Inactive)
REMARK    1  A    between atoms: C_2  and  C_3
REMARK    2  A    between atoms: C_6  and  C_7
REMARK    3  A    between atoms: C_9  and  C_10
REMARK    4  A    between atoms: C_10  and  N_11
REMARK    5  A    between atoms: N_11  and  C_12
REMARK    6  A    between atoms: C_15  and  C_16
REMARK                            x       y       z     vdW  Elec       q    Type
REMARK                         _______ _______ _______ _____ _____    ______ ____
ROOT
ATOM      1  C   UNL     1      47.857   7.921  12.874  0.00  0.00    +0.000 C 
ATOM      2  C   UNL     1      48.909   7.675  11.814  0.00  0.00    +0.000 C 
ATOM      3  C   UNL     1      48.357   9.047  11.968  0.00  0.00    +0.000 C 
ENDROOT
BRANCH   1   6
ATOM      4  C   UNL     1      49.585   6.975  16.164  0.00  0.00    +0.000 A 
ATOM      5  C   UNL     1      49.114   6.907  14.850  0.00  0.00    +0.000 A 
ATOM      6  C   UNL     1      48.323   7.938  14.328  0.00  0.00    +0.000 A 
ATOM      7  C   UNL     1      47.983   8.979  15.198  0.00  0.00    +0.000 A 
ATOM      8  C   UNL     1      48.492   8.990  16.481  0.00  0.00    +0.000 A 
ATOM      9  N   UNL     1      49.283   8.020  16.975  0.00  0.00    +0.000 NA
BRANCH   4  13
ATOM     10  C   UNL     1      52.029   3.902  17.929  0.00  0.00    +0.000 A 
ATOM     11  C   UNL     1      52.626   5.052  17.404  0.00  0.00    +0.000 A 
ATOM     12  C   UNL     1      51.835   6.053  16.835  0.00  0.00    +0.000 A 
ATOM     13  C   UNL     1      50.435   5.932  16.767  0.00  0.00    +0.000 A 
ATOM     14  C   UNL     1      49.859   4.766  17.310  0.00  0.00    +0.000 A 
ATOM     15  C   UNL     1      50.642   3.762  17.882  0.00  0.00    +0.000 A 
BRANCH  10  17
ATOM     16  N   UNL     1      53.494   2.049  18.991  0.00  0.00    +0.000 NA
ATOM     17  C   UNL     1      52.839   2.877  18.513  0.00  0.00    +0.000 C 
ENDBRANCH  10  17
ENDBRANCH   4  13
ENDBRANCH   1   6
BRANCH   1  18
ATOM     18  N   UNL     1      46.420   7.674  12.759  0.00  0.00    +0.000 N 
ATOM     19  H   UNL     1      45.823   8.425  13.089  0.00  0.00    +0.000 HD
BRANCH  18  20
ATOM     20  C   UNL     1      45.716   6.515  12.405  0.00  0.00    +0.000 A 
ATOM     21  C   UNL     1      45.196   5.577  13.297  0.00  0.00    +0.000 A 
ATOM     22  C   UNL     1      44.608   4.389  12.825  0.00  0.00    +0.000 A 
ATOM     23  C   UNL     1      44.502   4.141  11.452  0.00  0.00    +0.000 A 
ATOM     24  C   UNL     1      44.981   5.088  10.550  0.00  0.00    +0.000 A 
ATOM     25  C   UNL     1      45.585   6.253  11.028  0.00  0.00    +0.000 A 
BRANCH  23  26
ATOM     26  C   UNL     1      43.938   2.848  10.986  0.00  0.00    +0.000 C 
ATOM     27  N   UNL     1      44.565   2.226   9.942  0.00  0.00    +0.000 N 
ATOM     28  O   UNL     1      42.946   2.357  11.509  0.00  0.00    +0.000 OA
ATOM     29  H   UNL     1      45.307   2.640   9.400  0.00  0.00    +0.000 HD
ATOM     30  H   UNL     1      44.158   1.360   9.612  0.00  0.00    +0.000 HD
ENDBRANCH  23  26
ENDBRANCH  18  20
ENDBRANCH   1  18
TORSDOF 6
ENDMDL
MODEL 3
REMARK VINA RESULT:    -5.932      3.018      8.324
REMARK INTER + INTRA:          -9.051
REMARK INTER:                  -8.151
REMARK INTRA:                  -0.900
REMARK UNBOUND:                -1.038
REMARK  Name = 
REMARK  6 active torsions:
REMARK  status: ('A' for Active; 'I' for Inactive)
REMARK    1  A    between atoms: C_2  and  C_3
REMARK    2  A    between atoms: C_6  and  C_7
REMARK    3  A    between atoms: C_9  and  C_10
REMARK    4  A    between atoms: C_10  and  N_11
REMARK    5  A    between atoms: N_11  and  C_12
REMARK    6  A    between atoms: C_15  and  C_16
REMARK                            x       y       z     vdW  Elec       q    Type
REMARK                         _______ _______ _______ _____ _____    ______ ____
ROOT
ATOM      1  C   UNL     1      48.461   8.770  14.503  0.00  0.00    +0.000 C 
ATOM      2  C   UNL     1      49.674   8.989  13.625  0.00  0.00    +0.000 C 
ATOM      3  C   UNL     1      49.059  10.163  14.301  0.00  0.00    +0.000 C 
ENDROOT
BRANCH   1   6
ATOM      4  C   UNL     1      49.612   6.310  17.210  0.00  0.00    +0.000 A 
ATOM      5  C   UNL     1      49.351   6.871  15.957  0.00  0.00    +0.000 A 
ATOM      6  C   UNL     1      48.692   8.102  15.856  0.00  0.00    +0.000 A 
ATOM      7  C   UNL     1      48.257   8.688  17.050  0.00  0.00    +0.000 A 
ATOM      8  C   UNL     1      48.557   8.085  18.255  0.00  0.00    +0.000 A 
ATOM      9  N   UNL     1      49.223   6.921  18.357  0.00  0.00    +0.000 NA
BRANCH   4  13
ATOM     10  C   UNL     1      51.630   2.540  17.707  0.00  0.00    +0.000 A 
ATOM     11  C   UNL     1      52.355   3.733  17.768  0.00  0.00    +0.000 A 
ATOM     12  C   UNL     1      51.702   4.957  17.612  0.00  0.00    +0.000 A 
ATOM     13  C   UNL     1      50.316   5.026  17.383  0.00  0.00    +0.000 A 
ATOM     14  C   UNL     1      49.607   3.809  17.335  0.00  0.00    +0.000 A 
ATOM     15  C   UNL     1      50.252   2.581  17.491  0.00  0.00    +0.000 A 
BRANCH  10  17
ATOM     16  N   UNL     1      52.842   0.271  18.004  0.00  0.00    +0.000 NA
ATOM     17  C   UNL     1      52.299   1.285  17.868  0.00  0.00    +0.000 C 
ENDBRANCH  10  17
ENDBRANCH   4  13
ENDBRANCH   1   6
BRANCH   1  18
ATOM     18  N   UNL     1      47.070   8.665  14.067  0.00  0.00    +0.000 N 
ATOM     19  H   UNL     1      46.427   9.316  14.506  0.00  0.00    +0.000 HD
BRANCH  18  20
ATOM     20  C   UNL     1      46.434   7.718  13.250  0.00  0.00    +0.000 A 
ATOM     21  C   UNL     1      46.793   6.375  13.134  0.00  0.00    +0.000 A 
ATOM     22  C   UNL     1      46.159   5.543  12.194  0.00  0.00    +0.000 A 
ATOM     23  C   UNL     1      45.131   6.037  11.382  0.00  0.00    +0.000 A 
ATOM     24  C   UNL     1      44.736   7.366  11.516  0.00  0.00    +0.000 A 
ATOM     25  C   UNL     1      45.389   8.190  12.435  0.00  0.00    +0.000 A 
BRANCH  23  26
ATOM     26  C   UNL     1      44.527   5.153  10.353  0.00  0.00    +0.000 C 
ATOM     27  N   UNL     1      45.236   4.949   9.201  0.00  0.00    +0.000 N 
ATOM     28  O   UNL     1      43.433   4.629  10.521  0.00  0.00    +0.000 OA
ATOM     29  H   UNL     1      46.079   5.447   8.960  0.00  0.00    +0.000 HD
ATOM     30  H   UNL     1      44.805   4.369   8.492  0.00  0.00    +0.000 HD
ENDBRANCH  23  26
ENDBRANCH  18  20
ENDBRANCH   1  18
TORSDOF 6
ENDMDL
MODEL 4
REMARK VINA RESULT:    -5.767      6.031      8.044
REMARK INTER + INTRA:          -8.828
REMARK INTER:                  -8.153
REMARK INTRA:                  -0.675
REMARK UNBOUND:                -1.038
REMARK  Name = 
REMARK  6 active torsions:
REMARK  status: ('A' for Active; 'I' for Inactive)
REMARK    1  A    between atoms: C_2  and  C_3
REMARK    2  A    between atoms: C_6  and  C_7
REMARK    3  A    between atoms: C_9  and  C_10
REMARK    4  A    between atoms: C_10  and  N_11
REMARK    5  A    between atoms: N_11  and  C_12
REMARK    6  A    between atoms: C_15  and  C_16
REMARK                            x       y       z     vdW  Elec       q    Type
REMARK                         _______ _______ _______ _____ _____    ______ ____
ROOT
ATOM      1  C   UNL     1      44.060   8.318  11.715  0.00  0.00    +0.000 C 
ATOM      2  C   UNL     1      42.918   9.274  11.444  0.00  0.00    +0.000 C 
ATOM      3  C   UNL     1      44.109   9.312  10.553  0.00  0.00    +0.000 C 
ENDROOT
BRANCH   1   6
ATOM      4  C   UNL     1      44.455   4.835  10.160  0.00  0.00    +0.000 A 
ATOM      5  C   UNL     1      44.632   6.197  10.415  0.00  0.00    +0.000 A 
ATOM      6  C   UNL     1      43.836   6.849  11.365  0.00  0.00    +0.000 A 
ATOM      7  C   UNL     1      42.831   6.092  11.977  0.00  0.00    +0.000 A 
ATOM      8  C   UNL     1      42.717   4.747  11.685  0.00  0.00    +0.000 A 
ATOM      9  N   UNL     1      43.504   4.109  10.801  0.00  0.00    +0.000 NA
BRANCH   4  13
ATOM     10  C   UNL     1      46.857   2.693   7.301  0.00  0.00    +0.000 A 
ATOM     11  C   UNL     1      46.047   1.991   8.197  0.00  0.00    +0.000 A 
ATOM     12  C   UNL     1      45.263   2.683   9.122  0.00  0.00    +0.000 A 
ATOM     13  C   UNL     1      45.271   4.088   9.185  0.00  0.00    +0.000 A 
ATOM     14  C   UNL     1      46.090   4.773   8.264  0.00  0.00    +0.000 A 
ATOM     15  C   UNL     1      46.876   4.088   7.336  0.00  0.00    +0.000 A 
BRANCH  10  17
ATOM     16  N   UNL     1      48.314   1.409   5.588  0.00  0.00    +0.000 NA
ATOM     17  C   UNL     1      47.660   1.984   6.352  0.00  0.00    +0.000 C 
ENDBRANCH  10  17
ENDBRANCH   4  13
ENDBRANCH   1   6
BRANCH   1  18
ATOM     18  N   UNL     1      45.143   8.496  12.680  0.00  0.00    +0.000 N 
ATOM     19  H   UNL     1      44.853   8.781  13.610  0.00  0.00    +0.000 HD
BRANCH  18  20
ATOM     20  C   UNL     1      46.535   8.486  12.507  0.00  0.00    +0.000 A 
ATOM     21  C   UNL     1      47.323   9.595  12.201  0.00  0.00    +0.000 A 
ATOM     22  C   UNL     1      48.696   9.447  11.935  0.00  0.00    +0.000 A 
ATOM     23  C   UNL     1      49.305   8.189  12.005  0.00  0.00    +0.000 A 
ATOM     24  C   UNL     1      48.537   7.079  12.348  0.00  0.00    +0.000 A 
ATOM     25  C   UNL     1      47.170   7.233  12.587  0.00  0.00    +0.000 A 
BRANCH  23  26
ATOM     26  C   UNL     1      50.742   8.054  11.652  0.00  0.00    +0.000 C 
ATOM     27  N   UNL     1      51.648   8.716  12.433  0.00  0.00    +0.000 N 
ATOM     28  O   UNL     1      51.106   7.382  10.696  0.00  0.00    +0.000 OA
ATOM     29  H   UNL     1      51.399   9.376  13.154  0.00  0.00    +0.000 HD
ATOM     30  H   UNL     1      52.623   8.643  12.169  0.00  0.00    +0.000 HD
ENDBRANCH  23  26
ENDBRANCH  18  20
ENDBRANCH   1  18
TORSDOF 6
ENDMDL
MODEL 5
REMARK VINA RESULT:    -5.685      4.014      8.796
REMARK INTER + INTRA:          -8.718
REMARK INTER:                  -7.709
REMARK INTRA:                  -1.009
REMARK UNBOUND:                -1.038
REMARK  Name = 
REMARK  6 active torsions:
REMARK  status: ('A' for Active; 'I' for Inactive)
REMARK    1  A    between atoms: C_2  and  C_3
REMARK    2  A    between atoms: C_6  and  C_7
REMARK    3  A    between atoms: C_9  and  C_10
REMARK    4  A    between atoms: C_10  and  N_11
REMARK    5  A    between atoms: N_11  and  C_12
REMARK    6  A    between atoms: C_15  and  C_16
REMARK                            x       y       z     vdW  Elec       q    Type
REMARK                         _______ _______ _______ _____ _____    ______ ____
ROOT
ATOM      1  C   UNL     1      45.039   9.246  11.842  0.00  0.00    +0.000 C 
ATOM      2  C   UNL     1      44.693  10.199  10.718  0.00  0.00    +0.000 C 
ATOM      3  C   UNL     1      44.045  10.391  12.043  0.00  0.00    +0.000 C 
ENDROOT
BRANCH   1   6
ATOM      4  C   UNL     1      48.047   8.794  14.177  0.00  0.00    +0.000 A 
ATOM      5  C   UNL     1      46.760   8.692  13.644  0.00  0.00    +0.000 A 
ATOM      6  C   UNL     1      46.416   9.398  12.485  0.00  0.00    +0.000 A 
ATOM      7  C   UNL     1      47.390  10.245  11.946  0.00  0.00    +0.000 A 
ATOM      8  C   UNL     1      48.646  10.290  12.517  0.00  0.00    +0.000 A 
ATOM      9  N   UNL     1      48.992   9.585  13.609  0.00  0.00    +0.000 NA
BRANCH   4  13
ATOM     10  C   UNL     1      49.302   6.624  17.677  0.00  0.00    +0.000 A 
ATOM     11  C   UNL     1      49.121   8.008  17.742  0.00  0.00    +0.000 A 
ATOM     12  C   UNL     1      48.709   8.714  16.610  0.00  0.00    +0.000 A 
ATOM     13  C   UNL     1      48.476   8.063  15.384  0.00  0.00    +0.000 A 
ATOM     14  C   UNL     1      48.658   6.666  15.348  0.00  0.00    +0.000 A 
ATOM     15  C   UNL     1      49.069   5.953  16.476  0.00  0.00    +0.000 A 
BRANCH  10  17
ATOM     16  N   UNL     1      50.059   5.312  19.778  0.00  0.00    +0.000 NA
ATOM     17  C   UNL     1      49.724   5.901  18.838  0.00  0.00    +0.000 C 
ENDBRANCH  10  17
ENDBRANCH   4  13
ENDBRANCH   1   6
BRANCH   1  18
ATOM     18  N   UNL     1      44.462   7.925  12.081  0.00  0.00    +0.000 N 
ATOM     19  H   UNL     1      43.959   7.823  12.957  0.00  0.00    +0.000 HD
BRANCH  18  20
ATOM     20  C   UNL     1      44.606   6.721  11.377  0.00  0.00    +0.000 A 
ATOM     21  C   UNL     1      45.742   6.325  10.670  0.00  0.00    +0.000 A 
ATOM     22  C   UNL     1      45.732   5.146   9.902  0.00  0.00    +0.000 A 
ATOM     23  C   UNL     1      44.596   4.331   9.859  0.00  0.00    +0.000 A 
ATOM     24  C   UNL     1      43.469   4.695  10.592  0.00  0.00    +0.000 A 
ATOM     25  C   UNL     1      43.479   5.879  11.332  0.00  0.00    +0.000 A 
BRANCH  23  26
ATOM     26  C   UNL     1      44.593   3.129   8.986  0.00  0.00    +0.000 C 
ATOM     27  N   UNL     1      44.551   1.906   9.596  0.00  0.00    +0.000 N 
ATOM     28  O   UNL     1      44.634   3.224   7.766  0.00  0.00    +0.000 OA
ATOM     29  H   UNL     1      44.638   1.766  10.591  0.00  0.00    +0.000 HD
ATOM     30  H   UNL     1      44.579   1.091   8.995  0.00  0.00    +0.000 HD
ENDBRANCH  23  26
ENDBRANCH  18  20
ENDBRANCH   1  18
TORSDOF 6
ENDMDL
MODEL 6
REMARK VINA RESULT:    -5.623      3.185      5.652
REMARK INTER + INTRA:          -8.634
REMARK INTER:                  -7.711
REMARK INTRA:                  -0.923
REMARK UNBOUND:                -1.038
REMARK  Name = 
REMARK  6 active torsions:
REMARK  status: ('A' for Active; 'I' for Inactive)
REMARK    1  A    between atoms: C_2  and  C_3
REMARK    2  A    between atoms: C_6  and  C_7
REMARK    3  A    between atoms: C_9  and  C_10
REMARK    4  A    between atoms: C_10  and  N_11
REMARK    5  A    between atoms: N_11  and  C_12
REMARK    6  A    between atoms: C_15  and  C_16
REMARK                            x       y       z     vdW  Elec       q    Type
REMARK                         _______ _______ _______ _____ _____    ______ ____
ROOT
ATOM      1  C   UNL     1      46.166   4.712  13.683  0.00  0.00    +0.000 C 
ATOM      2  C   UNL     1      46.344   3.562  12.715  0.00  0.00    +0.000 C 
ATOM      3  C   UNL     1      44.971   3.907  13.171  0.00  0.00    +0.000 C 
ENDROOT
BRANCH   1   6
ATOM      4  C   UNL     1      47.734   7.866  12.166  0.00  0.00    +0.000 A 
ATOM      5  C   UNL     1      47.603   6.596  12.734  0.00  0.00    +0.000 A 
ATOM      6  C   UNL     1      46.345   6.123  13.128  0.00  0.00    +0.000 A 
ATOM      7  C   UNL     1      45.265   7.001  12.987  0.00  0.00    +0.000 A 
ATOM      8  C   UNL     1      45.463   8.238  12.407  0.00  0.00    +0.000 A 
ATOM      9  N   UNL     1      46.664   8.682  11.994  0.00  0.00    +0.000 NA
BRANCH   4  13
ATOM     10  C   UNL     1      51.523   9.426  10.848  0.00  0.00    +0.000 A 
ATOM     11  C   UNL     1      50.460  10.297  11.099  0.00  0.00    +0.000 A 
ATOM     12  C   UNL     1      49.231   9.794  11.532  0.00  0.00    +0.000 A 
ATOM     13  C   UNL     1      49.026   8.415  11.716  0.00  0.00    +0.000 A 
ATOM     14  C   UNL     1      50.118   7.559  11.464  0.00  0.00    +0.000 A 
ATOM     15  C   UNL     1      51.350   8.054  11.032  0.00  0.00    +0.000 A 
BRANCH  10  17
ATOM     16  N   UNL     1      53.806  10.358  10.054  0.00  0.00    +0.000 NA
ATOM     17  C   UNL     1      52.783   9.942  10.406  0.00  0.00    +0.000 C 
ENDBRANCH  10  17
ENDBRANCH   4  13
ENDBRANCH   1   6
BRANCH   1  18
ATOM     18  N   UNL     1      46.319   4.668  15.136  0.00  0.00    +0.000 N 
ATOM     19  H   UNL     1      45.493   4.923  15.667  0.00  0.00    +0.000 HD
BRANCH  18  20
ATOM     20  C   UNL     1      47.458   4.476  15.932  0.00  0.00    +0.000 A 
ATOM     21  C   UNL     1      48.329   5.479  16.358  0.00  0.00    +0.000 A 
ATOM     22  C   UNL     1      49.506   5.156  17.056  0.00  0.00    +0.000 A 
ATOM     23  C   UNL     1      49.810   3.825  17.367  0.00  0.00    +0.000 A 
ATOM     24  C   UNL     1      48.929   2.818  16.982  0.00  0.00    +0.000 A 
ATOM     25  C   UNL     1      47.774   3.147  16.268  0.00  0.00    +0.000 A 
BRANCH  23  26
ATOM     26  C   UNL     1      51.093   3.510  18.046  0.00  0.00    +0.000 C 
ATOM     27  N   UNL     1      51.499   2.203  18.052  0.00  0.00    +0.000 N 
ATOM     28  O   UNL     1      51.762   4.380  18.585  0.00  0.00    +0.000 OA
ATOM     29  H   UNL     1      50.932   1.434  17.731  0.00  0.00    +0.000 HD
ATOM     30  H   UNL     1      52.359   1.992  18.541  0.00  0.00    +0.000 HD
ENDBRANCH  23  26
ENDBRANCH  18  20
ENDBRANCH   1  18
TORSDOF 6
ENDMDL
MODEL 7
REMARK VINA RESULT:    -5.527      5.587      7.362
REMARK INTER + INTRA:          -8.504
REMARK INTER:                  -7.468
REMARK INTRA:                  -1.036
REMARK UNBOUND:                -1.038
REMARK  Name = 
REMARK  6 active torsions:
REMARK  status: ('A' for Active; 'I' for Inactive)
REMARK    1  A    between atoms: C_2  and  C_3
REMARK    2  A    between atoms: C_6  and  C_7
REMARK    3  A    between atoms: C_9  and  C_10
REMARK    4  A    between atoms: C_10  and  N_11
REMARK    5  A    between atoms: N_11  and  C_12
REMARK    6  A    between atoms: C_15  and  C_16
REMARK                            x       y       z     vdW  Elec       q    Type
REMARK                         _______ _______ _______ _____ _____    ______ ____
ROOT
ATOM      1  C   UNL     1      50.490   8.850  13.183  0.00  0.00    +0.000 C 
ATOM      2  C   UNL     1      50.818   7.914  14.328  0.00  0.00    +0.000 C 
ATOM      3  C   UNL     1      50.772   9.378  14.591  0.00  0.00    +0.000 C 
ENDROOT
BRANCH   1   6
ATOM      4  C   UNL     1      46.951   7.761  12.184  0.00  0.00    +0.000 A 
ATOM      5  C   UNL     1      48.296   7.704  12.558  0.00  0.00    +0.000 A 
ATOM      6  C   UNL     1      49.041   8.882  12.705  0.00  0.00    +0.000 A 
ATOM      7  C   UNL     1      48.395  10.083  12.394  0.00  0.00    +0.000 A 
ATOM      8  C   UNL     1      47.060  10.068  12.040  0.00  0.00    +0.000 A 
ATOM      9  N   UNL     1      46.332   8.942  11.934  0.00  0.00    +0.000 NA
BRANCH   4  13
ATOM     10  C   UNL     1      44.488   4.255  11.777  0.00  0.00    +0.000 A 
ATOM     11  C   UNL     1      44.961   4.910  10.637  0.00  0.00    +0.000 A 
ATOM     12  C   UNL     1      45.765   6.045  10.766  0.00  0.00    +0.000 A 
ATOM     13  C   UNL     1      46.110   6.561  12.029  0.00  0.00    +0.000 A 
ATOM     14  C   UNL     1      45.626   5.875  13.162  0.00  0.00    +0.000 A 
ATOM     15  C   UNL     1      44.823   4.740  13.041  0.00  0.00    +0.000 A 
BRANCH  10  17
ATOM     16  N   UNL     1      43.005   2.145  11.538  0.00  0.00    +0.000 NA
ATOM     17  C   UNL     1      43.665   3.091  11.644  0.00  0.00    +0.000 C 
ENDBRANCH  10  17
ENDBRANCH   4  13
ENDBRANCH   1   6
BRANCH   1  18
ATOM     18  N   UNL     1      51.415   9.360  12.174  0.00  0.00    +0.000 N 
ATOM     19  H   UNL     1      51.764  10.298  12.339  0.00  0.00    +0.000 HD
BRANCH  18  20
ATOM     20  C   UNL     1      51.796   8.833  10.931  0.00  0.00    +0.000 A 
ATOM     21  C   UNL     1      51.720   7.491  10.560  0.00  0.00    +0.000 A 
ATOM     22  C   UNL     1      52.240   7.058   9.327  0.00  0.00    +0.000 A 
ATOM     23  C   UNL     1      52.813   7.970   8.433  0.00  0.00    +0.000 A 
ATOM     24  C   UNL     1      52.860   9.319   8.775  0.00  0.00    +0.000 A 
ATOM     25  C   UNL     1      52.362   9.736  10.011  0.00  0.00    +0.000 A 
BRANCH  23  26
ATOM     26  C   UNL     1      53.414   7.473   7.169  0.00  0.00    +0.000 C 
ATOM     27  N   UNL     1      54.583   8.052   6.757  0.00  0.00    +0.000 N 
ATOM     28  O   UNL     1      52.885   6.585   6.515  0.00  0.00    +0.000 OA
ATOM     29  H   UNL     1      54.996   8.863   7.189  0.00  0.00    +0.000 HD
ATOM     30  H   UNL     1      54.972   7.728   5.880  0.00  0.00    +0.000 HD
ENDBRANCH  23  26
ENDBRANCH  18  20
ENDBRANCH   1  18
TORSDOF 6
ENDMDL
MODEL 8
REMARK VINA RESULT:    -4.896      3.452      8.752
REMARK INTER + INTRA:          -7.652
REMARK INTER:                  -6.592
REMARK INTRA:                  -1.059
REMARK UNBOUND:                -1.038
REMARK  Name = 
REMARK  6 active torsions:
REMARK  status: ('A' for Active; 'I' for Inactive)
REMARK    1  A    between atoms: C_2  and  C_3
REMARK    2  A    between atoms: C_6  and  C_7
REMARK    3  A    between atoms: C_9  and  C_10
REMARK    4  A    between atoms: C_10  and  N_11
REMARK    5  A    between atoms: N_11  and  C_12
REMARK    6  A    between atoms: C_15  and  C_16
REMARK                            x       y       z     vdW  Elec       q    Type
REMARK                         _______ _______ _______ _____ _____    ______ ____
ROOT
ATOM      1  C   UNL     1      47.520  10.006  12.278  0.00  0.00    +0.000 C 
ATOM      2  C   UNL     1      47.392  10.881  11.049  0.00  0.00    +0.000 C 
ATOM      3  C   UNL     1      47.303  11.516  12.391  0.00  0.00    +0.000 C 
ENDROOT
BRANCH   1   6
ATOM      4  C   UNL     1      50.410   8.189  14.024  0.00  0.00    +0.000 A 
ATOM      5  C   UNL     1      49.143   8.721  13.770  0.00  0.00    +0.000 A 
ATOM      6  C   UNL     1      48.911   9.476  12.614  0.00  0.00    +0.000 A 
ATOM      7  C   UNL     1      50.011   9.719  11.784  0.00  0.00    +0.000 A 
ATOM      8  C   UNL     1      51.233   9.153  12.088  0.00  0.00    +0.000 A 
ATOM      9  N   UNL     1      51.451   8.397  13.179  0.00  0.00    +0.000 NA
BRANCH   4  13
ATOM     10  C   UNL     1      51.340   5.821  17.497  0.00  0.00    +0.000 A 
ATOM     11  C   UNL     1      50.019   5.921  17.055  0.00  0.00    +0.000 A 
ATOM     12  C   UNL     1      49.714   6.685  15.925  0.00  0.00    +0.000 A 
ATOM     13  C   UNL     1      50.714   7.373  15.214  0.00  0.00    +0.000 A 
ATOM     14  C   UNL     1      52.040   7.249  15.677  0.00  0.00    +0.000 A 
ATOM     15  C   UNL     1      52.352   6.487  16.804  0.00  0.00    +0.000 A 
BRANCH  10  17
ATOM     16  N   UNL     1      51.909   4.401  19.586  0.00  0.00    +0.000 NA
ATOM     17  C   UNL     1      51.652   5.038  18.653  0.00  0.00    +0.000 C 
ENDBRANCH  10  17
ENDBRANCH   4  13
ENDBRANCH   1   6
BRANCH   1  18
ATOM     18  N   UNL     1      46.462   9.217  12.907  0.00  0.00    +0.000 N 
ATOM     19  H   UNL     1      46.229   9.484  13.858  0.00  0.00    +0.000 HD
BRANCH  18  20
ATOM     20  C   UNL     1      45.810   8.052  12.478  0.00  0.00    +0.000 A 
ATOM     21  C   UNL     1      46.218   6.746  12.749  0.00  0.00    +0.000 A 
ATOM     22  C   UNL     1      45.552   5.652  12.168  0.00  0.00    +0.000 A 
ATOM     23  C   UNL     1      44.445   5.851  11.334  0.00  0.00    +0.000 A 
ATOM     24  C   UNL     1      44.004   7.148  11.087  0.00  0.00    +0.000 A 
ATOM     25  C   UNL     1      44.687   8.229  11.649  0.00  0.00    +0.000 A 
BRANCH  23  26
ATOM     26  C   UNL     1      43.805   4.680  10.682  0.00  0.00    +0.000 C 
ATOM     27  N   UNL     1      43.906   4.583   9.321  0.00  0.00    +0.000 N 
ATOM     28  O   UNL     1      43.204   3.835  11.331  0.00  0.00    +0.000 OA
ATOM     29  H   UNL     1      44.282   5.307   8.728  0.00  0.00    +0.000 HD
ATOM     30  H   UNL     1      43.443   3.798   8.880  0.00  0.00    +0.000 HD
ENDBRANCH  23  26
ENDBRANCH  18  20
ENDBRANCH   1  18
TORSDOF 6
ENDMDL
