MODEL 1
REMARK VINA RESULT:    -8.414      0.000      0.000
REMARK INTER + INTRA:         -13.271
REMARK INTER:                 -11.857
REMARK INTRA:                  -1.414
REMARK UNBOUND:                -1.414
REMARK  Name = 
REMARK  8 active torsions:
REMARK  status: ('A' for Active; 'I' for Inactive)
REMARK    1  A    between atoms: C_1  and  O_2
REMARK    2  A    between atoms: O_2  and  C_3
REMARK    3  A    between atoms: C_5  and  O_6
REMARK    4  A    between atoms: O_6  and  C_7
REMARK    5  A    between atoms: C_7  and  C_8
REMARK    6  A    between atoms: C_16  and  C_17
REMARK    7  A    between atoms: C_17  and  N_18
REMARK    8  A    between atoms: C_19  and  C_21
REMARK                            x       y       z     vdW  Elec       q    Type
REMARK                         _______ _______ _______ _____ _____    ______ ____
ROOT
ATOM      1  C   UNL     1      46.272   5.088  13.259  0.00  0.00    +0.000 A 
ATOM      2  C   UNL     1      45.396   4.340  12.447  0.00  0.00    +0.000 A 
ATOM      3  C   UNL     1      45.154   4.703  11.120  0.00  0.00    +0.000 A 
ATOM      4  C   UNL     1      45.727   5.871  10.627  0.00  0.00    +0.000 A 
ATOM      5  C   UNL     1      46.629   6.591  11.407  0.00  0.00    +0.000 A 
ATOM      6  C   UNL     1      46.953   6.193  12.717  0.00  0.00    +0.000 A 
ENDROOT
BRANCH   1   8
ATOM      7  C   UNL     1      47.264   3.402  14.615  0.00  0.00    +0.000 C 
ATOM      8  O   UNL     1      46.446   4.563  14.515  0.00  0.00    +0.000 OA
ENDBRANCH   1   8
BRANCH   3   9
ATOM      9  O   UNL     1      44.368   3.857  10.376  0.00  0.00    +0.000 OA
BRANCH   9  10
ATOM     10  C   UNL     1      44.437   4.080   8.961  0.00  0.00    +0.000 C 
BRANCH  10  11
ATOM     11  C   UNL     1      45.395   3.128   8.306  0.00  0.00    +0.000 A 
ATOM     12  C   UNL     1      46.286   3.538   7.314  0.00  0.00    +0.000 A 
ATOM     13  C   UNL     1      47.184   2.620   6.774  0.00  0.00    +0.000 A 
ATOM     14  C   UNL     1      47.159   1.318   7.248  0.00  0.00    +0.000 A 
ATOM     15  N   UNL     1      46.317   0.884   8.209  0.00  0.00    +0.000 NA
ATOM     16  C   UNL     1      45.455   1.797   8.711  0.00  0.00    +0.000 A 
ENDBRANCH  10  11
ENDBRANCH   9  10
ENDBRANCH   3   9
BRANCH   6  17
ATOM     17  C   UNL     1      48.059   6.958  13.398  0.00  0.00    +0.000 C 
BRANCH  17  18
ATOM     18  N   UNL     1      47.915   6.951  14.833  0.00  0.00    +0.000 N 
ATOM     19  C   UNL     1      48.988   6.783  15.666  0.00  0.00    +0.000 C 
ATOM     20  O   UNL     1      50.130   6.655  15.235  0.00  0.00    +0.000 OA
ATOM     21  H   UNL     1      46.970   6.933  15.203  0.00  0.00    +0.000 HD
BRANCH  19  22
ATOM     22  C   UNL     1      48.709   6.853  17.106  0.00  0.00    +0.000 A 
ATOM     23  C   UNL     1      48.273   8.047  17.663  0.00  0.00    +0.000 A 
ATOM     24  S   UNL     1      47.923   7.933  19.329  0.00  0.00    +0.000 S 
ATOM     25  C   UNL     1      48.388   6.296  19.369  0.00  0.00    +0.000 A 
ATOM     26  N   UNL     1      48.332   5.583  20.525  0.00  0.00    +0.000 NA
ATOM     27  C   UNL     1      48.737   4.363  20.419  0.00  0.00    +0.000 A 
ATOM     28  N   UNL     1      49.201   3.790  19.262  0.00  0.00    +0.000 N 
ATOM     29  C   UNL     1      49.259   4.462  18.068  0.00  0.00    +0.000 A 
ATOM     30  O   UNL     1      49.658   3.916  17.044  0.00  0.00    +0.000 OA
ATOM     31  C   UNL     1      48.805   5.843  18.131  0.00  0.00    +0.000 A 
ATOM     32  H   UNL     1      49.502   2.825  19.247  0.00  0.00    +0.000 HD
ENDBRANCH  19  22
ENDBRANCH  17  18
ENDBRANCH   6  17
TORSDOF 7
ENDMDL
MODEL 2
REMARK VINA RESULT:    -8.083      1.463      2.251
REMARK INTER + INTRA:         -12.805
REMARK INTER:                 -11.257
REMARK INTRA:                  -1.548
REMARK UNBOUND:                -1.414
REMARK  Name = 
REMARK  8 active torsions:
REMARK  status: ('A' for Active; 'I' for Inactive)
REMARK    1  A    between atoms: C_1  and  O_2
REMARK    2  A    between atoms: O_2  and  C_3
REMARK    3  A    between atoms: C_5  and  O_6
REMARK    4  A    between atoms: O_6  and  C_7
REMARK    5  A    between atoms: C_7  and  C_8
REMARK    6  A    between atoms: C_16  and  C_17
REMARK    7  A    between atoms: C_17  and  N_18
REMARK    8  A    between atoms: C_19  and  C_21
REMARK                            x       y       z     vdW  Elec       q    Type
REMARK                         _______ _______ _______ _____ _____    ______ ____
ROOT
ATOM      1  C   UNL     1      46.315   4.985  13.475  0.00  0.00    +0.000 A 
ATOM      2  C   UNL     1      45.463   4.269  12.611  0.00  0.00    +0.000 A 
ATOM      3  C   UNL     1      45.254   4.686  11.294  0.00  0.00    +0.000 A 
ATOM      4  C   UNL     1      45.837   5.874  10.863  0.00  0.00    +0.000 A 
ATOM      5  C   UNL     1      46.717   6.562  11.695  0.00  0.00    +0.000 A 
ATOM      6  C   UNL     1      47.007   6.112  12.996  0.00  0.00    +0.000 A 
ENDROOT
BRANCH   1   8
ATOM      7  C   UNL     1      47.394   3.342  14.818  0.00  0.00    +0.000 C 
ATOM      8  O   UNL     1      46.458   4.410  14.713  0.00  0.00    +0.000 OA
ENDBRANCH   1   8
BRANCH   3   9
ATOM      9  O   UNL     1      44.490   3.869  10.495  0.00  0.00    +0.000 OA
BRANCH   9  10
ATOM     10  C   UNL     1      44.576   4.166   9.095  0.00  0.00    +0.000 C 
BRANCH  10  11
ATOM     11  C   UNL     1      45.495   3.209   8.392  0.00  0.00    +0.000 A 
ATOM     12  C   UNL     1      46.420   3.635   7.438  0.00  0.00    +0.000 A 
ATOM     13  C   UNL     1      47.278   2.709   6.851  0.00  0.00    +0.000 A 
ATOM     14  C   UNL     1      47.183   1.383   7.242  0.00  0.00    +0.000 A 
ATOM     15  N   UNL     1      46.307   0.933   8.164  0.00  0.00    +0.000 NA
ATOM     16  C   UNL     1      45.484   1.854   8.714  0.00  0.00    +0.000 A 
ENDBRANCH  10  11
ENDBRANCH   9  10
ENDBRANCH   3   9
BRANCH   6  17
ATOM     17  C   UNL     1      48.093   6.851  13.737  0.00  0.00    +0.000 C 
BRANCH  17  18
ATOM     18  N   UNL     1      47.889   6.819  15.164  0.00  0.00    +0.000 N 
ATOM     19  C   UNL     1      48.910   6.542  16.033  0.00  0.00    +0.000 C 
ATOM     20  O   UNL     1      50.054   6.330  15.644  0.00  0.00    +0.000 OA
ATOM     21  H   UNL     1      46.932   6.871  15.496  0.00  0.00    +0.000 HD
BRANCH  19  22
ATOM     22  C   UNL     1      48.578   6.599  17.463  0.00  0.00    +0.000 A 
ATOM     23  C   UNL     1      48.679   5.452  18.238  0.00  0.00    +0.000 A 
ATOM     24  S   UNL     1      48.331   5.711  19.887  0.00  0.00    +0.000 S 
ATOM     25  C   UNL     1      47.988   7.355  19.611  0.00  0.00    +0.000 A 
ATOM     26  N   UNL     1      47.614   8.171  20.633  0.00  0.00    +0.000 NA
ATOM     27  C   UNL     1      47.360   9.385  20.279  0.00  0.00    +0.000 A 
ATOM     28  N   UNL     1      47.439   9.859  18.994  0.00  0.00    +0.000 N 
ATOM     29  C   UNL     1      47.829   9.081  17.934  0.00  0.00    +0.000 A 
ATOM     30  O   UNL     1      47.912   9.540  16.799  0.00  0.00    +0.000 OA
ATOM     31  C   UNL     1      48.136   7.702  18.280  0.00  0.00    +0.000 A 
ATOM     32  H   UNL     1      47.227  10.826  18.785  0.00  0.00    +0.000 HD
ENDBRANCH  19  22
ENDBRANCH  17  18
ENDBRANCH   6  17
TORSDOF 7
ENDMDL
MODEL 3
REMARK VINA RESULT:    -6.929      2.997      4.278
REMARK INTER + INTRA:         -11.178
REMARK INTER:                  -9.706
REMARK INTRA:                  -1.472
REMARK UNBOUND:                -1.414
REMARK  Name = 
REMARK  8 active torsions:
REMARK  status: ('A' for Active; 'I' for Inactive)
REMARK    1  A    between atoms: C_1  and  O_2
REMARK    2  A    between atoms: O_2  and  C_3
REMARK    3  A    between atoms: C_5  and  O_6
REMARK    4  A    between atoms: O_6  and  C_7
REMARK    5  A    between atoms: C_7  and  C_8
REMARK    6  A    between atoms: C_16  and  C_17
REMARK    7  A    between atoms: C_17  and  N_18
REMARK    8  A    between atoms: C_19  and  C_21
REMARK                            x       y       z     vdW  Elec       q    Type
REMARK                         _______ _______ _______ _____ _____    ______ ____
ROOT
ATOM      1  C   UNL     1      47.795   5.075  16.263  0.00  0.00    +0.000 A 
ATOM      2  C   UNL     1      46.895   4.381  15.429  0.00  0.00    +0.000 A 
ATOM      3  C   UNL     1      46.786   4.688  14.071  0.00  0.00    +0.000 A 
ATOM      4  C   UNL     1      47.522   5.752  13.560  0.00  0.00    +0.000 A 
ATOM      5  C   UNL     1      48.447   6.413  14.365  0.00  0.00    +0.000 A 
ATOM      6  C   UNL     1      48.634   6.062  15.715  0.00  0.00    +0.000 A 
ENDROOT
BRANCH   1   8
ATOM      7  C   UNL     1      47.085   5.357  18.517  0.00  0.00    +0.000 C 
ATOM      8  O   UNL     1      47.823   4.611  17.555  0.00  0.00    +0.000 OA
ENDBRANCH   1   8
BRANCH   3   9
ATOM      9  O   UNL     1      45.960   3.890  13.316  0.00  0.00    +0.000 OA
BRANCH   9  10
ATOM     10  C   UNL     1      44.935   4.604  12.612  0.00  0.00    +0.000 C 
BRANCH  10  11
ATOM     11  C   UNL     1      45.005   4.340  11.135  0.00  0.00    +0.000 A 
ATOM     12  C   UNL     1      44.472   3.185  10.562  0.00  0.00    +0.000 A 
ATOM     13  C   UNL     1      44.526   3.015   9.181  0.00  0.00    +0.000 A 
ATOM     14  C   UNL     1      45.113   4.011   8.417  0.00  0.00    +0.000 A 
ATOM     15  N   UNL     1      45.635   5.144   8.933  0.00  0.00    +0.000 NA
ATOM     16  C   UNL     1      45.571   5.279  10.277  0.00  0.00    +0.000 A 
ENDBRANCH  10  11
ENDBRANCH   9  10
ENDBRANCH   3   9
BRANCH   6  17
ATOM     17  C   UNL     1      49.773   6.739  16.434  0.00  0.00    +0.000 C 
BRANCH  17  18
ATOM     18  N   UNL     1      50.789   5.799  16.840  0.00  0.00    +0.000 N 
ATOM     19  C   UNL     1      51.050   5.542  18.159  0.00  0.00    +0.000 C 
ATOM     20  O   UNL     1      50.417   6.079  19.062  0.00  0.00    +0.000 OA
ATOM     21  H   UNL     1      51.401   5.439  16.115  0.00  0.00    +0.000 HD
BRANCH  19  22
ATOM     22  C   UNL     1      52.070   4.521  18.431  0.00  0.00    +0.000 A 
ATOM     23  C   UNL     1      53.221   4.868  19.123  0.00  0.00    +0.000 A 
ATOM     24  S   UNL     1      54.262   3.549  19.419  0.00  0.00    +0.000 S 
ATOM     25  C   UNL     1      53.229   2.479  18.590  0.00  0.00    +0.000 A 
ATOM     26  N   UNL     1      53.541   1.162  18.469  0.00  0.00    +0.000 NA
ATOM     27  C   UNL     1      52.685   0.471  17.796  0.00  0.00    +0.000 A 
ATOM     28  N   UNL     1      51.545   0.978  17.226  0.00  0.00    +0.000 N 
ATOM     29  C   UNL     1      51.178   2.295  17.336  0.00  0.00    +0.000 A 
ATOM     30  O   UNL     1      50.140   2.715  16.834  0.00  0.00    +0.000 OA
ATOM     31  C   UNL     1      52.107   3.118  18.095  0.00  0.00    +0.000 A 
ATOM     32  H   UNL     1      50.913   0.380  16.711  0.00  0.00    +0.000 HD
ENDBRANCH  19  22
ENDBRANCH  17  18
ENDBRANCH   6  17
TORSDOF 7
ENDMDL
MODEL 4
REMARK VINA RESULT:    -6.433      4.375      8.123
REMARK INTER + INTRA:         -10.479
REMARK INTER:                  -9.022
REMARK INTRA:                  -1.457
REMARK UNBOUND:                -1.414
REMARK  Name = 
REMARK  8 active torsions:
REMARK  status: ('A' for Active; 'I' for Inactive)
REMARK    1  A    between atoms: C_1  and  O_2
REMARK    2  A    between atoms: O_2  and  C_3
REMARK    3  A    between atoms: C_5  and  O_6
REMARK    4  A    between atoms: O_6  and  C_7
REMARK    5  A    between atoms: C_7  and  C_8
REMARK    6  A    between atoms: C_16  and  C_17
REMARK    7  A    between atoms: C_17  and  N_18
REMARK    8  A    between atoms: C_19  and  C_21
REMARK                            x       y       z     vdW  Elec       q    Type
REMARK                         _______ _______ _______ _____ _____    ______ ____
ROOT
ATOM      1  C   UNL     1      48.890   7.560  12.823  0.00  0.00    +0.000 A 
ATOM      2  C   UNL     1      50.230   7.955  12.635  0.00  0.00    +0.000 A 
ATOM      3  C   UNL     1      50.546   9.140  11.966  0.00  0.00    +0.000 A 
ATOM      4  C   UNL     1      49.517   9.893  11.409  0.00  0.00    +0.000 A 
ATOM      5  C   UNL     1      48.190   9.535  11.630  0.00  0.00    +0.000 A 
ATOM      6  C   UNL     1      47.848   8.391  12.374  0.00  0.00    +0.000 A 
ENDROOT
BRANCH   1   8
ATOM      7  C   UNL     1      48.617   6.549  14.961  0.00  0.00    +0.000 C 
ATOM      8  O   UNL     1      48.752   6.404  13.551  0.00  0.00    +0.000 OA
ENDBRANCH   1   8
BRANCH   3   9
ATOM      9  O   UNL     1      51.873   9.496  11.921  0.00  0.00    +0.000 OA
BRANCH   9  10
ATOM     10  C   UNL     1      52.762   8.416  11.607  0.00  0.00    +0.000 C 
BRANCH  10  11
ATOM     11  C   UNL     1      52.853   8.201  10.123  0.00  0.00    +0.000 A 
ATOM     12  C   UNL     1      52.468   7.002   9.523  0.00  0.00    +0.000 A 
ATOM     13  C   UNL     1      52.532   6.875   8.137  0.00  0.00    +0.000 A 
ATOM     14  C   UNL     1      52.979   7.958   7.397  0.00  0.00    +0.000 A 
ATOM     15  N   UNL     1      53.355   9.135   7.940  0.00  0.00    +0.000 NA
ATOM     16  C   UNL     1      53.285   9.226   9.287  0.00  0.00    +0.000 A 
ENDBRANCH  10  11
ENDBRANCH   9  10
ENDBRANCH   3   9
BRANCH   6  17
ATOM     17  C   UNL     1      46.384   8.199  12.679  0.00  0.00    +0.000 C 
BRANCH  17  18
ATOM     18  N   UNL     1      45.945   6.857  12.389  0.00  0.00    +0.000 N 
ATOM     19  C   UNL     1      44.803   6.609  11.676  0.00  0.00    +0.000 C 
ATOM     20  O   UNL     1      44.108   7.515  11.229  0.00  0.00    +0.000 OA
ATOM     21  H   UNL     1      46.437   6.099  12.851  0.00  0.00    +0.000 HD
BRANCH  19  22
ATOM     22  C   UNL     1      44.502   5.198  11.403  0.00  0.00    +0.000 A 
ATOM     23  C   UNL     1      43.760   4.464  12.317  0.00  0.00    +0.000 A 
ATOM     24  S   UNL     1      43.439   2.868  11.809  0.00  0.00    +0.000 S 
ATOM     25  C   UNL     1      44.322   3.091  10.371  0.00  0.00    +0.000 A 
ATOM     26  N   UNL     1      44.447   2.084   9.465  0.00  0.00    +0.000 NA
ATOM     27  C   UNL     1      45.162   2.381   8.435  0.00  0.00    +0.000 A 
ATOM     28  N   UNL     1      45.772   3.592   8.227  0.00  0.00    +0.000 N 
ATOM     29  C   UNL     1      45.660   4.644   9.101  0.00  0.00    +0.000 A 
ATOM     30  O   UNL     1      46.198   5.724   8.877  0.00  0.00    +0.000 OA
ATOM     31  C   UNL     1      44.854   4.364  10.279  0.00  0.00    +0.000 A 
ATOM     32  H   UNL     1      46.319   3.760   7.393  0.00  0.00    +0.000 HD
ENDBRANCH  19  22
ENDBRANCH  17  18
ENDBRANCH   6  17
TORSDOF 7
ENDMDL
MODEL 5
REMARK VINA RESULT:    -5.918      3.250      9.579
REMARK INTER + INTRA:          -9.753
REMARK INTER:                  -8.337
REMARK INTRA:                  -1.417
REMARK UNBOUND:                -1.414
REMARK  Name = 
REMARK  8 active torsions:
REMARK  status: ('A' for Active; 'I' for Inactive)
REMARK    1  A    between atoms: C_1  and  O_2
REMARK    2  A    between atoms: O_2  and  C_3
REMARK    3  A    between atoms: C_5  and  O_6
REMARK    4  A    between atoms: O_6  and  C_7
REMARK    5  A    between atoms: C_7  and  C_8
REMARK    6  A    between atoms: C_16  and  C_17
REMARK    7  A    between atoms: C_17  and  N_18
REMARK    8  A    between atoms: C_19  and  C_21
REMARK                            x       y       z     vdW  Elec       q    Type
REMARK                         _______ _______ _______ _____ _____    ______ ____
ROOT
ATOM      1  C   UNL     1      48.230   6.577  14.446  0.00  0.00    +0.000 A 
ATOM      2  C   UNL     1      48.754   6.682  15.750  0.00  0.00    +0.000 A 
ATOM      3  C   UNL     1      49.104   7.923  16.290  0.00  0.00    +0.000 A 
ATOM      4  C   UNL     1      49.007   9.056  15.489  0.00  0.00    +0.000 A 
ATOM      5  C   UNL     1      48.448   8.968  14.217  0.00  0.00    +0.000 A 
ATOM      6  C   UNL     1      48.009   7.740  13.687  0.00  0.00    +0.000 A 
ENDROOT
BRANCH   1   8
ATOM      7  C   UNL     1      47.206   4.523  15.077  0.00  0.00    +0.000 C 
ATOM      8  O   UNL     1      47.882   5.297  14.092  0.00  0.00    +0.000 OA
ENDBRANCH   1   8
BRANCH   3   9
ATOM      9  O   UNL     1      49.508   7.939  17.603  0.00  0.00    +0.000 OA
BRANCH   9  10
ATOM     10  C   UNL     1      48.453   7.715  18.547  0.00  0.00    +0.000 C 
BRANCH  10  11
ATOM     11  C   UNL     1      47.999   9.004  19.171  0.00  0.00    +0.000 A 
ATOM     12  C   UNL     1      46.752   9.132  19.784  0.00  0.00    +0.000 A 
ATOM     13  C   UNL     1      46.403  10.338  20.385  0.00  0.00    +0.000 A 
ATOM     14  C   UNL     1      47.318  11.379  20.355  0.00  0.00    +0.000 A 
ATOM     15  N   UNL     1      48.534  11.292  19.778  0.00  0.00    +0.000 NA
ATOM     16  C   UNL     1      48.844  10.111  19.199  0.00  0.00    +0.000 A 
ENDBRANCH  10  11
ENDBRANCH   9  10
ENDBRANCH   3   9
BRANCH   6  17
ATOM     17  C   UNL     1      47.278   7.799  12.370  0.00  0.00    +0.000 C 
BRANCH  17  18
ATOM     18  N   UNL     1      46.649   6.542  12.047  0.00  0.00    +0.000 N 
ATOM     19  C   UNL     1      45.302   6.348  12.198  0.00  0.00    +0.000 C 
ATOM     20  O   UNL     1      44.559   7.240  12.593  0.00  0.00    +0.000 OA
ATOM     21  H   UNL     1      47.260   5.760  11.836  0.00  0.00    +0.000 HD
BRANCH  19  22
ATOM     22  C   UNL     1      44.784   5.040  11.778  0.00  0.00    +0.000 A 
ATOM     23  C   UNL     1      44.035   4.280  12.665  0.00  0.00    +0.000 A 
ATOM     24  S   UNL     1      43.449   2.827  11.991  0.00  0.00    +0.000 S 
ATOM     25  C   UNL     1      44.216   3.144  10.505  0.00  0.00    +0.000 A 
ATOM     26  N   UNL     1      44.115   2.271   9.467  0.00  0.00    +0.000 NA
ATOM     27  C   UNL     1      44.765   2.622   8.411  0.00  0.00    +0.000 A 
ATOM     28  N   UNL     1      45.515   3.765   8.297  0.00  0.00    +0.000 N 
ATOM     29  C   UNL     1      45.633   4.684   9.308  0.00  0.00    +0.000 A 
ATOM     30  O   UNL     1      46.293   5.710   9.168  0.00  0.00    +0.000 OA
ATOM     31  C   UNL     1      44.910   4.340  10.522  0.00  0.00    +0.000 A 
ATOM     32  H   UNL     1      46.000   3.982   7.437  0.00  0.00    +0.000 HD
ENDBRANCH  19  22
ENDBRANCH  17  18
ENDBRANCH   6  17
TORSDOF 7
ENDMDL
MODEL 6
REMARK VINA RESULT:    -5.909      5.035      8.091
REMARK INTER + INTRA:          -9.741
REMARK INTER:                  -8.675
REMARK INTRA:                  -1.066
REMARK UNBOUND:                -1.414
REMARK  Name = 
REMARK  8 active torsions:
REMARK  status: ('A' for Active; 'I' for Inactive)
REMARK    1  A    between atoms: C_1  and  O_2
REMARK    2  A    between atoms: O_2  and  C_3
REMARK    3  A    between atoms: C_5  and  O_6
REMARK    4  A    between atoms: O_6  and  C_7
REMARK    5  A    between atoms: C_7  and  C_8
REMARK    6  A    between atoms: C_16  and  C_17
REMARK    7  A    between atoms: C_17  and  N_18
REMARK    8  A    between atoms: C_19  and  C_21
REMARK                            x       y       z     vdW  Elec       q    Type
REMARK                         _______ _______ _______ _____ _____    ______ ____
ROOT
ATOM      1  C   UNL     1      49.267   9.706  11.777  0.00  0.00    +0.000 A 
ATOM      2  C   UNL     1      50.598   9.616  11.323  0.00  0.00    +0.000 A 
ATOM      3  C   UNL     1      51.187   8.378  11.056  0.00  0.00    +0.000 A 
ATOM      4  C   UNL     1      50.467   7.218  11.325  0.00  0.00    +0.000 A 
ATOM      5  C   UNL     1      49.137   7.299  11.729  0.00  0.00    +0.000 A 
ATOM      6  C   UNL     1      48.498   8.537  11.920  0.00  0.00    +0.000 A 
ENDROOT
BRANCH   1   8
ATOM      7  C   UNL     1      47.994  11.516  10.898  0.00  0.00    +0.000 C 
ATOM      8  O   UNL     1      48.822  10.996  11.933  0.00  0.00    +0.000 OA
ENDBRANCH   1   8
BRANCH   3   9
ATOM      9  O   UNL     1      52.452   8.393  10.520  0.00  0.00    +0.000 OA
BRANCH   9  10
ATOM     10  C   UNL     1      52.487   8.560   9.097  0.00  0.00    +0.000 C 
BRANCH  10  11
ATOM     11  C   UNL     1      52.992   7.320   8.416  0.00  0.00    +0.000 A 
ATOM     12  C   UNL     1      53.529   6.249   9.130  0.00  0.00    +0.000 A 
ATOM     13  C   UNL     1      53.941   5.105   8.449  0.00  0.00    +0.000 A 
ATOM     14  C   UNL     1      53.798   5.073   7.071  0.00  0.00    +0.000 A 
ATOM     15  N   UNL     1      53.278   6.085   6.346  0.00  0.00    +0.000 NA
ATOM     16  C   UNL     1      52.892   7.183   7.034  0.00  0.00    +0.000 A 
ENDBRANCH  10  11
ENDBRANCH   9  10
ENDBRANCH   3   9
BRANCH   6  17
ATOM     17  C   UNL     1      47.017   8.494  12.201  0.00  0.00    +0.000 C 
BRANCH  17  18
ATOM     18  N   UNL     1      46.486   7.159  12.086  0.00  0.00    +0.000 N 
ATOM     19  C   UNL     1      45.212   6.924  11.644  0.00  0.00    +0.000 C 
ATOM     20  O   UNL     1      44.466   7.835  11.299  0.00  0.00    +0.000 OA
ATOM     21  H   UNL     1      47.041   6.405  12.479  0.00  0.00    +0.000 HD
BRANCH  19  22
ATOM     22  C   UNL     1      44.818   5.514  11.521  0.00  0.00    +0.000 A 
ATOM     23  C   UNL     1      44.164   4.890  12.574  0.00  0.00    +0.000 A 
ATOM     24  S   UNL     1      43.711   3.280  12.235  0.00  0.00    +0.000 S 
ATOM     25  C   UNL     1      44.416   3.350  10.688  0.00  0.00    +0.000 A 
ATOM     26  N   UNL     1      44.383   2.275   9.856  0.00  0.00    +0.000 NA
ATOM     27  C   UNL     1      44.976   2.458   8.726  0.00  0.00    +0.000 A 
ATOM     28  N   UNL     1      45.608   3.616   8.351  0.00  0.00    +0.000 N 
ATOM     29  C   UNL     1      45.653   4.733   9.146  0.00  0.00    +0.000 A 
ATOM     30  O   UNL     1      46.206   5.763   8.774  0.00  0.00    +0.000 OA
ATOM     31  C   UNL     1      44.989   4.583  10.432  0.00  0.00    +0.000 A 
ATOM     32  H   UNL     1      46.053   3.694   7.447  0.00  0.00    +0.000 HD
ENDBRANCH  19  22
ENDBRANCH  17  18
ENDBRANCH   6  17
TORSDOF 7
ENDMDL
MODEL 7
REMARK VINA RESULT:    -5.770      3.858      8.895
REMARK INTER + INTRA:          -9.545
REMARK INTER:                  -8.204
REMARK INTRA:                  -1.341
REMARK UNBOUND:                -1.414
REMARK  Name = 
REMARK  8 active torsions:
REMARK  status: ('A' for Active; 'I' for Inactive)
REMARK    1  A    between atoms: C_1  and  O_2
REMARK    2  A    between atoms: O_2  and  C_3
REMARK    3  A    between atoms: C_5  and  O_6
REMARK    4  A    between atoms: O_6  and  C_7
REMARK    5  A    between atoms: C_7  and  C_8
REMARK    6  A    between atoms: C_16  and  C_17
REMARK    7  A    between atoms: C_17  and  N_18
REMARK    8  A    between atoms: C_19  and  C_21
REMARK                            x       y       z     vdW  Elec       q    Type
REMARK                         _______ _______ _______ _____ _____    ______ ____
ROOT
ATOM      1  C   UNL     1      48.495   7.464  13.368  0.00  0.00    +0.000 A 
ATOM      2  C   UNL     1      49.819   7.788  13.728  0.00  0.00    +0.000 A 
ATOM      3  C   UNL     1      50.490   8.854  13.124  0.00  0.00    +0.000 A 
ATOM      4  C   UNL     1      49.863   9.548  12.094  0.00  0.00    +0.000 A 
ATOM      5  C   UNL     1      48.539   9.265  11.765  0.00  0.00    +0.000 A 
ATOM      6  C   UNL     1      47.816   8.252  12.421  0.00  0.00    +0.000 A 
ENDROOT
BRANCH   1   8
ATOM      7  C   UNL     1      48.403   6.305  15.446  0.00  0.00    +0.000 C 
ATOM      8  O   UNL     1      47.961   6.431  14.098  0.00  0.00    +0.000 OA
ENDBRANCH   1   8
BRANCH   3   9
ATOM      9  O   UNL     1      51.739   9.160  13.610  0.00  0.00    +0.000 OA
BRANCH   9  10
ATOM     10  C   UNL     1      52.023   8.597  14.898  0.00  0.00    +0.000 C 
BRANCH  10  11
ATOM     11  C   UNL     1      53.253   7.738  14.856  0.00  0.00    +0.000 A 
ATOM     12  C   UNL     1      53.535   6.798  15.848  0.00  0.00    +0.000 A 
ATOM     13  C   UNL     1      54.669   5.996  15.734  0.00  0.00    +0.000 A 
ATOM     14  C   UNL     1      55.483   6.162  14.625  0.00  0.00    +0.000 A 
ATOM     15  N   UNL     1      55.242   7.055  13.642  0.00  0.00    +0.000 NA
ATOM     16  C   UNL     1      54.137   7.821  13.783  0.00  0.00    +0.000 A 
ENDBRANCH  10  11
ENDBRANCH   9  10
ENDBRANCH   3   9
BRANCH   6  17
ATOM     17  C   UNL     1      46.350   8.149  12.089  0.00  0.00    +0.000 C 
BRANCH  17  18
ATOM     18  N   UNL     1      45.945   6.786  11.851  0.00  0.00    +0.000 N 
ATOM     19  C   UNL     1      44.661   6.464  11.503  0.00  0.00    +0.000 C 
ATOM     20  O   UNL     1      43.795   7.320  11.354  0.00  0.00    +0.000 OA
ATOM     21  H   UNL     1      46.612   6.058  12.086  0.00  0.00    +0.000 HD
BRANCH  19  22
ATOM     22  C   UNL     1      44.398   5.044  11.233  0.00  0.00    +0.000 A 
ATOM     23  C   UNL     1      43.640   4.304  12.129  0.00  0.00    +0.000 A 
ATOM     24  S   UNL     1      43.368   2.697  11.626  0.00  0.00    +0.000 S 
ATOM     25  C   UNL     1      44.295   2.925  10.217  0.00  0.00    +0.000 A 
ATOM     26  N   UNL     1      44.472   1.913   9.325  0.00  0.00    +0.000 NA
ATOM     27  C   UNL     1      45.215   2.215   8.317  0.00  0.00    +0.000 A 
ATOM     28  N   UNL     1      45.808   3.437   8.118  0.00  0.00    +0.000 N 
ATOM     29  C   UNL     1      45.645   4.493   8.977  0.00  0.00    +0.000 A 
ATOM     30  O   UNL     1      46.168   5.582   8.761  0.00  0.00    +0.000 OA
ATOM     31  C   UNL     1      44.805   4.208  10.131  0.00  0.00    +0.000 A 
ATOM     32  H   UNL     1      46.379   3.608   7.302  0.00  0.00    +0.000 HD
ENDBRANCH  19  22
ENDBRANCH  17  18
ENDBRANCH   6  17
TORSDOF 7
ENDMDL
MODEL 8
REMARK VINA RESULT:    -5.728      4.722      7.401
REMARK INTER + INTRA:          -9.486
REMARK INTER:                  -8.481
REMARK INTRA:                  -1.005
REMARK UNBOUND:                -1.414
REMARK  Name = 
REMARK  8 active torsions:
REMARK  status: ('A' for Active; 'I' for Inactive)
REMARK    1  A    between atoms: C_1  and  O_2
REMARK    2  A    between atoms: O_2  and  C_3
REMARK    3  A    between atoms: C_5  and  O_6
REMARK    4  A    between atoms: O_6  and  C_7
REMARK    5  A    between atoms: C_7  and  C_8
REMARK    6  A    between atoms: C_16  and  C_17
REMARK    7  A    between atoms: C_17  and  N_18
REMARK    8  A    between atoms: C_19  and  C_21
REMARK                            x       y       z     vdW  Elec       q    Type
REMARK                         _______ _______ _______ _____ _____    ______ ____
ROOT
ATOM      1  C   UNL     1      49.351   9.365  12.790  0.00  0.00    +0.000 A 
ATOM      2  C   UNL     1      50.418   9.680  11.925  0.00  0.00    +0.000 A 
ATOM      3  C   UNL     1      51.705   9.189  12.158  0.00  0.00    +0.000 A 
ATOM      4  C   UNL     1      51.943   8.444  13.309  0.00  0.00    +0.000 A 
ATOM      5  C   UNL     1      50.885   8.089  14.143  0.00  0.00    +0.000 A 
ATOM      6  C   UNL     1      49.567   8.503  13.880  0.00  0.00    +0.000 A 
ENDROOT
BRANCH   1   8
ATOM      7  C   UNL     1      48.174  10.835  11.333  0.00  0.00    +0.000 C 
ATOM      8  O   UNL     1      48.142   9.877  12.386  0.00  0.00    +0.000 OA
ENDBRANCH   1   8
BRANCH   3   9
ATOM      9  O   UNL     1      52.658   9.463  11.207  0.00  0.00    +0.000 OA
BRANCH   9  10
ATOM     10  C   UNL     1      52.235   9.216   9.860  0.00  0.00    +0.000 C 
BRANCH  10  11
ATOM     11  C   UNL     1      52.866   7.968   9.312  0.00  0.00    +0.000 A 
ATOM     12  C   UNL     1      53.112   6.851  10.110  0.00  0.00    +0.000 A 
ATOM     13  C   UNL     1      53.659   5.704   9.537  0.00  0.00    +0.000 A 
ATOM     14  C   UNL     1      53.939   5.716   8.181  0.00  0.00    +0.000 A 
ATOM     15  N   UNL     1      53.711   6.774   7.375  0.00  0.00    +0.000 NA
ATOM     16  C   UNL     1      53.184   7.873   7.960  0.00  0.00    +0.000 A 
ENDBRANCH  10  11
ENDBRANCH   9  10
ENDBRANCH   3   9
BRANCH   6  17
ATOM     17  C   UNL     1      48.491   7.923  14.762  0.00  0.00    +0.000 C 
BRANCH  17  18
ATOM     18  N   UNL     1      47.312   7.567  14.012  0.00  0.00    +0.000 N 
ATOM     19  C   UNL     1      47.240   6.407  13.288  0.00  0.00    +0.000 C 
ATOM     20  O   UNL     1      48.164   5.600  13.261  0.00  0.00    +0.000 OA
ATOM     21  H   UNL     1      46.589   8.273  13.924  0.00  0.00    +0.000 HD
BRANCH  19  22
ATOM     22  C   UNL     1      45.961   6.139  12.618  0.00  0.00    +0.000 A 
ATOM     23  C   UNL     1      45.241   7.191  12.067  0.00  0.00    +0.000 A 
ATOM     24  S   UNL     1      43.821   6.696  11.262  0.00  0.00    +0.000 S 
ATOM     25  C   UNL     1      44.097   5.065  11.664  0.00  0.00    +0.000 A 
ATOM     26  N   UNL     1      43.231   4.093  11.272  0.00  0.00    +0.000 NA
ATOM     27  C   UNL     1      43.548   2.907  11.665  0.00  0.00    +0.000 A 
ATOM     28  N   UNL     1      44.649   2.601  12.424  0.00  0.00    +0.000 N 
ATOM     29  C   UNL     1      45.561   3.543  12.828  0.00  0.00    +0.000 A 
ATOM     30  O   UNL     1      46.550   3.236  13.487  0.00  0.00    +0.000 OA
ATOM     31  C   UNL     1      45.255   4.900  12.402  0.00  0.00    +0.000 A 
ATOM     32  H   UNL     1      44.841   1.647  12.698  0.00  0.00    +0.000 HD
ENDBRANCH  19  22
ENDBRANCH  17  18
ENDBRANCH   6  17
TORSDOF 7
ENDMDL
MODEL 9
REMARK VINA RESULT:    -5.652      3.144      9.063
REMARK INTER + INTRA:          -9.379
REMARK INTER:                  -8.040
REMARK INTRA:                  -1.339
REMARK UNBOUND:                -1.414
REMARK  Name = 
REMARK  8 active torsions:
REMARK  status: ('A' for Active; 'I' for Inactive)
REMARK    1  A    between atoms: C_1  and  O_2
REMARK    2  A    between atoms: O_2  and  C_3
REMARK    3  A    between atoms: C_5  and  O_6
REMARK    4  A    between atoms: O_6  and  C_7
REMARK    5  A    between atoms: C_7  and  C_8
REMARK    6  A    between atoms: C_16  and  C_17
REMARK    7  A    between atoms: C_17  and  N_18
REMARK    8  A    between atoms: C_19  and  C_21
REMARK                            x       y       z     vdW  Elec       q    Type
REMARK                         _______ _______ _______ _____ _____    ______ ____
ROOT
ATOM      1  C   UNL     1      48.795   6.855  14.134  0.00  0.00    +0.000 A 
ATOM      2  C   UNL     1      49.759   6.997  15.152  0.00  0.00    +0.000 A 
ATOM      3  C   UNL     1      50.783   7.941  15.050  0.00  0.00    +0.000 A 
ATOM      4  C   UNL     1      50.893   8.692  13.883  0.00  0.00    +0.000 A 
ATOM      5  C   UNL     1      49.918   8.591  12.893  0.00  0.00    +0.000 A 
ATOM      6  C   UNL     1      48.831   7.707  13.015  0.00  0.00    +0.000 A 
ENDROOT
BRANCH   1   8
ATOM      7  C   UNL     1      47.977   5.191  15.627  0.00  0.00    +0.000 C 
ATOM      8  O   UNL     1      47.824   5.926  14.417  0.00  0.00    +0.000 OA
ENDBRANCH   1   8
BRANCH   3   9
ATOM      9  O   UNL     1      51.614   8.079  16.135  0.00  0.00    +0.000 OA
BRANCH   9  10
ATOM     10  C   UNL     1      51.127   7.460  17.333  0.00  0.00    +0.000 C 
BRANCH  10  11
ATOM     11  C   UNL     1      52.058   6.381  17.805  0.00  0.00    +0.000 A 
ATOM     12  C   UNL     1      53.157   6.654  18.620  0.00  0.00    +0.000 A 
ATOM     13  C   UNL     1      53.961   5.607  19.064  0.00  0.00    +0.000 A 
ATOM     14  C   UNL     1      53.635   4.317  18.677  0.00  0.00    +0.000 A 
ATOM     15  N   UNL     1      52.579   4.012  17.895  0.00  0.00    +0.000 NA
ATOM     16  C   UNL     1      51.820   5.049  17.476  0.00  0.00    +0.000 A 
ENDBRANCH  10  11
ENDBRANCH   9  10
ENDBRANCH   3   9
BRANCH   6  17
ATOM     17  C   UNL     1      47.762   7.805  11.957  0.00  0.00    +0.000 C 
BRANCH  17  18
ATOM     18  N   UNL     1      47.035   6.568  11.809  0.00  0.00    +0.000 N 
ATOM     19  C   UNL     1      45.666   6.528  11.833  0.00  0.00    +0.000 C 
ATOM     20  O   UNL     1      44.990   7.544  11.956  0.00  0.00    +0.000 OA
ATOM     21  H   UNL     1      47.574   5.709  11.828  0.00  0.00    +0.000 HD
BRANCH  19  22
ATOM     22  C   UNL     1      45.052   5.212  11.613  0.00  0.00    +0.000 A 
ATOM     23  C   UNL     1      44.388   4.582  12.656  0.00  0.00    +0.000 A 
ATOM     24  S   UNL     1      43.671   3.100  12.210  0.00  0.00    +0.000 S 
ATOM     25  C   UNL     1      44.264   3.230  10.620  0.00  0.00    +0.000 A 
ATOM     26  N   UNL     1      44.005   2.265   9.698  0.00  0.00    +0.000 NA
ATOM     27  C   UNL     1      44.536   2.477   8.542  0.00  0.00    +0.000 A 
ATOM     28  N   UNL     1      45.309   3.564   8.223  0.00  0.00    +0.000 N 
ATOM     29  C   UNL     1      45.583   4.572   9.112  0.00  0.00    +0.000 A 
ATOM     30  O   UNL     1      46.259   5.545   8.791  0.00  0.00    +0.000 OA
ATOM     31  C   UNL     1      44.999   4.386  10.432  0.00  0.00    +0.000 A 
ATOM     32  H   UNL     1      45.695   3.671   7.294  0.00  0.00    +0.000 HD
ENDBRANCH  19  22
ENDBRANCH  17  18
ENDBRANCH   6  17
TORSDOF 7
ENDMDL
