MODEL 1
REMARK VINA RESULT:    -7.851      0.000      0.000
REMARK INTER + INTRA:         -12.346
REMARK INTER:                 -11.064
REMARK INTRA:                  -1.282
REMARK UNBOUND:                -1.282
REMARK  Name = 
REMARK  9 active torsions:
REMARK  status: ('A' for Active; 'I' for Inactive)
REMARK    1  A    between atoms: C_1  and  O_2
REMARK    2  A    between atoms: O_2  and  C_3
REMARK    3  A    between atoms: C_10  and  C_11
REMARK    4  A    between atoms: N_13  and  C_14
REMARK    5  A    between atoms: C_14  and  C_15
REMARK    6  A    between atoms: C_18  and  N_19
REMARK    7  A    between atoms: N_19  and  C_20
REMARK    8  A    between atoms: C_20  and  C_21
REMARK    9  A    between atoms: N_25  and  C_26
REMARK                            x       y       z     vdW  Elec       q    Type
REMARK                         _______ _______ _______ _____ _____    ______ ____
ROOT
ATOM      1  C   UNL     1      47.311   8.340  13.582  0.00  0.00    +0.000 C 
ENDROOT
BRANCH   1   2
ATOM      2  C   UNL     1      46.492   7.580  12.570  0.00  0.00    +0.000 A 
ATOM      3  C   UNL     1      47.117   6.864  11.545  0.00  0.00    +0.000 A 
ATOM      4  C   UNL     1      46.367   6.066  10.670  0.00  0.00    +0.000 A 
ATOM      5  C   UNL     1      44.972   5.991  10.756  0.00  0.00    +0.000 A 
ATOM      6  C   UNL     1      44.350   6.767  11.745  0.00  0.00    +0.000 A 
ATOM      7  C   UNL     1      45.095   7.557  12.636  0.00  0.00    +0.000 A 
BRANCH   5   8
ATOM      8  N   UNL     1      44.199   5.093  10.019  0.00  0.00    +0.000 N 
ATOM      9  H   UNL     1      43.862   5.466   9.137  0.00  0.00    +0.000 HD
BRANCH   8  10
ATOM     10  C   UNL     1      44.495   3.664  10.037  0.00  0.00    +0.000 C 
BRANCH  10  11
ATOM     11  C   UNL     1      45.660   3.299   9.099  0.00  0.00    +0.000 C 
ATOM     12  C   UNL     1      45.624   4.092   7.785  0.00  0.00    +0.000 C 
ATOM     13  C   UNL     1      46.705   3.597   6.829  0.00  0.00    +0.000 C 
ATOM     14  C   UNL     1      46.606   2.088   6.609  0.00  0.00    +0.000 C 
ATOM     15  N   UNL     1      46.679   1.363   7.884  0.00  0.00    +0.000 NA
ATOM     16  C   UNL     1      46.613  -0.081   7.648  0.00  0.00    +0.000 C 
ATOM     17  C   UNL     1      45.608   1.786   8.799  0.00  0.00    +0.000 C 
ENDBRANCH  10  11
ENDBRANCH   8  10
ENDBRANCH   5   8
ENDBRANCH   1   2
BRANCH   1  20
ATOM     18  C   UNL     1      48.872   6.929  14.855  0.00  0.00    +0.000 C 
ATOM     19  O   UNL     1      49.749   7.062  13.999  0.00  0.00    +0.000 OA
ATOM     20  N   UNL     1      47.651   7.526  14.718  0.00  0.00    +0.000 N 
ATOM     21  H   UNL     1      46.933   7.383  15.416  0.00  0.00    +0.000 HD
BRANCH  18  29
ATOM     22  C   UNL     1      47.245   4.219  16.209  0.00  0.00    +0.000 A 
ATOM     23  N   UNL     1      46.821   3.162  16.929  0.00  0.00    +0.000 NA
ATOM     24  C   UNL     1      47.496   2.848  18.038  0.00  0.00    +0.000 A 
ATOM     25  N   UNL     1      48.562   3.473  18.531  0.00  0.00    +0.000 NA
ATOM     26  C   UNL     1      48.957   4.513  17.778  0.00  0.00    +0.000 A 
ATOM     27  S   UNL     1      50.301   5.433  18.258  0.00  0.00    +0.000 S 
ATOM     28  C   UNL     1      50.154   6.448  16.903  0.00  0.00    +0.000 A 
ATOM     29  C   UNL     1      49.097   6.117  16.062  0.00  0.00    +0.000 A 
ATOM     30  C   UNL     1      48.375   4.960  16.596  0.00  0.00    +0.000 A 
BRANCH  22  32
ATOM     31  C   UNL     1      47.012   3.805  13.914  0.00  0.00    +0.000 C 
ATOM     32  O   UNL     1      46.562   4.532  15.054  0.00  0.00    +0.000 OA
ENDBRANCH  22  32
ENDBRANCH  18  29
ENDBRANCH   1  20
TORSDOF 7
ENDMDL
MODEL 2
REMARK VINA RESULT:    -7.416      1.678      2.120
REMARK INTER + INTRA:         -11.732
REMARK INTER:                 -10.646
REMARK INTRA:                  -1.087
REMARK UNBOUND:                -1.282
REMARK  Name = 
REMARK  9 active torsions:
REMARK  status: ('A' for Active; 'I' for Inactive)
REMARK    1  A    between atoms: C_1  and  O_2
REMARK    2  A    between atoms: O_2  and  C_3
REMARK    3  A    between atoms: C_10  and  C_11
REMARK    4  A    between atoms: N_13  and  C_14
REMARK    5  A    between atoms: C_14  and  C_15
REMARK    6  A    between atoms: C_18  and  N_19
REMARK    7  A    between atoms: N_19  and  C_20
REMARK    8  A    between atoms: C_20  and  C_21
REMARK    9  A    between atoms: N_25  and  C_26
REMARK                            x       y       z     vdW  Elec       q    Type
REMARK                         _______ _______ _______ _____ _____    ______ ____
ROOT
ATOM      1  C   UNL     1      47.965   7.127  13.525  0.00  0.00    +0.000 C 
ENDROOT
BRANCH   1   2
ATOM      2  C   UNL     1      46.907   6.174  13.031  0.00  0.00    +0.000 A 
ATOM      3  C   UNL     1      46.047   6.546  11.993  0.00  0.00    +0.000 A 
ATOM      4  C   UNL     1      45.136   5.626  11.454  0.00  0.00    +0.000 A 
ATOM      5  C   UNL     1      45.020   4.325  11.959  0.00  0.00    +0.000 A 
ATOM      6  C   UNL     1      45.839   3.985  13.045  0.00  0.00    +0.000 A 
ATOM      7  C   UNL     1      46.766   4.896  13.580  0.00  0.00    +0.000 A 
BRANCH   5   8
ATOM      8  N   UNL     1      44.251   3.328  11.357  0.00  0.00    +0.000 N 
ATOM      9  H   UNL     1      43.454   3.031  11.913  0.00  0.00    +0.000 HD
BRANCH   8  10
ATOM     10  C   UNL     1      44.066   3.299   9.911  0.00  0.00    +0.000 C 
BRANCH  10  11
ATOM     11  C   UNL     1      45.395   3.101   9.158  0.00  0.00    +0.000 C 
ATOM     12  C   UNL     1      45.537   4.052   7.962  0.00  0.00    +0.000 C 
ATOM     13  C   UNL     1      46.794   3.724   7.161  0.00  0.00    +0.000 C 
ATOM     14  C   UNL     1      46.826   2.253   6.751  0.00  0.00    +0.000 C 
ATOM     15  N   UNL     1      46.723   1.375   7.925  0.00  0.00    +0.000 NA
ATOM     16  C   UNL     1      46.786  -0.029   7.513  0.00  0.00    +0.000 C 
ATOM     17  C   UNL     1      45.487   1.637   8.678  0.00  0.00    +0.000 C 
ENDBRANCH  10  11
ENDBRANCH   8  10
ENDBRANCH   5   8
ENDBRANCH   1   2
BRANCH   1  20
ATOM     18  C   UNL     1      49.125   7.023  15.692  0.00  0.00    +0.000 C 
ATOM     19  O   UNL     1      50.202   6.775  15.146  0.00  0.00    +0.000 OA
ATOM     20  N   UNL     1      47.985   7.207  14.961  0.00  0.00    +0.000 N 
ATOM     21  H   UNL     1      47.104   7.382  15.428  0.00  0.00    +0.000 HD
BRANCH  18  29
ATOM     22  C   UNL     1      48.926   4.693  18.213  0.00  0.00    +0.000 A 
ATOM     23  N   UNL     1      48.860   4.008  19.371  0.00  0.00    +0.000 NA
ATOM     24  C   UNL     1      48.787   4.705  20.508  0.00  0.00    +0.000 A 
ATOM     25  N   UNL     1      48.767   6.030  20.635  0.00  0.00    +0.000 NA
ATOM     26  C   UNL     1      48.845   6.673  19.459  0.00  0.00    +0.000 A 
ATOM     27  S   UNL     1      48.829   8.370  19.428  0.00  0.00    +0.000 S 
ATOM     28  C   UNL     1      48.955   8.391  17.733  0.00  0.00    +0.000 A 
ATOM     29  C   UNL     1      49.015   7.127  17.156  0.00  0.00    +0.000 A 
ATOM     30  C   UNL     1      48.940   6.098  18.195  0.00  0.00    +0.000 A 
BRANCH  22  32
ATOM     31  C   UNL     1      47.876   3.169  16.775  0.00  0.00    +0.000 C 
ATOM     32  O   UNL     1      49.021   3.975  17.040  0.00  0.00    +0.000 OA
ENDBRANCH  22  32
ENDBRANCH  18  29
ENDBRANCH   1  20
TORSDOF 7
ENDMDL
MODEL 3
REMARK VINA RESULT:    -7.393      1.000      1.591
REMARK INTER + INTRA:         -11.700
REMARK INTER:                 -10.455
REMARK INTRA:                  -1.245
REMARK UNBOUND:                -1.282
REMARK  Name = 
REMARK  9 active torsions:
REMARK  status: ('A' for Active; 'I' for Inactive)
REMARK    1  A    between atoms: C_1  and  O_2
REMARK    2  A    between atoms: O_2  and  C_3
REMARK    3  A    between atoms: C_10  and  C_11
REMARK    4  A    between atoms: N_13  and  C_14
REMARK    5  A    between atoms: C_14  and  C_15
REMARK    6  A    between atoms: C_18  and  N_19
REMARK    7  A    between atoms: N_19  and  C_20
REMARK    8  A    between atoms: C_20  and  C_21
REMARK    9  A    between atoms: N_25  and  C_26
REMARK                            x       y       z     vdW  Elec       q    Type
REMARK                         _______ _______ _______ _____ _____    ______ ____
ROOT
ATOM      1  C   UNL     1      47.985   8.670  14.172  0.00  0.00    +0.000 C 
ENDROOT
BRANCH   1   2
ATOM      2  C   UNL     1      47.055   8.116  13.123  0.00  0.00    +0.000 A 
ATOM      3  C   UNL     1      47.452   7.045  12.317  0.00  0.00    +0.000 A 
ATOM      4  C   UNL     1      46.553   6.454  11.418  0.00  0.00    +0.000 A 
ATOM      5  C   UNL     1      45.249   6.938  11.259  0.00  0.00    +0.000 A 
ATOM      6  C   UNL     1      44.883   8.055  12.023  0.00  0.00    +0.000 A 
ATOM      7  C   UNL     1      45.773   8.643  12.937  0.00  0.00    +0.000 A 
BRANCH   5   8
ATOM      8  N   UNL     1      44.271   6.290  10.503  0.00  0.00    +0.000 N 
ATOM      9  H   UNL     1      44.301   6.513   9.512  0.00  0.00    +0.000 HD
BRANCH   8  10
ATOM     10  C   UNL     1      43.841   4.937  10.840  0.00  0.00    +0.000 C 
BRANCH  10  11
ATOM     11  C   UNL     1      44.103   3.941   9.696  0.00  0.00    +0.000 C 
ATOM     12  C   UNL     1      44.290   2.504  10.202  0.00  0.00    +0.000 C 
ATOM     13  C   UNL     1      44.690   1.578   9.057  0.00  0.00    +0.000 C 
ATOM     14  C   UNL     1      45.918   2.106   8.318  0.00  0.00    +0.000 C 
ATOM     15  N   UNL     1      45.688   3.468   7.818  0.00  0.00    +0.000 NA
ATOM     16  C   UNL     1      46.866   3.943   7.087  0.00  0.00    +0.000 C 
ATOM     17  C   UNL     1      45.358   4.389   8.916  0.00  0.00    +0.000 C 
ENDBRANCH  10  11
ENDBRANCH   8  10
ENDBRANCH   5   8
ENDBRANCH   1   2
BRANCH   1  20
ATOM     18  C   UNL     1      49.416   7.118  15.435  0.00  0.00    +0.000 C 
ATOM     19  O   UNL     1      50.377   7.343  14.696  0.00  0.00    +0.000 OA
ATOM     20  N   UNL     1      48.211   7.731  15.238  0.00  0.00    +0.000 N 
ATOM     21  H   UNL     1      47.425   7.513  15.837  0.00  0.00    +0.000 HD
BRANCH  18  29
ATOM     22  C   UNL     1      47.598   4.350  16.364  0.00  0.00    +0.000 A 
ATOM     23  N   UNL     1      47.084   3.242  16.932  0.00  0.00    +0.000 NA
ATOM     24  C   UNL     1      47.661   2.784  18.046  0.00  0.00    +0.000 A 
ATOM     25  N   UNL     1      48.707   3.309  18.681  0.00  0.00    +0.000 NA
ATOM     26  C   UNL     1      49.194   4.405  18.076  0.00  0.00    +0.000 A 
ATOM     27  S   UNL     1      50.527   5.211  18.749  0.00  0.00    +0.000 S 
ATOM     28  C   UNL     1      50.519   6.369  17.506  0.00  0.00    +0.000 A 
ATOM     29  C   UNL     1      49.519   6.174  16.559  0.00  0.00    +0.000 A 
ATOM     30  C   UNL     1      48.719   4.998  16.910  0.00  0.00    +0.000 A 
BRANCH  22  32
ATOM     31  C   UNL     1      46.900   3.816  14.192  0.00  0.00    +0.000 C 
ATOM     32  O   UNL     1      47.017   4.813  15.204  0.00  0.00    +0.000 OA
ENDBRANCH  22  32
ENDBRANCH  18  29
ENDBRANCH   1  20
TORSDOF 7
ENDMDL
MODEL 4
REMARK VINA RESULT:    -7.138      1.913      3.446
REMARK INTER + INTRA:         -11.341
REMARK INTER:                 -10.190
REMARK INTRA:                  -1.150
REMARK UNBOUND:                -1.282
REMARK  Name = 
REMARK  9 active torsions:
REMARK  status: ('A' for Active; 'I' for Inactive)
REMARK    1  A    between atoms: C_1  and  O_2
REMARK    2  A    between atoms: O_2  and  C_3
REMARK    3  A    between atoms: C_10  and  C_11
REMARK    4  A    between atoms: N_13  and  C_14
REMARK    5  A    between atoms: C_14  and  C_15
REMARK    6  A    between atoms: C_18  and  N_19
REMARK    7  A    between atoms: N_19  and  C_20
REMARK    8  A    between atoms: C_20  and  C_21
REMARK    9  A    between atoms: N_25  and  C_26
REMARK                            x       y       z     vdW  Elec       q    Type
REMARK                         _______ _______ _______ _____ _____    ______ ____
ROOT
ATOM      1  C   UNL     1      47.139   3.980  14.804  0.00  0.00    +0.000 C 
ENDROOT
BRANCH   1   2
ATOM      2  C   UNL     1      46.419   4.325  13.525  0.00  0.00    +0.000 A 
ATOM      3  C   UNL     1      46.573   5.588  12.945  0.00  0.00    +0.000 A 
ATOM      4  C   UNL     1      45.997   5.878  11.700  0.00  0.00    +0.000 A 
ATOM      5  C   UNL     1      45.215   4.939  11.016  0.00  0.00    +0.000 A 
ATOM      6  C   UNL     1      45.011   3.700  11.640  0.00  0.00    +0.000 A 
ATOM      7  C   UNL     1      45.598   3.396  12.879  0.00  0.00    +0.000 A 
BRANCH   5   8
ATOM      8  N   UNL     1      44.757   5.119   9.710  0.00  0.00    +0.000 N 
ATOM      9  H   UNL     1      45.100   5.966   9.266  0.00  0.00    +0.000 HD
BRANCH   8  10
ATOM     10  C   UNL     1      44.548   3.976   8.828  0.00  0.00    +0.000 C 
BRANCH  10  11
ATOM     11  C   UNL     1      45.873   3.307   8.418  0.00  0.00    +0.000 C 
ATOM     12  C   UNL     1      46.445   3.889   7.118  0.00  0.00    +0.000 C 
ATOM     13  C   UNL     1      47.674   3.103   6.672  0.00  0.00    +0.000 C 
ATOM     14  C   UNL     1      47.371   1.609   6.564  0.00  0.00    +0.000 C 
ATOM     15  N   UNL     1      46.859   1.082   7.836  0.00  0.00    +0.000 NA
ATOM     16  C   UNL     1      46.605  -0.356   7.720  0.00  0.00    +0.000 C 
ATOM     17  C   UNL     1      45.640   1.790   8.255  0.00  0.00    +0.000 C 
ENDBRANCH  10  11
ENDBRANCH   8  10
ENDBRANCH   5   8
ENDBRANCH   1   2
BRANCH   1  20
ATOM     18  C   UNL     1      48.441   5.191  16.504  0.00  0.00    +0.000 C 
ATOM     19  O   UNL     1      49.167   4.213  16.698  0.00  0.00    +0.000 OA
ATOM     20  N   UNL     1      47.425   5.150  15.591  0.00  0.00    +0.000 N 
ATOM     21  H   UNL     1      46.821   5.952  15.465  0.00  0.00    +0.000 HD
BRANCH  18  29
ATOM     22  C   UNL     1      48.698   8.484  15.549  0.00  0.00    +0.000 A 
ATOM     23  N   UNL     1      48.803   9.824  15.456  0.00  0.00    +0.000 NA
ATOM     24  C   UNL     1      48.957  10.520  16.585  0.00  0.00    +0.000 A 
ATOM     25  N   UNL     1      49.025  10.036  17.823  0.00  0.00    +0.000 NA
ATOM     26  C   UNL     1      48.906   8.698  17.871  0.00  0.00    +0.000 A 
ATOM     27  S   UNL     1      48.974   7.904  19.369  0.00  0.00    +0.000 S 
ATOM     28  C   UNL     1      48.761   6.388  18.633  0.00  0.00    +0.000 A 
ATOM     29  C   UNL     1      48.631   6.446  17.249  0.00  0.00    +0.000 A 
ATOM     30  C   UNL     1      48.728   7.834  16.795  0.00  0.00    +0.000 A 
BRANCH  22  32
ATOM     31  C   UNL     1      49.728   7.544  13.666  0.00  0.00    +0.000 C 
ATOM     32  O   UNL     1      48.519   7.766  14.387  0.00  0.00    +0.000 OA
ENDBRANCH  22  32
ENDBRANCH  18  29
ENDBRANCH   1  20
TORSDOF 7
ENDMDL
MODEL 5
REMARK VINA RESULT:    -7.080      2.084      2.874
REMARK INTER + INTRA:         -11.259
REMARK INTER:                 -10.226
REMARK INTRA:                  -1.033
REMARK UNBOUND:                -1.282
REMARK  Name = 
REMARK  9 active torsions:
REMARK  status: ('A' for Active; 'I' for Inactive)
REMARK    1  A    between atoms: C_1  and  O_2
REMARK    2  A    between atoms: O_2  and  C_3
REMARK    3  A    between atoms: C_10  and  C_11
REMARK    4  A    between atoms: N_13  and  C_14
REMARK    5  A    between atoms: C_14  and  C_15
REMARK    6  A    between atoms: C_18  and  N_19
REMARK    7  A    between atoms: N_19  and  C_20
REMARK    8  A    between atoms: C_20  and  C_21
REMARK    9  A    between atoms: N_25  and  C_26
REMARK                            x       y       z     vdW  Elec       q    Type
REMARK                         _______ _______ _______ _____ _____    ______ ____
ROOT
ATOM      1  C   UNL     1      48.050   6.989  13.713  0.00  0.00    +0.000 C 
ENDROOT
BRANCH   1   2
ATOM      2  C   UNL     1      47.043   6.275  12.846  0.00  0.00    +0.000 A 
ATOM      3  C   UNL     1      46.514   5.044  13.243  0.00  0.00    +0.000 A 
ATOM      4  C   UNL     1      45.497   4.429  12.498  0.00  0.00    +0.000 A 
ATOM      5  C   UNL     1      45.008   4.996  11.316  0.00  0.00    +0.000 A 
ATOM      6  C   UNL     1      45.594   6.198  10.892  0.00  0.00    +0.000 A 
ATOM      7  C   UNL     1      46.602   6.827  11.640  0.00  0.00    +0.000 A 
BRANCH   5   8
ATOM      8  N   UNL     1      43.893   4.512  10.630  0.00  0.00    +0.000 N 
ATOM      9  H   UNL     1      43.322   5.238  10.206  0.00  0.00    +0.000 HD
BRANCH   8  10
ATOM     10  C   UNL     1      43.952   3.245   9.910  0.00  0.00    +0.000 C 
BRANCH  10  11
ATOM     11  C   UNL     1      45.287   3.060   9.165  0.00  0.00    +0.000 C 
ATOM     12  C   UNL     1      45.408   3.982   7.944  0.00  0.00    +0.000 C 
ATOM     13  C   UNL     1      46.675   3.663   7.155  0.00  0.00    +0.000 C 
ATOM     14  C   UNL     1      46.744   2.183   6.784  0.00  0.00    +0.000 C 
ATOM     15  N   UNL     1      46.660   1.336   7.981  0.00  0.00    +0.000 NA
ATOM     16  C   UNL     1      46.759  -0.077   7.607  0.00  0.00    +0.000 C 
ATOM     17  C   UNL     1      45.416   1.586   8.725  0.00  0.00    +0.000 C 
ENDBRANCH  10  11
ENDBRANCH   8  10
ENDBRANCH   5   8
ENDBRANCH   1   2
BRANCH   1  20
ATOM     18  C   UNL     1      49.162   6.404  15.828  0.00  0.00    +0.000 C 
ATOM     19  O   UNL     1      50.264   6.726  15.380  0.00  0.00    +0.000 OA
ATOM     20  N   UNL     1      48.031   6.505  15.067  0.00  0.00    +0.000 N 
ATOM     21  H   UNL     1      47.138   6.209  15.440  0.00  0.00    +0.000 HD
BRANCH  18  29
ATOM     22  C   UNL     1      49.179   7.904  18.922  0.00  0.00    +0.000 A 
ATOM     23  N   UNL     1      49.121   8.231  20.228  0.00  0.00    +0.000 NA
ATOM     24  C   UNL     1      48.926   7.247  21.111  0.00  0.00    +0.000 A 
ATOM     25  N   UNL     1      48.783   5.950  20.848  0.00  0.00    +0.000 NA
ATOM     26  C   UNL     1      48.837   5.671  19.535  0.00  0.00    +0.000 A 
ATOM     27  S   UNL     1      48.678   4.064  19.013  0.00  0.00    +0.000 S 
ATOM     28  C   UNL     1      48.839   4.523  17.385  0.00  0.00    +0.000 A 
ATOM     29  C   UNL     1      49.012   5.890  17.199  0.00  0.00    +0.000 A 
ATOM     30  C   UNL     1      49.019   6.575  18.493  0.00  0.00    +0.000 A 
BRANCH  22  32
ATOM     31  C   UNL     1      48.142   9.532  17.592  0.00  0.00    +0.000 C 
ATOM     32  O   UNL     1      49.360   8.919  18.008  0.00  0.00    +0.000 OA
ENDBRANCH  22  32
ENDBRANCH  18  29
ENDBRANCH   1  20
TORSDOF 7
ENDMDL
MODEL 6
REMARK VINA RESULT:    -7.052      2.266      3.103
REMARK INTER + INTRA:         -11.220
REMARK INTER:                 -10.151
REMARK INTRA:                  -1.069
REMARK UNBOUND:                -1.282
REMARK  Name = 
REMARK  9 active torsions:
REMARK  status: ('A' for Active; 'I' for Inactive)
REMARK    1  A    between atoms: C_1  and  O_2
REMARK    2  A    between atoms: O_2  and  C_3
REMARK    3  A    between atoms: C_10  and  C_11
REMARK    4  A    between atoms: N_13  and  C_14
REMARK    5  A    between atoms: C_14  and  C_15
REMARK    6  A    between atoms: C_18  and  N_19
REMARK    7  A    between atoms: N_19  and  C_20
REMARK    8  A    between atoms: C_20  and  C_21
REMARK    9  A    between atoms: N_25  and  C_26
REMARK                            x       y       z     vdW  Elec       q    Type
REMARK                         _______ _______ _______ _____ _____    ______ ____
ROOT
ATOM      1  C   UNL     1      48.755   7.453  15.590  0.00  0.00    +0.000 C 
ENDROOT
BRANCH   1   2
ATOM      2  C   UNL     1      48.123   7.013  14.294  0.00  0.00    +0.000 A 
ATOM      3  C   UNL     1      47.290   5.890  14.258  0.00  0.00    +0.000 A 
ATOM      4  C   UNL     1      46.611   5.541  13.082  0.00  0.00    +0.000 A 
ATOM      5  C   UNL     1      46.774   6.268  11.896  0.00  0.00    +0.000 A 
ATOM      6  C   UNL     1      47.664   7.351  11.927  0.00  0.00    +0.000 A 
ATOM      7  C   UNL     1      48.336   7.717  13.105  0.00  0.00    +0.000 A 
BRANCH   5   8
ATOM      8  N   UNL     1      46.003   6.061  10.751  0.00  0.00    +0.000 N 
ATOM      9  H   UNL     1      46.549   5.885   9.913  0.00  0.00    +0.000 HD
BRANCH   8  10
ATOM     10  C   UNL     1      44.716   5.379  10.831  0.00  0.00    +0.000 C 
BRANCH  10  11
ATOM     11  C   UNL     1      44.567   4.290   9.752  0.00  0.00    +0.000 C 
ATOM     12  C   UNL     1      44.580   2.874  10.344  0.00  0.00    +0.000 C 
ATOM     13  C   UNL     1      44.577   1.828   9.233  0.00  0.00    +0.000 C 
ATOM     14  C   UNL     1      45.717   2.063   8.244  0.00  0.00    +0.000 C 
ATOM     15  N   UNL     1      45.650   3.415   7.673  0.00  0.00    +0.000 NA
ATOM     16  C   UNL     1      46.732   3.608   6.705  0.00  0.00    +0.000 C 
ATOM     17  C   UNL     1      45.710   4.440   8.726  0.00  0.00    +0.000 C 
ENDBRANCH  10  11
ENDBRANCH   8  10
ENDBRANCH   5   8
ENDBRANCH   1   2
BRANCH   1  20
ATOM     18  C   UNL     1      49.818   6.078  17.330  0.00  0.00    +0.000 C 
ATOM     19  O   UNL     1      49.007   6.457  18.178  0.00  0.00    +0.000 OA
ATOM     20  N   UNL     1      49.757   6.525  16.040  0.00  0.00    +0.000 N 
ATOM     21  H   UNL     1      50.448   6.225  15.364  0.00  0.00    +0.000 HD
BRANCH  18  29
ATOM     22  C   UNL     1      50.142   2.669  17.013  0.00  0.00    +0.000 A 
ATOM     23  N   UNL     1      50.534   1.380  16.983  0.00  0.00    +0.000 NA
ATOM     24  C   UNL     1      51.747   1.083  17.457  0.00  0.00    +0.000 A 
ATOM     25  N   UNL     1      52.635   1.930  17.972  0.00  0.00    +0.000 NA
ATOM     26  C   UNL     1      52.209   3.204  17.973  0.00  0.00    +0.000 A 
ATOM     27  S   UNL     1      53.211   4.423  18.598  0.00  0.00    +0.000 S 
ATOM     28  C   UNL     1      52.052   5.619  18.259  0.00  0.00    +0.000 A 
ATOM     29  C   UNL     1      50.893   5.130  17.668  0.00  0.00    +0.000 A 
ATOM     30  C   UNL     1      50.986   3.678  17.506  0.00  0.00    +0.000 A 
BRANCH  22  32
ATOM     31  C   UNL     1      47.858   2.912  17.477  0.00  0.00    +0.000 C 
ATOM     32  O   UNL     1      48.899   2.980  16.506  0.00  0.00    +0.000 OA
ENDBRANCH  22  32
ENDBRANCH  18  29
ENDBRANCH   1  20
TORSDOF 7
ENDMDL
MODEL 7
REMARK VINA RESULT:    -6.902      2.491      3.386
REMARK INTER + INTRA:         -11.008
REMARK INTER:                 -10.019
REMARK INTRA:                  -0.988
REMARK UNBOUND:                -1.282
REMARK  Name = 
REMARK  9 active torsions:
REMARK  status: ('A' for Active; 'I' for Inactive)
REMARK    1  A    between atoms: C_1  and  O_2
REMARK    2  A    between atoms: O_2  and  C_3
REMARK    3  A    between atoms: C_10  and  C_11
REMARK    4  A    between atoms: N_13  and  C_14
REMARK    5  A    between atoms: C_14  and  C_15
REMARK    6  A    between atoms: C_18  and  N_19
REMARK    7  A    between atoms: N_19  and  C_20
REMARK    8  A    between atoms: C_20  and  C_21
REMARK    9  A    between atoms: N_25  and  C_26
REMARK                            x       y       z     vdW  Elec       q    Type
REMARK                         _______ _______ _______ _____ _____    ______ ____
ROOT
ATOM      1  C   UNL     1      47.152   4.541  14.721  0.00  0.00    +0.000 C 
ENDROOT
BRANCH   1   2
ATOM      2  C   UNL     1      46.407   4.761  13.428  0.00  0.00    +0.000 A 
ATOM      3  C   UNL     1      46.722   5.846  12.605  0.00  0.00    +0.000 A 
ATOM      4  C   UNL     1      46.112   5.994  11.351  0.00  0.00    +0.000 A 
ATOM      5  C   UNL     1      45.139   5.095  10.897  0.00  0.00    +0.000 A 
ATOM      6  C   UNL     1      44.782   4.049  11.761  0.00  0.00    +0.000 A 
ATOM      7  C   UNL     1      45.400   3.885  13.011  0.00  0.00    +0.000 A 
BRANCH   5   8
ATOM      8  N   UNL     1      44.623   5.104   9.601  0.00  0.00    +0.000 N 
ATOM      9  H   UNL     1      44.904   5.911   9.051  0.00  0.00    +0.000 HD
BRANCH   8  10
ATOM     10  C   UNL     1      44.442   3.859   8.861  0.00  0.00    +0.000 C 
BRANCH  10  11
ATOM     11  C   UNL     1      45.783   3.224   8.452  0.00  0.00    +0.000 C 
ATOM     12  C   UNL     1      46.350   3.834   7.162  0.00  0.00    +0.000 C 
ATOM     13  C   UNL     1      47.599   3.079   6.714  0.00  0.00    +0.000 C 
ATOM     14  C   UNL     1      47.329   1.581   6.589  0.00  0.00    +0.000 C 
ATOM     15  N   UNL     1      46.822   1.028   7.852  0.00  0.00    +0.000 NA
ATOM     16  C   UNL     1      46.600  -0.413   7.720  0.00  0.00    +0.000 C 
ATOM     17  C   UNL     1      45.585   1.704   8.271  0.00  0.00    +0.000 C 
ENDBRANCH  10  11
ENDBRANCH   8  10
ENDBRANCH   5   8
ENDBRANCH   1   2
BRANCH   1  20
ATOM     18  C   UNL     1      48.587   5.859  16.222  0.00  0.00    +0.000 C 
ATOM     19  O   UNL     1      49.210   4.854  16.570  0.00  0.00    +0.000 OA
ATOM     20  N   UNL     1      47.563   5.783  15.320  0.00  0.00    +0.000 N 
ATOM     21  H   UNL     1      47.044   6.613  15.068  0.00  0.00    +0.000 HD
BRANCH  18  29
ATOM     22  C   UNL     1      48.053   7.350  19.275  0.00  0.00    +0.000 A 
ATOM     23  N   UNL     1      47.996   8.147  20.359  0.00  0.00    +0.000 NA
ATOM     24  C   UNL     1      48.525   9.370  20.265  0.00  0.00    +0.000 A 
ATOM     25  N   UNL     1      49.112   9.910  19.200  0.00  0.00    +0.000 NA
ATOM     26  C   UNL     1      49.157   9.078  18.146  0.00  0.00    +0.000 A 
ATOM     27  S   UNL     1      49.867   9.600  16.696  0.00  0.00    +0.000 S 
ATOM     28  C   UNL     1      49.552   8.108  15.945  0.00  0.00    +0.000 A 
ATOM     29  C   UNL     1      48.911   7.188  16.767  0.00  0.00    +0.000 A 
ATOM     30  C   UNL     1      48.667   7.777  18.085  0.00  0.00    +0.000 A 
BRANCH  22  32
ATOM     31  C   UNL     1      48.304   5.206  20.190  0.00  0.00    +0.000 C 
ATOM     32  O   UNL     1      47.526   6.081  19.376  0.00  0.00    +0.000 OA
ENDBRANCH  22  32
ENDBRANCH  18  29
ENDBRANCH   1  20
TORSDOF 7
ENDMDL
MODEL 8
REMARK VINA RESULT:    -6.620      3.105      5.350
REMARK INTER + INTRA:         -10.611
REMARK INTER:                  -9.416
REMARK INTRA:                  -1.194
REMARK UNBOUND:                -1.282
REMARK  Name = 
REMARK  9 active torsions:
REMARK  status: ('A' for Active; 'I' for Inactive)
REMARK    1  A    between atoms: C_1  and  O_2
REMARK    2  A    between atoms: O_2  and  C_3
REMARK    3  A    between atoms: C_10  and  C_11
REMARK    4  A    between atoms: N_13  and  C_14
REMARK    5  A    between atoms: C_14  and  C_15
REMARK    6  A    between atoms: C_18  and  N_19
REMARK    7  A    between atoms: N_19  and  C_20
REMARK    8  A    between atoms: C_20  and  C_21
REMARK    9  A    between atoms: N_25  and  C_26
REMARK                            x       y       z     vdW  Elec       q    Type
REMARK                         _______ _______ _______ _____ _____    ______ ____
ROOT
ATOM      1  C   UNL     1      47.968   3.712  17.385  0.00  0.00    +0.000 C 
ENDROOT
BRANCH   1   2
ATOM      2  C   UNL     1      47.823   4.396  16.049  0.00  0.00    +0.000 A 
ATOM      3  C   UNL     1      47.170   3.755  14.992  0.00  0.00    +0.000 A 
ATOM      4  C   UNL     1      46.935   4.427  13.784  0.00  0.00    +0.000 A 
ATOM      5  C   UNL     1      47.380   5.737  13.573  0.00  0.00    +0.000 A 
ATOM      6  C   UNL     1      48.093   6.346  14.616  0.00  0.00    +0.000 A 
ATOM      7  C   UNL     1      48.319   5.685  15.835  0.00  0.00    +0.000 A 
BRANCH   5   8
ATOM      8  N   UNL     1      47.032   6.502  12.459  0.00  0.00    +0.000 N 
ATOM      9  H   UNL     1      47.291   6.079  11.572  0.00  0.00    +0.000 HD
BRANCH   8  10
ATOM     10  C   UNL     1      45.812   7.301  12.453  0.00  0.00    +0.000 C 
BRANCH  10  11
ATOM     11  C   UNL     1      44.636   6.564  11.788  0.00  0.00    +0.000 C 
ATOM     12  C   UNL     1      43.785   5.785  12.801  0.00  0.00    +0.000 C 
ATOM     13  C   UNL     1      42.724   4.954  12.086  0.00  0.00    +0.000 C 
ATOM     14  C   UNL     1      43.346   4.052  11.022  0.00  0.00    +0.000 C 
ATOM     15  N   UNL     1      44.121   4.836  10.052  0.00  0.00    +0.000 NA
ATOM     16  C   UNL     1      44.683   3.956   9.025  0.00  0.00    +0.000 C 
ATOM     17  C   UNL     1      45.188   5.600  10.717  0.00  0.00    +0.000 C 
ENDBRANCH  10  11
ENDBRANCH   8  10
ENDBRANCH   5   8
ENDBRANCH   1   2
BRANCH   1  20
ATOM     18  C   UNL     1      50.041   2.427  17.066  0.00  0.00    +0.000 C 
ATOM     19  O   UNL     1      49.516   1.724  16.200  0.00  0.00    +0.000 OA
ATOM     20  N   UNL     1      49.343   3.421  17.692  0.00  0.00    +0.000 N 
ATOM     21  H   UNL     1      49.781   3.969  18.420  0.00  0.00    +0.000 HD
BRANCH  18  29
ATOM     22  C   UNL     1      52.602   4.583  17.851  0.00  0.00    +0.000 A 
ATOM     23  N   UNL     1      53.747   5.189  18.220  0.00  0.00    +0.000 NA
ATOM     24  C   UNL     1      54.794   4.417  18.522  0.00  0.00    +0.000 A 
ATOM     25  N   UNL     1      54.843   3.087  18.498  0.00  0.00    +0.000 NA
ATOM     26  C   UNL     1      53.679   2.524  18.135  0.00  0.00    +0.000 A 
ATOM     27  S   UNL     1      53.557   0.834  18.044  0.00  0.00    +0.000 S 
ATOM     28  C   UNL     1      51.928   0.926  17.568  0.00  0.00    +0.000 A 
ATOM     29  C   UNL     1      51.441   2.225  17.471  0.00  0.00    +0.000 A 
ATOM     30  C   UNL     1      52.498   3.182  17.803  0.00  0.00    +0.000 A 
BRANCH  22  32
ATOM     31  C   UNL     1      51.782   6.359  16.559  0.00  0.00    +0.000 C 
ATOM     32  O   UNL     1      51.515   5.377  17.557  0.00  0.00    +0.000 OA
ENDBRANCH  22  32
ENDBRANCH  18  29
ENDBRANCH   1  20
TORSDOF 7
ENDMDL
MODEL 9
REMARK VINA RESULT:    -6.406      2.456      4.550
REMARK INTER + INTRA:         -10.309
REMARK INTER:                  -9.172
REMARK INTRA:                  -1.137
REMARK UNBOUND:                -1.282
REMARK  Name = 
REMARK  9 active torsions:
REMARK  status: ('A' for Active; 'I' for Inactive)
REMARK    1  A    between atoms: C_1  and  O_2
REMARK    2  A    between atoms: O_2  and  C_3
REMARK    3  A    between atoms: C_10  and  C_11
REMARK    4  A    between atoms: N_13  and  C_14
REMARK    5  A    between atoms: C_14  and  C_15
REMARK    6  A    between atoms: C_18  and  N_19
REMARK    7  A    between atoms: N_19  and  C_20
REMARK    8  A    between atoms: C_20  and  C_21
REMARK    9  A    between atoms: N_25  and  C_26
REMARK                            x       y       z     vdW  Elec       q    Type
REMARK                         _______ _______ _______ _____ _____    ______ ____
ROOT
ATOM      1  C   UNL     1      47.177   5.348  14.702  0.00  0.00    +0.000 C 
ENDROOT
BRANCH   1   2
ATOM      2  C   UNL     1      46.268   4.980  13.557  0.00  0.00    +0.000 A 
ATOM      3  C   UNL     1      45.644   5.975  12.799  0.00  0.00    +0.000 A 
ATOM      4  C   UNL     1      44.888   5.643  11.666  0.00  0.00    +0.000 A 
ATOM      5  C   UNL     1      44.690   4.313  11.279  0.00  0.00    +0.000 A 
ATOM      6  C   UNL     1      45.264   3.320  12.085  0.00  0.00    +0.000 A 
ATOM      7  C   UNL     1      46.037   3.644  13.213  0.00  0.00    +0.000 A 
BRANCH   5   8
ATOM      8  N   UNL     1      44.087   3.939  10.077  0.00  0.00    +0.000 N 
ATOM      9  H   UNL     1      43.071   3.938  10.109  0.00  0.00    +0.000 HD
BRANCH   8  10
ATOM     10  C   UNL     1      44.685   4.301   8.797  0.00  0.00    +0.000 C 
BRANCH  10  11
ATOM     11  C   UNL     1      45.119   3.065   7.987  0.00  0.00    +0.000 C 
ATOM     12  C   UNL     1      45.620   1.924   8.883  0.00  0.00    +0.000 C 
ATOM     13  C   UNL     1      46.174   0.781   8.037  0.00  0.00    +0.000 C 
ATOM     14  C   UNL     1      47.241   1.276   7.062  0.00  0.00    +0.000 C 
ATOM     15  N   UNL     1      46.714   2.341   6.200  0.00  0.00    +0.000 NA
ATOM     16  C   UNL     1      47.742   2.779   5.253  0.00  0.00    +0.000 C 
ATOM     17  C   UNL     1      46.227   3.479   6.995  0.00  0.00    +0.000 C 
ENDBRANCH  10  11
ENDBRANCH   8  10
ENDBRANCH   5   8
ENDBRANCH   1   2
BRANCH   1  20
ATOM     18  C   UNL     1      48.998   6.920  15.216  0.00  0.00    +0.000 C 
ATOM     19  O   UNL     1      48.965   6.625  16.412  0.00  0.00    +0.000 OA
ATOM     20  N   UNL     1      48.151   6.334  14.317  0.00  0.00    +0.000 N 
ATOM     21  H   UNL     1      48.173   6.608  13.344  0.00  0.00    +0.000 HD
BRANCH  18  29
ATOM     22  C   UNL     1      48.643   9.703  13.227  0.00  0.00    +0.000 A 
ATOM     23  N   UNL     1      48.781  10.830  12.502  0.00  0.00    +0.000 NA
ATOM     24  C   UNL     1      50.006  11.349  12.379  0.00  0.00    +0.000 A 
ATOM     25  N   UNL     1      51.135  10.871  12.897  0.00  0.00    +0.000 NA
ATOM     26  C   UNL     1      50.950   9.753  13.620  0.00  0.00    +0.000 A 
ATOM     27  S   UNL     1      52.283   9.000  14.353  0.00  0.00    +0.000 S 
ATOM     28  C   UNL     1      51.296   7.783  15.012  0.00  0.00    +0.000 A 
ATOM     29  C   UNL     1      49.948   7.918  14.699  0.00  0.00    +0.000 A 
ATOM     30  C   UNL     1      49.745   9.098  13.855  0.00  0.00    +0.000 A 
BRANCH  22  32
ATOM     31  C   UNL     1      46.500   9.508  12.299  0.00  0.00    +0.000 C 
ATOM     32  O   UNL     1      47.378   9.176  13.371  0.00  0.00    +0.000 OA
ENDBRANCH  22  32
ENDBRANCH  18  29
ENDBRANCH   1  20
TORSDOF 7
ENDMDL
