MODEL 1
REMARK VINA RESULT:    -7.584      0.000      0.000
REMARK INTER + INTRA:          -9.777
REMARK INTER:                  -9.358
REMARK INTRA:                  -0.419
REMARK UNBOUND:                -0.419
REMARK  Name = 
REMARK  6 active torsions:
REMARK  status: ('A' for Active; 'I' for Inactive)
REMARK    1  A    between atoms: C_1  and  C_2
REMARK    2  A    between atoms: C_2  and  C_3
REMARK    3  A    between atoms: C_2  and  C_4
REMARK    4  A    between atoms: C_2  and  C_11
REMARK    5  A    between atoms: C_4  and  C_5
REMARK    6  A    between atoms: C_14  and  C_15
REMARK                            x       y       z     vdW  Elec       q    Type
REMARK                         _______ _______ _______ _____ _____    ______ ____
ROOT
ATOM      1  C   UNL     1      45.150   5.108  11.803  0.00  0.00    +0.000 A 
ATOM      2  C   UNL     1      45.776   6.190  11.186  0.00  0.00    +0.000 A 
ATOM      3  C   UNL     1      46.967   6.693  11.709  0.00  0.00    +0.000 A 
ATOM      4  C   UNL     1      47.546   6.096  12.830  0.00  0.00    +0.000 A 
ATOM      5  C   UNL     1      46.876   5.016  13.376  0.00  0.00    +0.000 A 
ATOM      6  N   UNL     1      45.712   4.514  12.890  0.00  0.00    +0.000 NA
ENDROOT
BRANCH   4   7
ATOM      7  C   UNL     1      48.829   6.629  13.341  0.00  0.00    +0.000 C 
ATOM      8  N   UNL     1      49.751   7.124  12.463  0.00  0.00    +0.000 N 
ATOM      9  O   UNL     1      49.074   6.640  14.546  0.00  0.00    +0.000 OA
ATOM     10  H   UNL     1      49.648   7.182  11.460  0.00  0.00    +0.000 HD
ATOM     11  H   UNL     1      50.602   7.489  12.866  0.00  0.00    +0.000 HD
ENDBRANCH   4   7
BRANCH   1  13
ATOM     12  C   UNL     1      42.620   5.174  11.821  0.00  0.00    +0.000 C 
ATOM     13  C   UNL     1      43.871   4.469  11.246  0.00  0.00    +0.000 C 
ATOM     14  C   UNL     1      43.825   3.013  11.780  0.00  0.00    +0.000 C 
BRANCH  13  15
ATOM     15  C   UNL     1      43.798   4.412   9.679  0.00  0.00    +0.000 C 
BRANCH  15  16
ATOM     16  C   UNL     1      44.857   3.620   8.928  0.00  0.00    +0.000 A 
ATOM     17  C   UNL     1      44.934   2.224   9.055  0.00  0.00    +0.000 A 
ATOM     18  C   UNL     1      45.902   1.489   8.364  0.00  0.00    +0.000 A 
ATOM     19  C   UNL     1      46.811   2.140   7.533  0.00  0.00    +0.000 A 
ATOM     20  C   UNL     1      46.731   3.519   7.373  0.00  0.00    +0.000 A 
ATOM     21  C   UNL     1      45.747   4.248   8.046  0.00  0.00    +0.000 A 
ENDBRANCH  15  16
ENDBRANCH  13  15
ENDBRANCH   1  13
TORSDOF 4
ENDMDL
MODEL 2
REMARK VINA RESULT:    -7.380      3.253      5.799
REMARK INTER + INTRA:          -9.524
REMARK INTER:                  -8.972
REMARK INTRA:                  -0.553
REMARK UNBOUND:                -0.419
REMARK  Name = 
REMARK  6 active torsions:
REMARK  status: ('A' for Active; 'I' for Inactive)
REMARK    1  A    between atoms: C_1  and  C_2
REMARK    2  A    between atoms: C_2  and  C_3
REMARK    3  A    between atoms: C_2  and  C_4
REMARK    4  A    between atoms: C_2  and  C_11
REMARK    5  A    between atoms: C_4  and  C_5
REMARK    6  A    between atoms: C_14  and  C_15
REMARK                            x       y       z     vdW  Elec       q    Type
REMARK                         _______ _______ _______ _____ _____    ______ ____
ROOT
ATOM      1  C   UNL     1      45.124   3.616   9.802  0.00  0.00    +0.000 A 
ATOM      2  C   UNL     1      45.620   4.541   8.886  0.00  0.00    +0.000 A 
ATOM      3  C   UNL     1      46.314   4.099   7.760  0.00  0.00    +0.000 A 
ATOM      4  C   UNL     1      46.485   2.733   7.535  0.00  0.00    +0.000 A 
ATOM      5  C   UNL     1      45.950   1.875   8.480  0.00  0.00    +0.000 A 
ATOM      6  N   UNL     1      45.279   2.282   9.588  0.00  0.00    +0.000 NA
ENDROOT
BRANCH   4   7
ATOM      7  C   UNL     1      47.193   2.292   6.313  0.00  0.00    +0.000 C 
ATOM      8  N   UNL     1      47.110   3.045   5.176  0.00  0.00    +0.000 N 
ATOM      9  O   UNL     1      47.864   1.261   6.308  0.00  0.00    +0.000 OA
ATOM     10  H   UNL     1      46.605   3.914   5.073  0.00  0.00    +0.000 HD
ATOM     11  H   UNL     1      47.624   2.707   4.376  0.00  0.00    +0.000 HD
ENDBRANCH   4   7
BRANCH   1  13
ATOM     12  C   UNL     1      43.324   2.902  11.434  0.00  0.00    +0.000 C 
ATOM     13  C   UNL     1      44.303   4.031  11.031  0.00  0.00    +0.000 C 
ATOM     14  C   UNL     1      43.420   5.230  10.598  0.00  0.00    +0.000 C 
BRANCH  13  15
ATOM     15  C   UNL     1      45.160   4.482  12.267  0.00  0.00    +0.000 C 
BRANCH  15  16
ATOM     16  C   UNL     1      45.700   5.903  12.300  0.00  0.00    +0.000 A 
ATOM     17  C   UNL     1      47.000   6.188  11.851  0.00  0.00    +0.000 A 
ATOM     18  C   UNL     1      47.500   7.493  11.873  0.00  0.00    +0.000 A 
ATOM     19  C   UNL     1      46.709   8.536  12.347  0.00  0.00    +0.000 A 
ATOM     20  C   UNL     1      45.410   8.277  12.769  0.00  0.00    +0.000 A 
ATOM     21  C   UNL     1      44.903   6.976  12.722  0.00  0.00    +0.000 A 
ENDBRANCH  15  16
ENDBRANCH  13  15
ENDBRANCH   1  13
TORSDOF 4
ENDMDL
MODEL 3
REMARK VINA RESULT:    -7.068      1.915      2.400
REMARK INTER + INTRA:          -9.139
REMARK INTER:                  -8.479
REMARK INTRA:                  -0.661
REMARK UNBOUND:                -0.419
REMARK  Name = 
REMARK  6 active torsions:
REMARK  status: ('A' for Active; 'I' for Inactive)
REMARK    1  A    between atoms: C_1  and  C_2
REMARK    2  A    between atoms: C_2  and  C_3
REMARK    3  A    between atoms: C_2  and  C_4
REMARK    4  A    between atoms: C_2  and  C_11
REMARK    5  A    between atoms: C_4  and  C_5
REMARK    6  A    between atoms: C_14  and  C_15
REMARK                            x       y       z     vdW  Elec       q    Type
REMARK                         _______ _______ _______ _____ _____    ______ ____
ROOT
ATOM      1  C   UNL     1      45.236   5.896  11.910  0.00  0.00    +0.000 A 
ATOM      2  C   UNL     1      46.611   5.841  12.129  0.00  0.00    +0.000 A 
ATOM      3  C   UNL     1      47.351   7.021  12.197  0.00  0.00    +0.000 A 
ATOM      4  C   UNL     1      46.712   8.256  12.076  0.00  0.00    +0.000 A 
ATOM      5  C   UNL     1      45.342   8.230  11.877  0.00  0.00    +0.000 A 
ATOM      6  N   UNL     1      44.603   7.095  11.799  0.00  0.00    +0.000 NA
ENDROOT
BRANCH   4   7
ATOM      7  C   UNL     1      47.517   9.492  12.188  0.00  0.00    +0.000 C 
ATOM      8  N   UNL     1      46.919  10.651  12.599  0.00  0.00    +0.000 N 
ATOM      9  O   UNL     1      48.718   9.492  11.927  0.00  0.00    +0.000 OA
ATOM     10  H   UNL     1      45.949  10.762  12.857  0.00  0.00    +0.000 HD
ATOM     11  H   UNL     1      47.517  11.461  12.673  0.00  0.00    +0.000 HD
ENDBRANCH   4   7
BRANCH   1  13
ATOM     12  C   UNL     1      43.203   4.765  12.907  0.00  0.00    +0.000 C 
ATOM     13  C   UNL     1      44.355   4.640  11.882  0.00  0.00    +0.000 C 
ATOM     14  C   UNL     1      45.236   3.461  12.369  0.00  0.00    +0.000 C 
BRANCH  13  15
ATOM     15  C   UNL     1      43.791   4.270  10.464  0.00  0.00    +0.000 C 
BRANCH  15  16
ATOM     16  C   UNL     1      44.735   3.659   9.441  0.00  0.00    +0.000 A 
ATOM     17  C   UNL     1      45.492   4.476   8.585  0.00  0.00    +0.000 A 
ATOM     18  C   UNL     1      46.366   3.920   7.646  0.00  0.00    +0.000 A 
ATOM     19  C   UNL     1      46.497   2.537   7.545  0.00  0.00    +0.000 A 
ATOM     20  C   UNL     1      45.775   1.714   8.404  0.00  0.00    +0.000 A 
ATOM     21  C   UNL     1      44.922   2.273   9.359  0.00  0.00    +0.000 A 
ENDBRANCH  15  16
ENDBRANCH  13  15
ENDBRANCH   1  13
TORSDOF 4
ENDMDL
MODEL 4
REMARK VINA RESULT:    -7.045      1.688      2.528
REMARK INTER + INTRA:          -9.112
REMARK INTER:                  -9.224
REMARK INTRA:                   0.113
REMARK UNBOUND:                -0.419
REMARK  Name = 
REMARK  6 active torsions:
REMARK  status: ('A' for Active; 'I' for Inactive)
REMARK    1  A    between atoms: C_1  and  C_2
REMARK    2  A    between atoms: C_2  and  C_3
REMARK    3  A    between atoms: C_2  and  C_4
REMARK    4  A    between atoms: C_2  and  C_11
REMARK    5  A    between atoms: C_4  and  C_5
REMARK    6  A    between atoms: C_14  and  C_15
REMARK                            x       y       z     vdW  Elec       q    Type
REMARK                         _______ _______ _______ _____ _____    ______ ____
ROOT
ATOM      1  C   UNL     1      45.577   4.428  11.689  0.00  0.00    +0.000 A 
ATOM      2  C   UNL     1      45.807   3.233  12.369  0.00  0.00    +0.000 A 
ATOM      3  C   UNL     1      46.422   3.254  13.620  0.00  0.00    +0.000 A 
ATOM      4  C   UNL     1      46.781   4.469  14.203  0.00  0.00    +0.000 A 
ATOM      5  C   UNL     1      46.506   5.614  13.476  0.00  0.00    +0.000 A 
ATOM      6  N   UNL     1      45.916   5.618  12.254  0.00  0.00    +0.000 NA
ENDROOT
BRANCH   4   7
ATOM      7  C   UNL     1      47.400   4.463  15.548  0.00  0.00    +0.000 C 
ATOM      8  N   UNL     1      46.890   3.650  16.520  0.00  0.00    +0.000 N 
ATOM      9  O   UNL     1      48.372   5.171  15.800  0.00  0.00    +0.000 OA
ATOM     10  H   UNL     1      46.111   3.015  16.419  0.00  0.00    +0.000 HD
ATOM     11  H   UNL     1      47.360   3.672  17.414  0.00  0.00    +0.000 HD
ENDBRANCH   4   7
BRANCH   1  13
ATOM     12  C   UNL     1      45.583   5.443   9.370  0.00  0.00    +0.000 C 
ATOM     13  C   UNL     1      44.853   4.481  10.337  0.00  0.00    +0.000 C 
ATOM     14  C   UNL     1      43.460   5.112  10.597  0.00  0.00    +0.000 C 
BRANCH  13  15
ATOM     15  C   UNL     1      44.633   3.083   9.659  0.00  0.00    +0.000 C 
BRANCH  15  16
ATOM     16  C   UNL     1      45.523   2.692   8.490  0.00  0.00    +0.000 A 
ATOM     17  C   UNL     1      46.139   1.430   8.447  0.00  0.00    +0.000 A 
ATOM     18  C   UNL     1      46.955   1.062   7.372  0.00  0.00    +0.000 A 
ATOM     19  C   UNL     1      47.168   1.951   6.322  0.00  0.00    +0.000 A 
ATOM     20  C   UNL     1      46.543   3.193   6.334  0.00  0.00    +0.000 A 
ATOM     21  C   UNL     1      45.709   3.549   7.397  0.00  0.00    +0.000 A 
ENDBRANCH  15  16
ENDBRANCH  13  15
ENDBRANCH   1  13
TORSDOF 4
ENDMDL
MODEL 5
REMARK VINA RESULT:    -5.750      3.343      6.386
REMARK INTER + INTRA:          -7.514
REMARK INTER:                  -6.796
REMARK INTRA:                  -0.718
REMARK UNBOUND:                -0.419
REMARK  Name = 
REMARK  6 active torsions:
REMARK  status: ('A' for Active; 'I' for Inactive)
REMARK    1  A    between atoms: C_1  and  C_2
REMARK    2  A    between atoms: C_2  and  C_3
REMARK    3  A    between atoms: C_2  and  C_4
REMARK    4  A    between atoms: C_2  and  C_11
REMARK    5  A    between atoms: C_4  and  C_5
REMARK    6  A    between atoms: C_14  and  C_15
REMARK                            x       y       z     vdW  Elec       q    Type
REMARK                         _______ _______ _______ _____ _____    ______ ____
ROOT
ATOM      1  C   UNL     1      46.465   6.488  12.354  0.00  0.00    +0.000 A 
ATOM      2  C   UNL     1      45.952   5.578  13.276  0.00  0.00    +0.000 A 
ATOM      3  C   UNL     1      45.141   4.531  12.840  0.00  0.00    +0.000 A 
ATOM      4  C   UNL     1      44.867   4.377  11.481  0.00  0.00    +0.000 A 
ATOM      5  C   UNL     1      45.426   5.309  10.624  0.00  0.00    +0.000 A 
ATOM      6  N   UNL     1      46.211   6.341  11.026  0.00  0.00    +0.000 NA
ENDROOT
BRANCH   4   7
ATOM      7  C   UNL     1      44.033   3.235  11.043  0.00  0.00    +0.000 C 
ATOM      8  N   UNL     1      43.474   2.412  11.979  0.00  0.00    +0.000 N 
ATOM      9  O   UNL     1      43.829   3.022   9.850  0.00  0.00    +0.000 OA
ATOM     10  H   UNL     1      43.558   2.504  12.981  0.00  0.00    +0.000 HD
ATOM     11  H   UNL     1      42.901   1.658  11.627  0.00  0.00    +0.000 HD
ENDBRANCH   4   7
BRANCH   1  13
ATOM     12  C   UNL     1      48.438   7.902  11.635  0.00  0.00    +0.000 C 
ATOM     13  C   UNL     1      47.410   7.627  12.758  0.00  0.00    +0.000 C 
ATOM     14  C   UNL     1      48.230   7.123  13.974  0.00  0.00    +0.000 C 
BRANCH  13  15
ATOM     15  C   UNL     1      46.688   8.956  13.179  0.00  0.00    +0.000 C 
BRANCH  15  16
ATOM     16  C   UNL     1      45.894   9.719  12.129  0.00  0.00    +0.000 A 
ATOM     17  C   UNL     1      44.569   9.360  11.831  0.00  0.00    +0.000 A 
ATOM     18  C   UNL     1      43.832  10.061  10.871  0.00  0.00    +0.000 A 
ATOM     19  C   UNL     1      44.408  11.130  10.192  0.00  0.00    +0.000 A 
ATOM     20  C   UNL     1      45.710  11.516  10.494  0.00  0.00    +0.000 A 
ATOM     21  C   UNL     1      46.435  10.831  11.472  0.00  0.00    +0.000 A 
ENDBRANCH  15  16
ENDBRANCH  13  15
ENDBRANCH   1  13
TORSDOF 4
ENDMDL
MODEL 6
REMARK VINA RESULT:    -5.599      3.031      6.491
REMARK INTER + INTRA:          -7.327
REMARK INTER:                  -6.736
REMARK INTRA:                  -0.592
REMARK UNBOUND:                -0.419
REMARK  Name = 
REMARK  6 active torsions:
REMARK  status: ('A' for Active; 'I' for Inactive)
REMARK    1  A    between atoms: C_1  and  C_2
REMARK    2  A    between atoms: C_2  and  C_3
REMARK    3  A    between atoms: C_2  and  C_4
REMARK    4  A    between atoms: C_2  and  C_11
REMARK    5  A    between atoms: C_4  and  C_5
REMARK    6  A    between atoms: C_14  and  C_15
REMARK                            x       y       z     vdW  Elec       q    Type
REMARK                         _______ _______ _______ _____ _____    ______ ____
ROOT
ATOM      1  C   UNL     1      46.392   6.235  12.117  0.00  0.00    +0.000 A 
ATOM      2  C   UNL     1      45.947   6.135  10.800  0.00  0.00    +0.000 A 
ATOM      3  C   UNL     1      45.194   5.030  10.405  0.00  0.00    +0.000 A 
ATOM      4  C   UNL     1      44.861   4.042  11.332  0.00  0.00    +0.000 A 
ATOM      5  C   UNL     1      45.324   4.219  12.623  0.00  0.00    +0.000 A 
ATOM      6  N   UNL     1      46.066   5.281  13.030  0.00  0.00    +0.000 NA
ENDROOT
BRANCH   4   7
ATOM      7  C   UNL     1      44.029   2.899  10.892  0.00  0.00    +0.000 C 
ATOM      8  N   UNL     1      44.449   2.121   9.851  0.00  0.00    +0.000 N 
ATOM      9  O   UNL     1      42.970   2.634  11.456  0.00  0.00    +0.000 OA
ATOM     10  H   UNL     1      45.308   2.234   9.330  0.00  0.00    +0.000 HD
ATOM     11  H   UNL     1      43.852   1.345   9.602  0.00  0.00    +0.000 HD
ENDBRANCH   4   7
BRANCH   1  13
ATOM     12  C   UNL     1      48.088   7.044  13.814  0.00  0.00    +0.000 C 
ATOM     13  C   UNL     1      47.175   7.450  12.632  0.00  0.00    +0.000 C 
ATOM     14  C   UNL     1      46.135   8.442  13.216  0.00  0.00    +0.000 C 
BRANCH  13  15
ATOM     15  C   UNL     1      48.003   8.207  11.534  0.00  0.00    +0.000 C 
BRANCH  15  16
ATOM     16  C   UNL     1      49.442   8.590  11.840  0.00  0.00    +0.000 A 
ATOM     17  C   UNL     1      50.510   7.841  11.320  0.00  0.00    +0.000 A 
ATOM     18  C   UNL     1      51.836   8.191  11.594  0.00  0.00    +0.000 A 
ATOM     19  C   UNL     1      52.116   9.296  12.393  0.00  0.00    +0.000 A 
ATOM     20  C   UNL     1      51.071  10.066  12.893  0.00  0.00    +0.000 A 
ATOM     21  C   UNL     1      49.748   9.729  12.598  0.00  0.00    +0.000 A 
ENDBRANCH  15  16
ENDBRANCH  13  15
ENDBRANCH   1  13
TORSDOF 4
ENDMDL
MODEL 7
REMARK VINA RESULT:    -5.553      2.523      4.644
REMARK INTER + INTRA:          -7.270
REMARK INTER:                  -7.218
REMARK INTRA:                  -0.051
REMARK UNBOUND:                -0.419
REMARK  Name = 
REMARK  6 active torsions:
REMARK  status: ('A' for Active; 'I' for Inactive)
REMARK    1  A    between atoms: C_1  and  C_2
REMARK    2  A    between atoms: C_2  and  C_3
REMARK    3  A    between atoms: C_2  and  C_4
REMARK    4  A    between atoms: C_2  and  C_11
REMARK    5  A    between atoms: C_4  and  C_5
REMARK    6  A    between atoms: C_14  and  C_15
REMARK                            x       y       z     vdW  Elec       q    Type
REMARK                         _______ _______ _______ _____ _____    ______ ____
ROOT
ATOM      1  C   UNL     1      47.474   6.280  13.795  0.00  0.00    +0.000 A 
ATOM      2  C   UNL     1      46.812   5.062  13.650  0.00  0.00    +0.000 A 
ATOM      3  C   UNL     1      46.887   4.107  14.663  0.00  0.00    +0.000 A 
ATOM      4  C   UNL     1      47.597   4.381  15.832  0.00  0.00    +0.000 A 
ATOM      5  C   UNL     1      48.213   5.618  15.911  0.00  0.00    +0.000 A 
ATOM      6  N   UNL     1      48.162   6.560  14.934  0.00  0.00    +0.000 NA
ENDROOT
BRANCH   4   7
ATOM      7  C   UNL     1      47.628   3.363  16.906  0.00  0.00    +0.000 C 
ATOM      8  N   UNL     1      48.827   2.858  17.322  0.00  0.00    +0.000 N 
ATOM      9  O   UNL     1      46.591   2.972  17.437  0.00  0.00    +0.000 OA
ATOM     10  H   UNL     1      49.738   3.120  16.972  0.00  0.00    +0.000 HD
ATOM     11  H   UNL     1      48.793   2.178  18.068  0.00  0.00    +0.000 HD
ENDBRANCH   4   7
BRANCH   1  13
ATOM     12  C   UNL     1      48.385   7.134  11.593  0.00  0.00    +0.000 C 
ATOM     13  C   UNL     1      47.386   7.396  12.745  0.00  0.00    +0.000 C 
ATOM     14  C   UNL     1      47.861   8.702  13.435  0.00  0.00    +0.000 C 
BRANCH  13  15
ATOM     15  C   UNL     1      45.944   7.645  12.176  0.00  0.00    +0.000 C 
BRANCH  15  16
ATOM     16  C   UNL     1      45.250   6.516  11.430  0.00  0.00    +0.000 A 
ATOM     17  C   UNL     1      45.877   5.881  10.345  0.00  0.00    +0.000 A 
ATOM     18  C   UNL     1      45.246   4.839   9.658  0.00  0.00    +0.000 A 
ATOM     19  C   UNL     1      43.978   4.414  10.044  0.00  0.00    +0.000 A 
ATOM     20  C   UNL     1      43.355   5.013  11.134  0.00  0.00    +0.000 A 
ATOM     21  C   UNL     1      43.997   6.037  11.834  0.00  0.00    +0.000 A 
ENDBRANCH  15  16
ENDBRANCH  13  15
ENDBRANCH   1  13
TORSDOF 4
ENDMDL
MODEL 8
REMARK VINA RESULT:    -5.403      3.069      7.243
REMARK INTER + INTRA:          -7.085
REMARK INTER:                  -6.569
REMARK INTRA:                  -0.516
REMARK UNBOUND:                -0.419
REMARK  Name = 
REMARK  6 active torsions:
REMARK  status: ('A' for Active; 'I' for Inactive)
REMARK    1  A    between atoms: C_1  and  C_2
REMARK    2  A    between atoms: C_2  and  C_3
REMARK    3  A    between atoms: C_2  and  C_4
REMARK    4  A    between atoms: C_2  and  C_11
REMARK    5  A    between atoms: C_4  and  C_5
REMARK    6  A    between atoms: C_14  and  C_15
REMARK                            x       y       z     vdW  Elec       q    Type
REMARK                         _______ _______ _______ _____ _____    ______ ____
ROOT
ATOM      1  C   UNL     1      46.869   6.303  12.623  0.00  0.00    +0.000 A 
ATOM      2  C   UNL     1      46.691   5.175  13.422  0.00  0.00    +0.000 A 
ATOM      3  C   UNL     1      45.784   4.188  13.036  0.00  0.00    +0.000 A 
ATOM      4  C   UNL     1      45.079   4.315  11.838  0.00  0.00    +0.000 A 
ATOM      5  C   UNL     1      45.322   5.454  11.091  0.00  0.00    +0.000 A 
ATOM      6  N   UNL     1      46.193   6.432  11.450  0.00  0.00    +0.000 NA
ENDROOT
BRANCH   4   7
ATOM      7  C   UNL     1      44.151   3.235  11.436  0.00  0.00    +0.000 C 
ATOM      8  N   UNL     1      43.744   2.316  12.362  0.00  0.00    +0.000 N 
ATOM      9  O   UNL     1      43.733   3.157  10.282  0.00  0.00    +0.000 OA
ATOM     10  H   UNL     1      44.008   2.295  13.337  0.00  0.00    +0.000 HD
ATOM     11  H   UNL     1      43.099   1.610  12.038  0.00  0.00    +0.000 HD
ENDBRANCH   4   7
BRANCH   1  13
ATOM     12  C   UNL     1      47.187   8.616  13.602  0.00  0.00    +0.000 C 
ATOM     13  C   UNL     1      47.891   7.398  12.959  0.00  0.00    +0.000 C 
ATOM     14  C   UNL     1      48.472   7.901  11.612  0.00  0.00    +0.000 C 
BRANCH  13  15
ATOM     15  C   UNL     1      49.089   6.919  13.855  0.00  0.00    +0.000 C 
BRANCH  15  16
ATOM     16  C   UNL     1      49.009   7.141  15.357  0.00  0.00    +0.000 A 
ATOM     17  C   UNL     1      48.640   6.094  16.218  0.00  0.00    +0.000 A 
ATOM     18  C   UNL     1      48.571   6.290  17.601  0.00  0.00    +0.000 A 
ATOM     19  C   UNL     1      48.868   7.536  18.146  0.00  0.00    +0.000 A 
ATOM     20  C   UNL     1      49.262   8.576  17.310  0.00  0.00    +0.000 A 
ATOM     21  C   UNL     1      49.356   8.371  15.932  0.00  0.00    +0.000 A 
ENDBRANCH  15  16
ENDBRANCH  13  15
ENDBRANCH   1  13
TORSDOF 4
ENDMDL
MODEL 9
REMARK VINA RESULT:    -5.371      3.809      7.211
REMARK INTER + INTRA:          -7.046
REMARK INTER:                  -6.344
REMARK INTRA:                  -0.702
REMARK UNBOUND:                -0.419
REMARK  Name = 
REMARK  6 active torsions:
REMARK  status: ('A' for Active; 'I' for Inactive)
REMARK    1  A    between atoms: C_1  and  C_2
REMARK    2  A    between atoms: C_2  and  C_3
REMARK    3  A    between atoms: C_2  and  C_4
REMARK    4  A    between atoms: C_2  and  C_11
REMARK    5  A    between atoms: C_4  and  C_5
REMARK    6  A    between atoms: C_14  and  C_15
REMARK                            x       y       z     vdW  Elec       q    Type
REMARK                         _______ _______ _______ _____ _____    ______ ____
ROOT
ATOM      1  C   UNL     1      47.079   6.847  13.130  0.00  0.00    +0.000 A 
ATOM      2  C   UNL     1      47.272   5.483  13.337  0.00  0.00    +0.000 A 
ATOM      3  C   UNL     1      46.179   4.617  13.317  0.00  0.00    +0.000 A 
ATOM      4  C   UNL     1      44.899   5.111  13.062  0.00  0.00    +0.000 A 
ATOM      5  C   UNL     1      44.790   6.474  12.849  0.00  0.00    +0.000 A 
ATOM      6  N   UNL     1      45.837   7.337  12.872  0.00  0.00    +0.000 NA
ENDROOT
BRANCH   4   7
ATOM      7  C   UNL     1      43.764   4.163  13.011  0.00  0.00    +0.000 C 
ATOM      8  N   UNL     1      43.986   2.862  12.657  0.00  0.00    +0.000 N 
ATOM      9  O   UNL     1      42.623   4.527  13.290  0.00  0.00    +0.000 OA
ATOM     10  H   UNL     1      44.880   2.452  12.428  0.00  0.00    +0.000 HD
ATOM     11  H   UNL     1      43.179   2.255  12.654  0.00  0.00    +0.000 HD
ENDBRANCH   4   7
BRANCH   1  13
ATOM     12  C   UNL     1      47.908   9.022  12.133  0.00  0.00    +0.000 C 
ATOM     13  C   UNL     1      48.243   7.846  13.081  0.00  0.00    +0.000 C 
ATOM     14  C   UNL     1      49.445   7.106  12.438  0.00  0.00    +0.000 C 
BRANCH  13  15
ATOM     15  C   UNL     1      48.700   8.385  14.484  0.00  0.00    +0.000 C 
BRANCH  15  16
ATOM     16  C   UNL     1      49.606   7.513  15.339  0.00  0.00    +0.000 A 
ATOM     17  C   UNL     1      50.999   7.694  15.324  0.00  0.00    +0.000 A 
ATOM     18  C   UNL     1      51.837   6.900  16.112  0.00  0.00    +0.000 A 
ATOM     19  C   UNL     1      51.297   5.910  16.929  0.00  0.00    +0.000 A 
ATOM     20  C   UNL     1      49.918   5.737  16.978  0.00  0.00    +0.000 A 
ATOM     21  C   UNL     1      49.081   6.548  16.208  0.00  0.00    +0.000 A 
ENDBRANCH  15  16
ENDBRANCH  13  15
ENDBRANCH   1  13
TORSDOF 4
ENDMDL
