MODEL 1
REMARK VINA RESULT:    -7.461      0.000      0.000
REMARK INTER + INTRA:          -9.857
REMARK INTER:                  -9.424
REMARK INTRA:                  -0.433
REMARK UNBOUND:                -0.433
REMARK  Name = 
REMARK  5 active torsions:
REMARK  status: ('A' for Active; 'I' for Inactive)
REMARK    1  A    between atoms: N_1  and  C_2
REMARK    2  A    between atoms: C_2  and  C_3
REMARK    3  A    between atoms: C_3  and  C_4
REMARK    4  A    between atoms: C_7  and  C_8
REMARK    5  A    between atoms: C_8  and  N_9
REMARK                            x       y       z     vdW  Elec       q    Type
REMARK                         _______ _______ _______ _____ _____    ______ ____
ROOT
ATOM      1  C   UNL     1      45.861   3.086   7.838  0.00  0.00    +0.000 A 
ATOM      2  C   UNL     1      45.326   2.122   8.691  0.00  0.00    +0.000 A 
ATOM      3  C   UNL     1      44.809   2.503   9.927  0.00  0.00    +0.000 A 
ATOM      4  C   UNL     1      44.850   3.849  10.296  0.00  0.00    +0.000 A 
ATOM      5  N   UNL     1      45.327   4.808   9.462  0.00  0.00    +0.000 NA
ATOM      6  C   UNL     1      45.814   4.408   8.262  0.00  0.00    +0.000 A 
ENDROOT
BRANCH   1   7
ATOM      7  C   UNL     1      46.467   2.709   6.513  0.00  0.00    +0.000 C 
BRANCH   7   8
ATOM      8  C   UNL     1      47.552   1.638   6.652  0.00  0.00    +0.000 C 
BRANCH   8   9
ATOM      9  N   UNL     1      48.598   1.824   5.648  0.00  0.00    +0.000 NA
ATOM     10  H   UNL     1      48.440   1.180   4.873  0.00  0.00    +0.000 HD
ATOM     11  H   UNL     1      49.504   1.570   6.042  0.00  0.00    +0.000 HD
ENDBRANCH   8   9
ENDBRANCH   7   8
ENDBRANCH   1   7
BRANCH   4  12
ATOM     12  C   UNL     1      44.352   4.299  11.648  0.00  0.00    +0.000 C 
BRANCH  12  13
ATOM     13  N   UNL     1      45.455   4.520  12.572  0.00  0.00    +0.000 N 
ATOM     14  N   UNL     1      45.937   3.474  13.289  0.00  0.00    +0.000 NA
ATOM     15  C   UNL     1      46.954   4.006  13.969  0.00  0.00    +0.000 A 
ATOM     16  C   UNL     1      47.118   5.385  13.725  0.00  0.00    +0.000 A 
ATOM     17  C   UNL     1      48.005   6.386  14.161  0.00  0.00    +0.000 A 
ATOM     18  C   UNL     1      47.845   7.688  13.675  0.00  0.00    +0.000 A 
ATOM     19  C   UNL     1      46.821   7.993  12.779  0.00  0.00    +0.000 A 
ATOM     20  C   UNL     1      45.929   7.009  12.334  0.00  0.00    +0.000 A 
ATOM     21  C   UNL     1      46.108   5.707  12.820  0.00  0.00    +0.000 A 
ENDBRANCH  12  13
ENDBRANCH   4  12
TORSDOF 5
ENDMDL
MODEL 2
REMARK VINA RESULT:    -7.382      1.288      2.196
REMARK INTER + INTRA:          -9.757
REMARK INTER:                  -9.309
REMARK INTRA:                  -0.448
REMARK UNBOUND:                -0.433
REMARK  Name = 
REMARK  5 active torsions:
REMARK  status: ('A' for Active; 'I' for Inactive)
REMARK    1  A    between atoms: N_1  and  C_2
REMARK    2  A    between atoms: C_2  and  C_3
REMARK    3  A    between atoms: C_3  and  C_4
REMARK    4  A    between atoms: C_7  and  C_8
REMARK    5  A    between atoms: C_8  and  N_9
REMARK                            x       y       z     vdW  Elec       q    Type
REMARK                         _______ _______ _______ _____ _____    ______ ____
ROOT
ATOM      1  C   UNL     1      46.111   2.302   7.819  0.00  0.00    +0.000 A 
ATOM      2  C   UNL     1      45.327   1.682   8.791  0.00  0.00    +0.000 A 
ATOM      3  C   UNL     1      44.528   2.456   9.631  0.00  0.00    +0.000 A 
ATOM      4  C   UNL     1      44.540   3.844   9.491  0.00  0.00    +0.000 A 
ATOM      5  N   UNL     1      45.262   4.463   8.522  0.00  0.00    +0.000 NA
ATOM      6  C   UNL     1      46.021   3.684   7.714  0.00  0.00    +0.000 A 
ENDROOT
BRANCH   1   7
ATOM      7  C   UNL     1      47.018   1.504   6.920  0.00  0.00    +0.000 C 
BRANCH   7   8
ATOM      8  C   UNL     1      48.266   2.289   6.508  0.00  0.00    +0.000 C 
BRANCH   8   9
ATOM      9  N   UNL     1      48.268   2.543   5.068  0.00  0.00    +0.000 NA
ATOM     10  H   UNL     1      49.229   2.657   4.747  0.00  0.00    +0.000 HD
ATOM     11  H   UNL     1      47.800   3.427   4.873  0.00  0.00    +0.000 HD
ENDBRANCH   8   9
ENDBRANCH   7   8
ENDBRANCH   1   7
BRANCH   4  12
ATOM     12  C   UNL     1      43.733   4.724  10.415  0.00  0.00    +0.000 C 
BRANCH  12  13
ATOM     13  N   UNL     1      44.596   5.540  11.257  0.00  0.00    +0.000 N 
ATOM     14  N   UNL     1      44.578   6.890  11.111  0.00  0.00    +0.000 NA
ATOM     15  C   UNL     1      45.418   7.315  12.055  0.00  0.00    +0.000 A 
ATOM     16  C   UNL     1      46.000   6.263  12.791  0.00  0.00    +0.000 A 
ATOM     17  C   UNL     1      46.909   6.162  13.859  0.00  0.00    +0.000 A 
ATOM     18  C   UNL     1      47.256   4.893  14.335  0.00  0.00    +0.000 A 
ATOM     19  C   UNL     1      46.715   3.744  13.758  0.00  0.00    +0.000 A 
ATOM     20  C   UNL     1      45.808   3.825  12.694  0.00  0.00    +0.000 A 
ATOM     21  C   UNL     1      45.462   5.103  12.235  0.00  0.00    +0.000 A 
ENDBRANCH  12  13
ENDBRANCH   4  12
TORSDOF 5
ENDMDL
MODEL 3
REMARK VINA RESULT:    -7.330      1.416      2.147
REMARK INTER + INTRA:          -9.692
REMARK INTER:                  -9.188
REMARK INTRA:                  -0.504
REMARK UNBOUND:                -0.433
REMARK  Name = 
REMARK  5 active torsions:
REMARK  status: ('A' for Active; 'I' for Inactive)
REMARK    1  A    between atoms: N_1  and  C_2
REMARK    2  A    between atoms: C_2  and  C_3
REMARK    3  A    between atoms: C_3  and  C_4
REMARK    4  A    between atoms: C_7  and  C_8
REMARK    5  A    between atoms: C_8  and  N_9
REMARK                            x       y       z     vdW  Elec       q    Type
REMARK                         _______ _______ _______ _____ _____    ______ ____
ROOT
ATOM      1  C   UNL     1      45.900   2.483   8.020  0.00  0.00    +0.000 A 
ATOM      2  C   UNL     1      45.987   3.874   8.003  0.00  0.00    +0.000 A 
ATOM      3  C   UNL     1      45.249   4.624   8.916  0.00  0.00    +0.000 A 
ATOM      4  C   UNL     1      44.420   3.964   9.826  0.00  0.00    +0.000 A 
ATOM      5  N   UNL     1      44.356   2.609   9.887  0.00  0.00    +0.000 NA
ATOM      6  C   UNL     1      45.092   1.907   8.993  0.00  0.00    +0.000 A 
ENDROOT
BRANCH   1   7
ATOM      7  C   UNL     1      46.650   1.640   7.023  0.00  0.00    +0.000 C 
BRANCH   7   8
ATOM      8  C   UNL     1      48.068   2.157   6.773  0.00  0.00    +0.000 C 
BRANCH   8   9
ATOM      9  N   UNL     1      48.471   1.921   5.388  0.00  0.00    +0.000 NA
ATOM     10  H   UNL     1      49.261   1.277   5.371  0.00  0.00    +0.000 HD
ATOM     11  H   UNL     1      48.810   2.790   4.974  0.00  0.00    +0.000 HD
ENDBRANCH   8   9
ENDBRANCH   7   8
ENDBRANCH   1   7
BRANCH   4  12
ATOM     12  C   UNL     1      43.561   4.738  10.796  0.00  0.00    +0.000 C 
BRANCH  12  13
ATOM     13  N   UNL     1      44.374   5.508  11.727  0.00  0.00    +0.000 N 
ATOM     14  N   UNL     1      45.086   4.854  12.680  0.00  0.00    +0.000 NA
ATOM     15  C   UNL     1      45.745   5.833  13.301  0.00  0.00    +0.000 A 
ATOM     16  C   UNL     1      45.449   7.111  12.784  0.00  0.00    +0.000 A 
ATOM     17  C   UNL     1      45.859   8.428  13.059  0.00  0.00    +0.000 A 
ATOM     18  C   UNL     1      45.324   9.475  12.299  0.00  0.00    +0.000 A 
ATOM     19  C   UNL     1      44.395   9.220  11.290  0.00  0.00    +0.000 A 
ATOM     20  C   UNL     1      43.977   7.915  11.002  0.00  0.00    +0.000 A 
ATOM     21  C   UNL     1      44.529   6.876  11.764  0.00  0.00    +0.000 A 
ENDBRANCH  12  13
ENDBRANCH   4  12
TORSDOF 5
ENDMDL
MODEL 4
REMARK VINA RESULT:    -6.517      2.057      6.075
REMARK INTER + INTRA:          -8.664
REMARK INTER:                  -8.199
REMARK INTRA:                  -0.465
REMARK UNBOUND:                -0.433
REMARK  Name = 
REMARK  5 active torsions:
REMARK  status: ('A' for Active; 'I' for Inactive)
REMARK    1  A    between atoms: N_1  and  C_2
REMARK    2  A    between atoms: C_2  and  C_3
REMARK    3  A    between atoms: C_3  and  C_4
REMARK    4  A    between atoms: C_7  and  C_8
REMARK    5  A    between atoms: C_8  and  N_9
REMARK                            x       y       z     vdW  Elec       q    Type
REMARK                         _______ _______ _______ _____ _____    ______ ____
ROOT
ATOM      1  C   UNL     1      46.619   7.431  13.089  0.00  0.00    +0.000 A 
ATOM      2  C   UNL     1      45.863   8.202  12.206  0.00  0.00    +0.000 A 
ATOM      3  C   UNL     1      44.823   7.613  11.491  0.00  0.00    +0.000 A 
ATOM      4  C   UNL     1      44.565   6.251  11.662  0.00  0.00    +0.000 A 
ATOM      5  N   UNL     1      45.261   5.495  12.549  0.00  0.00    +0.000 NA
ATOM      6  C   UNL     1      46.261   6.097  13.237  0.00  0.00    +0.000 A 
ENDROOT
BRANCH   1   7
ATOM      7  C   UNL     1      47.777   8.022  13.849  0.00  0.00    +0.000 C 
BRANCH   7   8
ATOM      8  C   UNL     1      48.906   7.011  14.067  0.00  0.00    +0.000 C 
BRANCH   8   9
ATOM      9  N   UNL     1      49.760   6.921  12.884  0.00  0.00    +0.000 NA
ATOM     10  H   UNL     1      49.523   7.675  12.239  0.00  0.00    +0.000 HD
ATOM     11  H   UNL     1      49.567   6.053  12.384  0.00  0.00    +0.000 HD
ENDBRANCH   8   9
ENDBRANCH   7   8
ENDBRANCH   1   7
BRANCH   4  12
ATOM     12  C   UNL     1      43.485   5.560  10.867  0.00  0.00    +0.000 C 
BRANCH  12  13
ATOM     13  N   UNL     1      43.889   4.216  10.479  0.00  0.00    +0.000 N 
ATOM     14  N   UNL     1      43.352   3.151  11.127  0.00  0.00    +0.000 NA
ATOM     15  C   UNL     1      43.882   2.104  10.494  0.00  0.00    +0.000 A 
ATOM     16  C   UNL     1      44.775   2.473   9.468  0.00  0.00    +0.000 A 
ATOM     17  C   UNL     1      45.567   1.790   8.527  0.00  0.00    +0.000 A 
ATOM     18  C   UNL     1      46.349   2.534   7.636  0.00  0.00    +0.000 A 
ATOM     19  C   UNL     1      46.350   3.927   7.681  0.00  0.00    +0.000 A 
ATOM     20  C   UNL     1      45.568   4.624   8.610  0.00  0.00    +0.000 A 
ATOM     21  C   UNL     1      44.782   3.867   9.490  0.00  0.00    +0.000 A 
ENDBRANCH  12  13
ENDBRANCH   4  12
TORSDOF 5
ENDMDL
MODEL 5
REMARK VINA RESULT:    -6.014      2.289      6.089
REMARK INTER + INTRA:          -8.029
REMARK INTER:                  -7.769
REMARK INTRA:                  -0.261
REMARK UNBOUND:                -0.433
REMARK  Name = 
REMARK  5 active torsions:
REMARK  status: ('A' for Active; 'I' for Inactive)
REMARK    1  A    between atoms: N_1  and  C_2
REMARK    2  A    between atoms: C_2  and  C_3
REMARK    3  A    between atoms: C_3  and  C_4
REMARK    4  A    between atoms: C_7  and  C_8
REMARK    5  A    between atoms: C_8  and  N_9
REMARK                            x       y       z     vdW  Elec       q    Type
REMARK                         _______ _______ _______ _____ _____    ______ ____
ROOT
ATOM      1  C   UNL     1      47.894   7.077  13.751  0.00  0.00    +0.000 A 
ATOM      2  C   UNL     1      47.587   5.755  13.432  0.00  0.00    +0.000 A 
ATOM      3  C   UNL     1      46.403   5.463  12.760  0.00  0.00    +0.000 A 
ATOM      4  C   UNL     1      45.534   6.505  12.429  0.00  0.00    +0.000 A 
ATOM      5  N   UNL     1      45.836   7.802  12.691  0.00  0.00    +0.000 NA
ATOM      6  C   UNL     1      46.999   8.056  13.337  0.00  0.00    +0.000 A 
ENDROOT
BRANCH   1   7
ATOM      7  C   UNL     1      49.143   7.429  14.513  0.00  0.00    +0.000 C 
BRANCH   7   8
ATOM      8  C   UNL     1      50.180   8.138  13.637  0.00  0.00    +0.000 C 
BRANCH   8   9
ATOM      9  N   UNL     1      50.395   7.405  12.391  0.00  0.00    +0.000 NA
ATOM     10  H   UNL     1      51.027   7.935  11.792  0.00  0.00    +0.000 HD
ATOM     11  H   UNL     1      49.517   7.332  11.877  0.00  0.00    +0.000 HD
ENDBRANCH   8   9
ENDBRANCH   7   8
ENDBRANCH   1   7
BRANCH   4  12
ATOM     12  C   UNL     1      44.215   6.229  11.750  0.00  0.00    +0.000 C 
BRANCH  12  13
ATOM     13  N   UNL     1      44.122   4.842  11.315  0.00  0.00    +0.000 N 
ATOM     14  N   UNL     1      43.427   3.957  12.074  0.00  0.00    +0.000 NA
ATOM     15  C   UNL     1      43.493   2.826  11.369  0.00  0.00    +0.000 A 
ATOM     16  C   UNL     1      44.243   2.958  10.183  0.00  0.00    +0.000 A 
ATOM     17  C   UNL     1      44.603   2.112   9.119  0.00  0.00    +0.000 A 
ATOM     18  C   UNL     1      45.386   2.628   8.080  0.00  0.00    +0.000 A 
ATOM     19  C   UNL     1      45.808   3.957   8.099  0.00  0.00    +0.000 A 
ATOM     20  C   UNL     1      45.458   4.814   9.150  0.00  0.00    +0.000 A 
ATOM     21  C   UNL     1      44.666   4.287  10.178  0.00  0.00    +0.000 A 
ENDBRANCH  12  13
ENDBRANCH   4  12
TORSDOF 5
ENDMDL
MODEL 6
REMARK VINA RESULT:    -5.832      1.919      3.018
REMARK INTER + INTRA:          -7.800
REMARK INTER:                  -7.383
REMARK INTRA:                  -0.417
REMARK UNBOUND:                -0.433
REMARK  Name = 
REMARK  5 active torsions:
REMARK  status: ('A' for Active; 'I' for Inactive)
REMARK    1  A    between atoms: N_1  and  C_2
REMARK    2  A    between atoms: C_2  and  C_3
REMARK    3  A    between atoms: C_3  and  C_4
REMARK    4  A    between atoms: C_7  and  C_8
REMARK    5  A    between atoms: C_8  and  N_9
REMARK                            x       y       z     vdW  Elec       q    Type
REMARK                         _______ _______ _______ _____ _____    ______ ____
ROOT
ATOM      1  C   UNL     1      44.820   3.210   9.815  0.00  0.00    +0.000 A 
ATOM      2  C   UNL     1      45.301   4.482   9.510  0.00  0.00    +0.000 A 
ATOM      3  C   UNL     1      45.281   5.480  10.482  0.00  0.00    +0.000 A 
ATOM      4  C   UNL     1      44.764   5.189  11.745  0.00  0.00    +0.000 A 
ATOM      5  N   UNL     1      44.332   3.945  12.075  0.00  0.00    +0.000 NA
ATOM      6  C   UNL     1      44.372   2.992  11.112  0.00  0.00    +0.000 A 
ENDROOT
BRANCH   1   7
ATOM      7  C   UNL     1      44.786   2.117   8.780  0.00  0.00    +0.000 C 
BRANCH   7   8
ATOM      8  C   UNL     1      46.106   1.999   8.014  0.00  0.00    +0.000 C 
BRANCH   8   9
ATOM      9  N   UNL     1      46.561   0.610   7.975  0.00  0.00    +0.000 NA
ATOM     10  H   UNL     1      47.580   0.590   7.950  0.00  0.00    +0.000 HD
ATOM     11  H   UNL     1      46.251   0.170   7.109  0.00  0.00    +0.000 HD
ENDBRANCH   8   9
ENDBRANCH   7   8
ENDBRANCH   1   7
BRANCH   4  12
ATOM     12  C   UNL     1      44.673   6.254  12.811  0.00  0.00    +0.000 C 
BRANCH  12  13
ATOM     13  N   UNL     1      45.871   7.081  12.838  0.00  0.00    +0.000 N 
ATOM     14  N   UNL     1      47.045   6.531  13.240  0.00  0.00    +0.000 NA
ATOM     15  C   UNL     1      47.921   7.525  13.088  0.00  0.00    +0.000 A 
ATOM     16  C   UNL     1      47.329   8.716  12.622  0.00  0.00    +0.000 A 
ATOM     17  C   UNL     1      47.782  10.007  12.298  0.00  0.00    +0.000 A 
ATOM     18  C   UNL     1      46.857  10.956  11.849  0.00  0.00    +0.000 A 
ATOM     19  C   UNL     1      45.506  10.631  11.729  0.00  0.00    +0.000 A 
ATOM     20  C   UNL     1      45.036   9.351  12.047  0.00  0.00    +0.000 A 
ATOM     21  C   UNL     1      45.976   8.408  12.485  0.00  0.00    +0.000 A 
ENDBRANCH  12  13
ENDBRANCH   4  12
TORSDOF 5
ENDMDL
MODEL 7
REMARK VINA RESULT:    -5.569      4.066      7.584
REMARK INTER + INTRA:          -7.468
REMARK INTER:                  -7.385
REMARK INTRA:                  -0.083
REMARK UNBOUND:                -0.433
REMARK  Name = 
REMARK  5 active torsions:
REMARK  status: ('A' for Active; 'I' for Inactive)
REMARK    1  A    between atoms: N_1  and  C_2
REMARK    2  A    between atoms: C_2  and  C_3
REMARK    3  A    between atoms: C_3  and  C_4
REMARK    4  A    between atoms: C_7  and  C_8
REMARK    5  A    between atoms: C_8  and  N_9
REMARK                            x       y       z     vdW  Elec       q    Type
REMARK                         _______ _______ _______ _____ _____    ______ ____
ROOT
ATOM      1  C   UNL     1      50.687   2.870  17.479  0.00  0.00    +0.000 A 
ATOM      2  C   UNL     1      50.172   4.097  17.895  0.00  0.00    +0.000 A 
ATOM      3  C   UNL     1      48.942   4.532  17.405  0.00  0.00    +0.000 A 
ATOM      4  C   UNL     1      48.252   3.733  16.492  0.00  0.00    +0.000 A 
ATOM      5  N   UNL     1      48.716   2.515  16.109  0.00  0.00    +0.000 NA
ATOM      6  C   UNL     1      49.910   2.114  16.610  0.00  0.00    +0.000 A 
ENDROOT
BRANCH   1   7
ATOM      7  C   UNL     1      52.030   2.384  17.953  0.00  0.00    +0.000 C 
BRANCH   7   8
ATOM      8  C   UNL     1      52.395   1.017  17.369  0.00  0.00    +0.000 C 
BRANCH   8   9
ATOM      9  N   UNL     1      52.201  -0.041  18.360  0.00  0.00    +0.000 NA
ATOM     10  H   UNL     1      52.394  -0.945  17.930  0.00  0.00    +0.000 HD
ATOM     11  H   UNL     1      51.223  -0.069  18.647  0.00  0.00    +0.000 HD
ENDBRANCH   8   9
ENDBRANCH   7   8
ENDBRANCH   1   7
BRANCH   4  12
ATOM     12  C   UNL     1      46.944   4.190  15.894  0.00  0.00    +0.000 C 
BRANCH  12  13
ATOM     13  N   UNL     1      47.161   5.020  14.718  0.00  0.00    +0.000 N 
ATOM     14  N   UNL     1      48.251   5.827  14.669  0.00  0.00    +0.000 NA
ATOM     15  C   UNL     1      48.172   6.383  13.460  0.00  0.00    +0.000 A 
ATOM     16  C   UNL     1      47.034   5.972  12.737  0.00  0.00    +0.000 A 
ATOM     17  C   UNL     1      46.498   6.238  11.464  0.00  0.00    +0.000 A 
ATOM     18  C   UNL     1      45.303   5.613  11.090  0.00  0.00    +0.000 A 
ATOM     19  C   UNL     1      44.649   4.745  11.963  0.00  0.00    +0.000 A 
ATOM     20  C   UNL     1      45.168   4.468  13.234  0.00  0.00    +0.000 A 
ATOM     21  C   UNL     1      46.371   5.092  13.592  0.00  0.00    +0.000 A 
ENDBRANCH  12  13
ENDBRANCH   4  12
TORSDOF 5
ENDMDL
MODEL 8
REMARK VINA RESULT:    -5.290      3.608      7.637
REMARK INTER + INTRA:          -7.115
REMARK INTER:                  -6.693
REMARK INTRA:                  -0.422
REMARK UNBOUND:                -0.433
REMARK  Name = 
REMARK  5 active torsions:
REMARK  status: ('A' for Active; 'I' for Inactive)
REMARK    1  A    between atoms: N_1  and  C_2
REMARK    2  A    between atoms: C_2  and  C_3
REMARK    3  A    between atoms: C_3  and  C_4
REMARK    4  A    between atoms: C_7  and  C_8
REMARK    5  A    between atoms: C_8  and  N_9
REMARK                            x       y       z     vdW  Elec       q    Type
REMARK                         _______ _______ _______ _____ _____    ______ ____
ROOT
ATOM      1  C   UNL     1      48.371   5.551  17.176  0.00  0.00    +0.000 A 
ATOM      2  C   UNL     1      48.806   6.717  16.548  0.00  0.00    +0.000 A 
ATOM      3  C   UNL     1      48.626   6.870  15.175  0.00  0.00    +0.000 A 
ATOM      4  C   UNL     1      48.025   5.841  14.449  0.00  0.00    +0.000 A 
ATOM      5  N   UNL     1      47.556   4.717  15.049  0.00  0.00    +0.000 NA
ATOM      6  C   UNL     1      47.736   4.601  16.387  0.00  0.00    +0.000 A 
ENDROOT
BRANCH   1   7
ATOM      7  C   UNL     1      48.584   5.331  18.650  0.00  0.00    +0.000 C 
BRANCH   7   8
ATOM      8  C   UNL     1      48.857   3.862  18.986  0.00  0.00    +0.000 C 
BRANCH   8   9
ATOM      9  N   UNL     1      48.423   3.552  20.348  0.00  0.00    +0.000 NA
ATOM     10  H   UNL     1      47.572   2.991  20.311  0.00  0.00    +0.000 HD
ATOM     11  H   UNL     1      48.172   4.412  20.835  0.00  0.00    +0.000 HD
ENDBRANCH   8   9
ENDBRANCH   7   8
ENDBRANCH   1   7
BRANCH   4  12
ATOM     12  C   UNL     1      47.861   5.940  12.952  0.00  0.00    +0.000 C 
BRANCH  12  13
ATOM     13  N   UNL     1      46.495   6.292  12.590  0.00  0.00    +0.000 N 
ATOM     14  N   UNL     1      46.144   7.602  12.527  0.00  0.00    +0.000 NA
ATOM     15  C   UNL     1      44.875   7.564  12.119  0.00  0.00    +0.000 A 
ATOM     16  C   UNL     1      44.391   6.252  11.946  0.00  0.00    +0.000 A 
ATOM     17  C   UNL     1      43.175   5.672  11.540  0.00  0.00    +0.000 A 
ATOM     18  C   UNL     1      43.076   4.277  11.489  0.00  0.00    +0.000 A 
ATOM     19  C   UNL     1      44.159   3.472  11.840  0.00  0.00    +0.000 A 
ATOM     20  C   UNL     1      45.377   4.032  12.246  0.00  0.00    +0.000 A 
ATOM     21  C   UNL     1      45.466   5.430  12.282  0.00  0.00    +0.000 A 
ENDBRANCH  12  13
ENDBRANCH   4  12
TORSDOF 5
ENDMDL
MODEL 9
REMARK VINA RESULT:    -5.122      3.548      5.730
REMARK INTER + INTRA:          -6.903
REMARK INTER:                  -6.440
REMARK INTRA:                  -0.463
REMARK UNBOUND:                -0.433
REMARK  Name = 
REMARK  5 active torsions:
REMARK  status: ('A' for Active; 'I' for Inactive)
REMARK    1  A    between atoms: N_1  and  C_2
REMARK    2  A    between atoms: C_2  and  C_3
REMARK    3  A    between atoms: C_3  and  C_4
REMARK    4  A    between atoms: C_7  and  C_8
REMARK    5  A    between atoms: C_8  and  N_9
REMARK                            x       y       z     vdW  Elec       q    Type
REMARK                         _______ _______ _______ _____ _____    ______ ____
ROOT
ATOM      1  C   UNL     1      44.921   4.988  13.036  0.00  0.00    +0.000 A 
ATOM      2  C   UNL     1      45.031   6.354  12.779  0.00  0.00    +0.000 A 
ATOM      3  C   UNL     1      46.254   6.996  12.965  0.00  0.00    +0.000 A 
ATOM      4  C   UNL     1      47.348   6.258  13.420  0.00  0.00    +0.000 A 
ATOM      5  N   UNL     1      47.272   4.919  13.633  0.00  0.00    +0.000 NA
ATOM      6  C   UNL     1      46.072   4.320  13.435  0.00  0.00    +0.000 A 
ENDROOT
BRANCH   1   7
ATOM      7  C   UNL     1      43.608   4.267  12.887  0.00  0.00    +0.000 C 
BRANCH   7   8
ATOM      8  C   UNL     1      43.452   3.619  11.509  0.00  0.00    +0.000 C 
BRANCH   8   9
ATOM      9  N   UNL     1      43.050   2.219  11.635  0.00  0.00    +0.000 NA
ATOM     10  H   UNL     1      42.595   2.079  12.537  0.00  0.00    +0.000 HD
ATOM     11  H   UNL     1      43.877   1.622  11.643  0.00  0.00    +0.000 HD
ENDBRANCH   8   9
ENDBRANCH   7   8
ENDBRANCH   1   7
BRANCH   4  12
ATOM     12  C   UNL     1      48.676   6.923  13.688  0.00  0.00    +0.000 C 
BRANCH  12  13
ATOM     13  N   UNL     1      48.666   7.634  14.958  0.00  0.00    +0.000 N 
ATOM     14  N   UNL     1      48.454   8.974  14.964  0.00  0.00    +0.000 NA
ATOM     15  C   UNL     1      48.449   9.282  16.262  0.00  0.00    +0.000 A 
ATOM     16  C   UNL     1      48.683   8.168  17.093  0.00  0.00    +0.000 A 
ATOM     17  C   UNL     1      48.769   7.946  18.480  0.00  0.00    +0.000 A 
ATOM     18  C   UNL     1      49.023   6.649  18.942  0.00  0.00    +0.000 A 
ATOM     19  C   UNL     1      49.193   5.594  18.046  0.00  0.00    +0.000 A 
ATOM     20  C   UNL     1      49.110   5.797  16.663  0.00  0.00    +0.000 A 
ATOM     21  C   UNL     1      48.845   7.098  16.214  0.00  0.00    +0.000 A 
ENDBRANCH  12  13
ENDBRANCH   4  12
TORSDOF 5
ENDMDL
