MODEL 1
REMARK VINA RESULT:    -8.027      0.000      0.000
REMARK INTER + INTRA:         -11.870
REMARK INTER:                 -10.843
REMARK INTRA:                  -1.027
REMARK UNBOUND:                -1.027
REMARK  Name = 
REMARK  10 active torsions:
REMARK  status: ('A' for Active; 'I' for Inactive)
REMARK    1  A    between atoms: C_1  and  C_2
REMARK    2  A    between atoms: N_4  and  C_5
REMARK    3  A    between atoms: C_9  and  C_10
REMARK    4  A    between atoms: C_10  and  C_11
REMARK    5  A    between atoms: C_10  and  C_12
REMARK    6  A    between atoms: C_10  and  C_13
REMARK    7  A    between atoms: C_13  and  N_14
REMARK    8  A    between atoms: N_14  and  C_15
REMARK    9  A    between atoms: C_18  and  C_19
REMARK   10  A    between atoms: C_26  and  C_27
REMARK                            x       y       z     vdW  Elec       q    Type
REMARK                         _______ _______ _______ _____ _____    ______ ____
ROOT
ATOM      1  C   UNL     1      43.917   4.659  12.191  0.00  0.00    +0.000 C 
ATOM      2  C   UNL     1      43.761   3.136  12.431  0.00  0.00    +0.000 C 
ATOM      3  C   UNL     1      42.825   5.418  12.978  0.00  0.00    +0.000 C 
ENDROOT
BRANCH   1   8
ATOM      4  C   UNL     1      47.169   6.737  12.570  0.00  0.00    +0.000 A 
ATOM      5  C   UNL     1      47.749   6.116  13.682  0.00  0.00    +0.000 A 
ATOM      6  C   UNL     1      47.161   5.004  14.282  0.00  0.00    +0.000 A 
ATOM      7  C   UNL     1      45.953   4.500  13.799  0.00  0.00    +0.000 A 
ATOM      8  C   UNL     1      45.315   5.093  12.700  0.00  0.00    +0.000 A 
ATOM      9  C   UNL     1      45.977   6.178  12.083  0.00  0.00    +0.000 A 
BRANCH   4  13
ATOM     10  C   UNL     1      48.581   9.635  14.492  0.00  0.00    +0.000 C 
ATOM     11  C   UNL     1      48.444  10.008  13.017  0.00  0.00    +0.000 C 
ATOM     12  C   UNL     1      47.342   9.219  12.283  0.00  0.00    +0.000 C 
ATOM     13  N   UNL     1      47.761   7.843  11.995  0.00  0.00    +0.000 N 
ATOM     14  C   UNL     1      49.084   7.731  11.354  0.00  0.00    +0.000 C 
ATOM     15  C   UNL     1      50.135   8.555  12.131  0.00  0.00    +0.000 C 
ATOM     16  C   UNL     1      51.453   8.600  11.365  0.00  0.00    +0.000 C 
ATOM     17  O   UNL     1      49.709   9.916  12.334  0.00  0.00    +0.000 OA
ENDBRANCH   4  13
ENDBRANCH   1   8
BRANCH   1  18
ATOM     18  C   UNL     1      43.748   4.926  10.663  0.00  0.00    +0.000 C 
BRANCH  18  19
ATOM     19  N   UNL     1      43.624   3.706   9.852  0.00  0.00    +0.000 N 
ATOM     20  H   UNL     1      42.751   3.655   9.330  0.00  0.00    +0.000 HD
BRANCH  19  21
ATOM     21  C   UNL     1      44.719   3.350   9.060  0.00  0.00    +0.000 A 
ATOM     22  C   UNL     1      45.198   2.056   8.898  0.00  0.00    +0.000 A 
ATOM     23  N   UNL     1      46.195   1.694   8.065  0.00  0.00    +0.000 NA
ATOM     24  C   UNL     1      46.728   2.698   7.332  0.00  0.00    +0.000 A 
ATOM     25  N   UNL     1      46.353   3.990   7.377  0.00  0.00    +0.000 NA
ATOM     26  C   UNL     1      45.346   4.271   8.231  0.00  0.00    +0.000 A 
BRANCH  24  27
ATOM     27  C   UNL     1      47.807   2.303   6.353  0.00  0.00    +0.000 C 
ATOM     28  N   UNL     1      47.831   3.024   5.181  0.00  0.00    +0.000 N 
ATOM     29  O   UNL     1      48.629   1.414   6.557  0.00  0.00    +0.000 OA
ATOM     30  H   UNL     1      47.167   3.775   5.036  0.00  0.00    +0.000 HD
ATOM     31  H   UNL     1      48.556   2.839   4.504  0.00  0.00    +0.000 HD
ENDBRANCH  24  27
ENDBRANCH  19  21
ENDBRANCH  18  19
ENDBRANCH   1  18
TORSDOF 6
ENDMDL
MODEL 2
REMARK VINA RESULT:    -7.793      2.002      3.219
REMARK INTER + INTRA:         -11.554
REMARK INTER:                 -10.692
REMARK INTRA:                  -0.862
REMARK UNBOUND:                -1.027
REMARK  Name = 
REMARK  10 active torsions:
REMARK  status: ('A' for Active; 'I' for Inactive)
REMARK    1  A    between atoms: C_1  and  C_2
REMARK    2  A    between atoms: N_4  and  C_5
REMARK    3  A    between atoms: C_9  and  C_10
REMARK    4  A    between atoms: C_10  and  C_11
REMARK    5  A    between atoms: C_10  and  C_12
REMARK    6  A    between atoms: C_10  and  C_13
REMARK    7  A    between atoms: C_13  and  N_14
REMARK    8  A    between atoms: N_14  and  C_15
REMARK    9  A    between atoms: C_18  and  C_19
REMARK   10  A    between atoms: C_26  and  C_27
REMARK                            x       y       z     vdW  Elec       q    Type
REMARK                         _______ _______ _______ _____ _____    ______ ____
ROOT
ATOM      1  C   UNL     1      44.397   4.659  12.309  0.00  0.00    +0.000 C 
ATOM      2  C   UNL     1      45.084   3.287  12.527  0.00  0.00    +0.000 C 
ATOM      3  C   UNL     1      43.175   4.778  13.248  0.00  0.00    +0.000 C 
ENDROOT
BRANCH   1   8
ATOM      4  C   UNL     1      47.428   6.448  13.937  0.00  0.00    +0.000 A 
ATOM      5  C   UNL     1      47.463   7.633  13.193  0.00  0.00    +0.000 A 
ATOM      6  C   UNL     1      46.502   7.911  12.222  0.00  0.00    +0.000 A 
ATOM      7  C   UNL     1      45.493   6.989  11.948  0.00  0.00    +0.000 A 
ATOM      8  C   UNL     1      45.417   5.776  12.647  0.00  0.00    +0.000 A 
ATOM      9  C   UNL     1      46.374   5.562  13.666  0.00  0.00    +0.000 A 
BRANCH   4  13
ATOM     10  C   UNL     1      48.451   8.837  16.644  0.00  0.00    +0.000 C 
ATOM     11  C   UNL     1      49.474   7.708  16.535  0.00  0.00    +0.000 C 
ATOM     12  C   UNL     1      49.538   7.071  15.133  0.00  0.00    +0.000 C 
ATOM     13  N   UNL     1      48.393   6.187  14.887  0.00  0.00    +0.000 N 
ATOM     14  C   UNL     1      48.137   5.210  15.961  0.00  0.00    +0.000 C 
ATOM     15  C   UNL     1      48.099   5.913  17.336  0.00  0.00    +0.000 C 
ATOM     16  C   UNL     1      48.029   4.886  18.461  0.00  0.00    +0.000 C 
ATOM     17  O   UNL     1      49.272   6.718  17.562  0.00  0.00    +0.000 OA
ENDBRANCH   4  13
ENDBRANCH   1   8
BRANCH   1  18
ATOM     18  C   UNL     1      43.929   4.733  10.821  0.00  0.00    +0.000 C 
BRANCH  18  19
ATOM     19  N   UNL     1      43.800   3.422  10.169  0.00  0.00    +0.000 N 
ATOM     20  H   UNL     1      42.841   3.185   9.925  0.00  0.00    +0.000 HD
BRANCH  19  21
ATOM     21  C   UNL     1      44.683   3.139   9.122  0.00  0.00    +0.000 A 
ATOM     22  C   UNL     1      45.166   4.072   8.214  0.00  0.00    +0.000 A 
ATOM     23  N   UNL     1      46.087   3.824   7.260  0.00  0.00    +0.000 NA
ATOM     24  C   UNL     1      46.567   2.560   7.236  0.00  0.00    +0.000 A 
ATOM     25  N   UNL     1      46.200   1.563   8.061  0.00  0.00    +0.000 NA
ATOM     26  C   UNL     1      45.278   1.891   8.991  0.00  0.00    +0.000 A 
BRANCH  24  27
ATOM     27  C   UNL     1      47.639   2.278   6.211  0.00  0.00    +0.000 C 
ATOM     28  N   UNL     1      47.686   3.156   5.152  0.00  0.00    +0.000 N 
ATOM     29  O   UNL     1      48.437   1.347   6.288  0.00  0.00    +0.000 OA
ATOM     30  H   UNL     1      47.042   3.937   5.114  0.00  0.00    +0.000 HD
ATOM     31  H   UNL     1      48.408   3.048   4.456  0.00  0.00    +0.000 HD
ENDBRANCH  24  27
ENDBRANCH  19  21
ENDBRANCH  18  19
ENDBRANCH   1  18
TORSDOF 6
ENDMDL
MODEL 3
REMARK VINA RESULT:    -7.203      3.440      7.858
REMARK INTER + INTRA:         -10.758
REMARK INTER:                  -9.703
REMARK INTRA:                  -1.054
REMARK UNBOUND:                -1.027
REMARK  Name = 
REMARK  10 active torsions:
REMARK  status: ('A' for Active; 'I' for Inactive)
REMARK    1  A    between atoms: C_1  and  C_2
REMARK    2  A    between atoms: N_4  and  C_5
REMARK    3  A    between atoms: C_9  and  C_10
REMARK    4  A    between atoms: C_10  and  C_11
REMARK    5  A    between atoms: C_10  and  C_12
REMARK    6  A    between atoms: C_10  and  C_13
REMARK    7  A    between atoms: C_13  and  N_14
REMARK    8  A    between atoms: N_14  and  C_15
REMARK    9  A    between atoms: C_18  and  C_19
REMARK   10  A    between atoms: C_26  and  C_27
REMARK                            x       y       z     vdW  Elec       q    Type
REMARK                         _______ _______ _______ _____ _____    ______ ____
ROOT
ATOM      1  C   UNL     1      48.927   8.972  12.454  0.00  0.00    +0.000 C 
ATOM      2  C   UNL     1      49.865   7.953  11.758  0.00  0.00    +0.000 C 
ATOM      3  C   UNL     1      49.234  10.394  11.930  0.00  0.00    +0.000 C 
ENDROOT
BRANCH   1   8
ATOM      4  C   UNL     1      45.804   6.802  11.695  0.00  0.00    +0.000 A 
ATOM      5  C   UNL     1      44.799   7.776  11.706  0.00  0.00    +0.000 A 
ATOM      6  C   UNL     1      45.098   9.126  11.886  0.00  0.00    +0.000 A 
ATOM      7  C   UNL     1      46.415   9.534  12.092  0.00  0.00    +0.000 A 
ATOM      8  C   UNL     1      47.462   8.601  12.111  0.00  0.00    +0.000 A 
ATOM      9  C   UNL     1      47.124   7.252  11.862  0.00  0.00    +0.000 A 
BRANCH   4  13
ATOM     10  C   UNL     1      42.317   5.417  11.752  0.00  0.00    +0.000 C 
ATOM     11  C   UNL     1      43.329   4.278  11.862  0.00  0.00    +0.000 C 
ATOM     12  C   UNL     1      44.675   4.709  12.479  0.00  0.00    +0.000 C 
ATOM     13  N   UNL     1      45.489   5.470  11.525  0.00  0.00    +0.000 N 
ATOM     14  C   UNL     1      45.631   4.834  10.203  0.00  0.00    +0.000 C 
ATOM     15  C   UNL     1      44.249   4.415   9.651  0.00  0.00    +0.000 C 
ATOM     16  C   UNL     1      44.409   3.586   8.381  0.00  0.00    +0.000 C 
ATOM     17  O   UNL     1      43.512   3.616  10.595  0.00  0.00    +0.000 OA
ENDBRANCH   4  13
ENDBRANCH   1   8
BRANCH   1  18
ATOM     18  C   UNL     1      49.198   8.905  13.989  0.00  0.00    +0.000 C 
BRANCH  18  19
ATOM     19  N   UNL     1      49.929   7.703  14.416  0.00  0.00    +0.000 N 
ATOM     20  H   UNL     1      50.847   7.906  14.805  0.00  0.00    +0.000 HD
BRANCH  19  21
ATOM     21  C   UNL     1      49.233   6.775  15.197  0.00  0.00    +0.000 A 
ATOM     22  C   UNL     1      48.272   5.894  14.719  0.00  0.00    +0.000 A 
ATOM     23  N   UNL     1      47.664   4.935  15.447  0.00  0.00    +0.000 NA
ATOM     24  C   UNL     1      48.069   4.846  16.735  0.00  0.00    +0.000 A 
ATOM     25  N   UNL     1      48.997   5.622  17.324  0.00  0.00    +0.000 NA
ATOM     26  C   UNL     1      49.561   6.554  16.528  0.00  0.00    +0.000 A 
BRANCH  24  27
ATOM     27  C   UNL     1      47.440   3.743  17.552  0.00  0.00    +0.000 C 
ATOM     28  N   UNL     1      48.093   3.433  18.723  0.00  0.00    +0.000 N 
ATOM     29  O   UNL     1      46.415   3.147  17.230  0.00  0.00    +0.000 OA
ATOM     30  H   UNL     1      48.921   3.950  18.993  0.00  0.00    +0.000 HD
ATOM     31  H   UNL     1      47.698   2.735  19.336  0.00  0.00    +0.000 HD
ENDBRANCH  24  27
ENDBRANCH  19  21
ENDBRANCH  18  19
ENDBRANCH   1  18
TORSDOF 6
ENDMDL
MODEL 4
REMARK VINA RESULT:    -7.175      1.447      2.520
REMARK INTER + INTRA:         -10.719
REMARK INTER:                  -9.873
REMARK INTRA:                  -0.845
REMARK UNBOUND:                -1.027
REMARK  Name = 
REMARK  10 active torsions:
REMARK  status: ('A' for Active; 'I' for Inactive)
REMARK    1  A    between atoms: C_1  and  C_2
REMARK    2  A    between atoms: N_4  and  C_5
REMARK    3  A    between atoms: C_9  and  C_10
REMARK    4  A    between atoms: C_10  and  C_11
REMARK    5  A    between atoms: C_10  and  C_12
REMARK    6  A    between atoms: C_10  and  C_13
REMARK    7  A    between atoms: C_13  and  N_14
REMARK    8  A    between atoms: N_14  and  C_15
REMARK    9  A    between atoms: C_18  and  C_19
REMARK   10  A    between atoms: C_26  and  C_27
REMARK                            x       y       z     vdW  Elec       q    Type
REMARK                         _______ _______ _______ _____ _____    ______ ____
ROOT
ATOM      1  C   UNL     1      43.944   5.004  12.141  0.00  0.00    +0.000 C 
ATOM      2  C   UNL     1      43.268   4.626  13.484  0.00  0.00    +0.000 C 
ATOM      3  C   UNL     1      42.856   5.321  11.090  0.00  0.00    +0.000 C 
ENDROOT
BRANCH   1   8
ATOM      4  C   UNL     1      47.033   7.176  13.021  0.00  0.00    +0.000 A 
ATOM      5  C   UNL     1      46.586   8.441  12.623  0.00  0.00    +0.000 A 
ATOM      6  C   UNL     1      45.294   8.636  12.138  0.00  0.00    +0.000 A 
ATOM      7  C   UNL     1      44.421   7.556  12.009  0.00  0.00    +0.000 A 
ATOM      8  C   UNL     1      44.820   6.262  12.373  0.00  0.00    +0.000 A 
ATOM      9  C   UNL     1      46.115   6.119  12.918  0.00  0.00    +0.000 A 
BRANCH   4  13
ATOM     10  C   UNL     1      49.890   9.507  12.320  0.00  0.00    +0.000 C 
ATOM     11  C   UNL     1      50.421   8.192  12.888  0.00  0.00    +0.000 C 
ATOM     12  C   UNL     1      49.498   6.988  12.617  0.00  0.00    +0.000 C 
ATOM     13  N   UNL     1      48.319   7.001  13.490  0.00  0.00    +0.000 N 
ATOM     14  C   UNL     1      48.623   7.192  14.919  0.00  0.00    +0.000 C 
ATOM     15  C   UNL     1      49.561   8.405  15.117  0.00  0.00    +0.000 C 
ATOM     16  C   UNL     1      50.032   8.486  16.566  0.00  0.00    +0.000 C 
ATOM     17  O   UNL     1      50.736   8.317  14.288  0.00  0.00    +0.000 OA
ENDBRANCH   4  13
ENDBRANCH   1   8
BRANCH   1  18
ATOM     18  C   UNL     1      44.795   3.784  11.670  0.00  0.00    +0.000 C 
BRANCH  18  19
ATOM     19  N   UNL     1      44.195   3.029  10.561  0.00  0.00    +0.000 N 
ATOM     20  H   UNL     1      43.219   3.265  10.392  0.00  0.00    +0.000 HD
BRANCH  19  21
ATOM     21  C   UNL     1      44.921   2.959   9.368  0.00  0.00    +0.000 A 
ATOM     22  C   UNL     1      45.206   4.041   8.545  0.00  0.00    +0.000 A 
ATOM     23  N   UNL     1      45.983   3.997   7.443  0.00  0.00    +0.000 NA
ATOM     24  C   UNL     1      46.523   2.788   7.166  0.00  0.00    +0.000 A 
ATOM     25  N   UNL     1      46.343   1.663   7.882  0.00  0.00    +0.000 NA
ATOM     26  C   UNL     1      45.558   1.791   8.972  0.00  0.00    +0.000 A 
BRANCH  24  27
ATOM     27  C   UNL     1      47.439   2.732   5.968  0.00  0.00    +0.000 C 
ATOM     28  N   UNL     1      48.739   2.366   6.237  0.00  0.00    +0.000 N 
ATOM     29  O   UNL     1      47.085   2.978   4.817  0.00  0.00    +0.000 OA
ATOM     30  H   UNL     1      49.013   2.137   7.185  0.00  0.00    +0.000 HD
ATOM     31  H   UNL     1      49.390   2.267   5.473  0.00  0.00    +0.000 HD
ENDBRANCH  24  27
ENDBRANCH  19  21
ENDBRANCH  18  19
ENDBRANCH   1  18
TORSDOF 6
ENDMDL
MODEL 5
REMARK VINA RESULT:    -6.771      4.090      6.669
REMARK INTER + INTRA:         -10.174
REMARK INTER:                  -9.174
REMARK INTRA:                  -1.000
REMARK UNBOUND:                -1.027
REMARK  Name = 
REMARK  10 active torsions:
REMARK  status: ('A' for Active; 'I' for Inactive)
REMARK    1  A    between atoms: C_1  and  C_2
REMARK    2  A    between atoms: N_4  and  C_5
REMARK    3  A    between atoms: C_9  and  C_10
REMARK    4  A    between atoms: C_10  and  C_11
REMARK    5  A    between atoms: C_10  and  C_12
REMARK    6  A    between atoms: C_10  and  C_13
REMARK    7  A    between atoms: C_13  and  N_14
REMARK    8  A    between atoms: N_14  and  C_15
REMARK    9  A    between atoms: C_18  and  C_19
REMARK   10  A    between atoms: C_26  and  C_27
REMARK                            x       y       z     vdW  Elec       q    Type
REMARK                         _______ _______ _______ _____ _____    ______ ____
ROOT
ATOM      1  C   UNL     1      49.077   8.163  14.071  0.00  0.00    +0.000 C 
ATOM      2  C   UNL     1      48.085   8.968  14.949  0.00  0.00    +0.000 C 
ATOM      3  C   UNL     1      49.668   9.087  12.983  0.00  0.00    +0.000 C 
ENDROOT
BRANCH   1   8
ATOM      4  C   UNL     1      50.926   6.030  16.730  0.00  0.00    +0.000 A 
ATOM      5  C   UNL     1      52.247   6.449  16.530  0.00  0.00    +0.000 A 
ATOM      6  C   UNL     1      52.561   7.446  15.608  0.00  0.00    +0.000 A 
ATOM      7  C   UNL     1      51.557   8.033  14.837  0.00  0.00    +0.000 A 
ATOM      8  C   UNL     1      50.219   7.640  14.979  0.00  0.00    +0.000 A 
ATOM      9  C   UNL     1      49.936   6.671  15.968  0.00  0.00    +0.000 A 
BRANCH   4  13
ATOM     10  C   UNL     1      47.931   3.777  16.535  0.00  0.00    +0.000 C 
ATOM     11  C   UNL     1      48.572   3.669  17.917  0.00  0.00    +0.000 C 
ATOM     12  C   UNL     1      49.348   4.933  18.336  0.00  0.00    +0.000 C 
ATOM     13  N   UNL     1      50.636   5.034  17.639  0.00  0.00    +0.000 N 
ATOM     14  C   UNL     1      51.451   3.808  17.687  0.00  0.00    +0.000 C 
ATOM     15  C   UNL     1      50.610   2.580  17.270  0.00  0.00    +0.000 C 
ATOM     16  C   UNL     1      51.391   1.291  17.505  0.00  0.00    +0.000 C 
ATOM     17  O   UNL     1      49.386   2.485  18.024  0.00  0.00    +0.000 OA
ENDBRANCH   4  13
ENDBRANCH   1   8
BRANCH   1  18
ATOM     18  C   UNL     1      48.288   6.995  13.401  0.00  0.00    +0.000 C 
BRANCH  18  19
ATOM     19  N   UNL     1      46.844   7.013  13.676  0.00  0.00    +0.000 N 
ATOM     20  H   UNL     1      46.427   7.936  13.580  0.00  0.00    +0.000 HD
BRANCH  19  21
ATOM     21  C   UNL     1      46.064   6.029  13.061  0.00  0.00    +0.000 A 
ATOM     22  C   UNL     1      45.684   6.033  11.725  0.00  0.00    +0.000 A 
ATOM     23  N   UNL     1      45.011   5.042  11.105  0.00  0.00    +0.000 NA
ATOM     24  C   UNL     1      44.721   3.970  11.877  0.00  0.00    +0.000 A 
ATOM     25  N   UNL     1      45.039   3.827  13.176  0.00  0.00    +0.000 NA
ATOM     26  C   UNL     1      45.717   4.859  13.723  0.00  0.00    +0.000 A 
BRANCH  24  27
ATOM     27  C   UNL     1      44.016   2.828  11.186  0.00  0.00    +0.000 C 
ATOM     28  N   UNL     1      44.635   2.354  10.052  0.00  0.00    +0.000 N 
ATOM     29  O   UNL     1      42.968   2.325  11.583  0.00  0.00    +0.000 OA
ATOM     30  H   UNL     1      45.514   2.757   9.750  0.00  0.00    +0.000 HD
ATOM     31  H   UNL     1      44.238   1.563   9.569  0.00  0.00    +0.000 HD
ENDBRANCH  24  27
ENDBRANCH  19  21
ENDBRANCH  18  19
ENDBRANCH   1  18
TORSDOF 6
ENDMDL
MODEL 6
REMARK VINA RESULT:    -6.758      3.849      6.517
REMARK INTER + INTRA:         -10.156
REMARK INTER:                  -9.087
REMARK INTRA:                  -1.069
REMARK UNBOUND:                -1.027
REMARK  Name = 
REMARK  10 active torsions:
REMARK  status: ('A' for Active; 'I' for Inactive)
REMARK    1  A    between atoms: C_1  and  C_2
REMARK    2  A    between atoms: N_4  and  C_5
REMARK    3  A    between atoms: C_9  and  C_10
REMARK    4  A    between atoms: C_10  and  C_11
REMARK    5  A    between atoms: C_10  and  C_12
REMARK    6  A    between atoms: C_10  and  C_13
REMARK    7  A    between atoms: C_13  and  N_14
REMARK    8  A    between atoms: N_14  and  C_15
REMARK    9  A    between atoms: C_18  and  C_19
REMARK   10  A    between atoms: C_26  and  C_27
REMARK                            x       y       z     vdW  Elec       q    Type
REMARK                         _______ _______ _______ _____ _____    ______ ____
ROOT
ATOM      1  C   UNL     1      49.031   8.253  14.009  0.00  0.00    +0.000 C 
ATOM      2  C   UNL     1      48.675   9.667  13.483  0.00  0.00    +0.000 C 
ATOM      3  C   UNL     1      50.544   8.001  13.822  0.00  0.00    +0.000 C 
ENDROOT
BRANCH   1   8
ATOM      4  C   UNL     1      48.737   6.882  17.624  0.00  0.00    +0.000 A 
ATOM      5  C   UNL     1      48.302   8.025  18.304  0.00  0.00    +0.000 A 
ATOM      6  C   UNL     1      48.035   9.215  17.628  0.00  0.00    +0.000 A 
ATOM      7  C   UNL     1      48.228   9.299  16.250  0.00  0.00    +0.000 A 
ATOM      8  C   UNL     1      48.681   8.192  15.518  0.00  0.00    +0.000 A 
ATOM      9  C   UNL     1      48.879   6.989  16.232  0.00  0.00    +0.000 A 
BRANCH   4  13
ATOM     10  C   UNL     1      47.569   3.474  16.571  0.00  0.00    +0.000 C 
ATOM     11  C   UNL     1      48.068   3.428  18.014  0.00  0.00    +0.000 C 
ATOM     12  C   UNL     1      47.960   4.781  18.746  0.00  0.00    +0.000 C 
ATOM     13  N   UNL     1      49.005   5.716  18.312  0.00  0.00    +0.000 N 
ATOM     14  C   UNL     1      50.367   5.154  18.323  0.00  0.00    +0.000 C 
ATOM     15  C   UNL     1      50.400   3.795  17.588  0.00  0.00    +0.000 C 
ATOM     16  C   UNL     1      51.757   3.122  17.766  0.00  0.00    +0.000 C 
ATOM     17  O   UNL     1      49.401   2.887  18.090  0.00  0.00    +0.000 OA
ENDBRANCH   4  13
ENDBRANCH   1   8
BRANCH   1  18
ATOM     18  C   UNL     1      48.215   7.211  13.183  0.00  0.00    +0.000 C 
BRANCH  18  19
ATOM     19  N   UNL     1      46.792   7.141  13.545  0.00  0.00    +0.000 N 
ATOM     20  H   UNL     1      46.321   8.042  13.505  0.00  0.00    +0.000 HD
BRANCH  19  21
ATOM     21  C   UNL     1      46.029   6.134  12.948  0.00  0.00    +0.000 A 
ATOM     22  C   UNL     1      45.714   6.068  11.597  0.00  0.00    +0.000 A 
ATOM     23  N   UNL     1      45.057   5.053  10.999  0.00  0.00    +0.000 NA
ATOM     24  C   UNL     1      44.715   4.029  11.814  0.00  0.00    +0.000 A 
ATOM     25  N   UNL     1      44.968   3.954  13.133  0.00  0.00    +0.000 NA
ATOM     26  C   UNL     1      45.633   5.006  13.655  0.00  0.00    +0.000 A 
BRANCH  24  27
ATOM     27  C   UNL     1      44.028   2.858  11.153  0.00  0.00    +0.000 C 
ATOM     28  N   UNL     1      44.677   2.337  10.057  0.00  0.00    +0.000 N 
ATOM     29  O   UNL     1      42.969   2.372  11.542  0.00  0.00    +0.000 OA
ATOM     30  H   UNL     1      45.564   2.727   9.762  0.00  0.00    +0.000 HD
ATOM     31  H   UNL     1      44.292   1.526   9.597  0.00  0.00    +0.000 HD
ENDBRANCH  24  27
ENDBRANCH  19  21
ENDBRANCH  18  19
ENDBRANCH   1  18
TORSDOF 6
ENDMDL
MODEL 7
REMARK VINA RESULT:    -6.550      1.793      2.524
REMARK INTER + INTRA:          -9.875
REMARK INTER:                  -9.520
REMARK INTRA:                  -0.355
REMARK UNBOUND:                -1.027
REMARK  Name = 
REMARK  10 active torsions:
REMARK  status: ('A' for Active; 'I' for Inactive)
REMARK    1  A    between atoms: C_1  and  C_2
REMARK    2  A    between atoms: N_4  and  C_5
REMARK    3  A    between atoms: C_9  and  C_10
REMARK    4  A    between atoms: C_10  and  C_11
REMARK    5  A    between atoms: C_10  and  C_12
REMARK    6  A    between atoms: C_10  and  C_13
REMARK    7  A    between atoms: C_13  and  N_14
REMARK    8  A    between atoms: N_14  and  C_15
REMARK    9  A    between atoms: C_18  and  C_19
REMARK   10  A    between atoms: C_26  and  C_27
REMARK                            x       y       z     vdW  Elec       q    Type
REMARK                         _______ _______ _______ _____ _____    ______ ____
ROOT
ATOM      1  C   UNL     1      45.102   5.687  12.119  0.00  0.00    +0.000 C 
ATOM      2  C   UNL     1      43.937   6.537  12.687  0.00  0.00    +0.000 C 
ATOM      3  C   UNL     1      45.677   6.378  10.862  0.00  0.00    +0.000 C 
ENDROOT
BRANCH   1   8
ATOM      4  C   UNL     1      48.112   6.682  14.352  0.00  0.00    +0.000 A 
ATOM      5  C   UNL     1      48.117   5.627  15.272  0.00  0.00    +0.000 A 
ATOM      6  C   UNL     1      47.221   4.565  15.162  0.00  0.00    +0.000 A 
ATOM      7  C   UNL     1      46.272   4.547  14.141  0.00  0.00    +0.000 A 
ATOM      8  C   UNL     1      46.206   5.586  13.202  0.00  0.00    +0.000 A 
ATOM      9  C   UNL     1      47.173   6.611  13.312  0.00  0.00    +0.000 A 
BRANCH   4  13
ATOM     10  C   UNL     1      47.981   9.257  17.079  0.00  0.00    +0.000 C 
ATOM     11  C   UNL     1      48.918   9.727  15.967  0.00  0.00    +0.000 C 
ATOM     12  C   UNL     1      48.579   9.132  14.586  0.00  0.00    +0.000 C 
ATOM     13  N   UNL     1      49.000   7.730  14.482  0.00  0.00    +0.000 N 
ATOM     14  C   UNL     1      50.392   7.480  14.899  0.00  0.00    +0.000 C 
ATOM     15  C   UNL     1      50.666   8.114  16.281  0.00  0.00    +0.000 C 
ATOM     16  C   UNL     1      52.149   8.027  16.625  0.00  0.00    +0.000 C 
ATOM     17  O   UNL     1      50.298   9.506  16.318  0.00  0.00    +0.000 OA
ENDBRANCH   4  13
ENDBRANCH   1   8
BRANCH   1  18
ATOM     18  C   UNL     1      44.534   4.285  11.738  0.00  0.00    +0.000 C 
BRANCH  18  19
ATOM     19  N   UNL     1      43.970   4.216  10.382  0.00  0.00    +0.000 N 
ATOM     20  H   UNL     1      43.569   5.096  10.066  0.00  0.00    +0.000 HD
BRANCH  19  21
ATOM     21  C   UNL     1      44.758   3.624   9.391  0.00  0.00    +0.000 A 
ATOM     22  C   UNL     1      45.447   4.316   8.403  0.00  0.00    +0.000 A 
ATOM     23  N   UNL     1      46.282   3.759   7.501  0.00  0.00    +0.000 NA
ATOM     24  C   UNL     1      46.448   2.422   7.618  0.00  0.00    +0.000 A 
ATOM     25  N   UNL     1      45.856   1.632   8.532  0.00  0.00    +0.000 NA
ATOM     26  C   UNL     1      45.040   2.264   9.401  0.00  0.00    +0.000 A 
BRANCH  24  27
ATOM     27  C   UNL     1      47.420   1.789   6.652  0.00  0.00    +0.000 C 
ATOM     28  N   UNL     1      48.450   2.602   6.237  0.00  0.00    +0.000 N 
ATOM     29  O   UNL     1      47.337   0.630   6.252  0.00  0.00    +0.000 OA
ATOM     30  H   UNL     1      48.526   3.546   6.596  0.00  0.00    +0.000 HD
ATOM     31  H   UNL     1      49.159   2.225   5.626  0.00  0.00    +0.000 HD
ENDBRANCH  24  27
ENDBRANCH  19  21
ENDBRANCH  18  19
ENDBRANCH   1  18
TORSDOF 6
ENDMDL
MODEL 8
REMARK VINA RESULT:    -6.305      3.556      5.739
REMARK INTER + INTRA:          -9.544
REMARK INTER:                  -8.472
REMARK INTRA:                  -1.072
REMARK UNBOUND:                -1.027
REMARK  Name = 
REMARK  10 active torsions:
REMARK  status: ('A' for Active; 'I' for Inactive)
REMARK    1  A    between atoms: C_1  and  C_2
REMARK    2  A    between atoms: N_4  and  C_5
REMARK    3  A    between atoms: C_9  and  C_10
REMARK    4  A    between atoms: C_10  and  C_11
REMARK    5  A    between atoms: C_10  and  C_12
REMARK    6  A    between atoms: C_10  and  C_13
REMARK    7  A    between atoms: C_13  and  N_14
REMARK    8  A    between atoms: N_14  and  C_15
REMARK    9  A    between atoms: C_18  and  C_19
REMARK   10  A    between atoms: C_26  and  C_27
REMARK                            x       y       z     vdW  Elec       q    Type
REMARK                         _______ _______ _______ _____ _____    ______ ____
ROOT
ATOM      1  C   UNL     1      47.754   7.620  13.498  0.00  0.00    +0.000 C 
ATOM      2  C   UNL     1      46.591   8.626  13.302  0.00  0.00    +0.000 C 
ATOM      3  C   UNL     1      48.648   7.616  12.237  0.00  0.00    +0.000 C 
ENDROOT
BRANCH   1   8
ATOM      4  C   UNL     1      49.749   7.420  16.817  0.00  0.00    +0.000 A 
ATOM      5  C   UNL     1      50.289   8.710  16.876  0.00  0.00    +0.000 A 
ATOM      6  C   UNL     1      49.983   9.671  15.914  0.00  0.00    +0.000 A 
ATOM      7  C   UNL     1      49.146   9.353  14.844  0.00  0.00    +0.000 A 
ATOM      8  C   UNL     1      48.591   8.072  14.721  0.00  0.00    +0.000 A 
ATOM      9  C   UNL     1      48.877   7.148  15.751  0.00  0.00    +0.000 A 
BRANCH   4  13
ATOM     10  C   UNL     1      47.244   5.354  18.699  0.00  0.00    +0.000 C 
ATOM     11  C   UNL     1      48.610   5.257  19.376  0.00  0.00    +0.000 C 
ATOM     12  C   UNL     1      49.508   6.486  19.128  0.00  0.00    +0.000 C 
ATOM     13  N   UNL     1      50.071   6.480  17.773  0.00  0.00    +0.000 N 
ATOM     14  C   UNL     1      50.704   5.207  17.383  0.00  0.00    +0.000 C 
ATOM     15  C   UNL     1      49.757   4.020  17.671  0.00  0.00    +0.000 C 
ATOM     16  C   UNL     1      50.478   2.694  17.452  0.00  0.00    +0.000 C 
ATOM     17  O   UNL     1      49.280   4.030  19.030  0.00  0.00    +0.000 OA
ENDBRANCH   4  13
ENDBRANCH   1   8
BRANCH   1  18
ATOM     18  C   UNL     1      47.134   6.203  13.711  0.00  0.00    +0.000 C 
BRANCH  18  19
ATOM     19  N   UNL     1      45.710   6.115  13.360  0.00  0.00    +0.000 N 
ATOM     20  H   UNL     1      45.240   7.018  13.345  0.00  0.00    +0.000 HD
BRANCH  19  21
ATOM     21  C   UNL     1      45.372   5.341  12.245  0.00  0.00    +0.000 A 
ATOM     22  C   UNL     1      45.442   5.771  10.927  0.00  0.00    +0.000 A 
ATOM     23  N   UNL     1      45.207   5.003   9.843  0.00  0.00    +0.000 NA
ATOM     24  C   UNL     1      44.903   3.711  10.108  0.00  0.00    +0.000 A 
ATOM     25  N   UNL     1      44.815   3.158  11.332  0.00  0.00    +0.000 NA
ATOM     26  C   UNL     1      45.069   3.991  12.363  0.00  0.00    +0.000 A 
BRANCH  24  27
ATOM     27  C   UNL     1      44.690   2.822   8.907  0.00  0.00    +0.000 C 
ATOM     28  N   UNL     1      44.588   1.477   9.182  0.00  0.00    +0.000 N 
ATOM     29  O   UNL     1      44.600   3.233   7.753  0.00  0.00    +0.000 OA
ATOM     30  H   UNL     1      44.634   1.152  10.140  0.00  0.00    +0.000 HD
ATOM     31  H   UNL     1      44.401   0.834   8.427  0.00  0.00    +0.000 HD
ENDBRANCH  24  27
ENDBRANCH  19  21
ENDBRANCH  18  19
ENDBRANCH   1  18
TORSDOF 6
ENDMDL
MODEL 9
REMARK VINA RESULT:    -6.143      6.014      8.990
REMARK INTER + INTRA:          -9.325
REMARK INTER:                  -8.546
REMARK INTRA:                  -0.779
REMARK UNBOUND:                -1.027
REMARK  Name = 
REMARK  10 active torsions:
REMARK  status: ('A' for Active; 'I' for Inactive)
REMARK    1  A    between atoms: C_1  and  C_2
REMARK    2  A    between atoms: N_4  and  C_5
REMARK    3  A    between atoms: C_9  and  C_10
REMARK    4  A    between atoms: C_10  and  C_11
REMARK    5  A    between atoms: C_10  and  C_12
REMARK    6  A    between atoms: C_10  and  C_13
REMARK    7  A    between atoms: C_13  and  N_14
REMARK    8  A    between atoms: N_14  and  C_15
REMARK    9  A    between atoms: C_18  and  C_19
REMARK   10  A    between atoms: C_26  and  C_27
REMARK                            x       y       z     vdW  Elec       q    Type
REMARK                         _______ _______ _______ _____ _____    ______ ____
ROOT
ATOM      1  C   UNL     1      47.891   4.282  17.182  0.00  0.00    +0.000 C 
ATOM      2  C   UNL     1      47.386   5.326  18.210  0.00  0.00    +0.000 C 
ATOM      3  C   UNL     1      47.143   2.947  17.395  0.00  0.00    +0.000 C 
ENDROOT
BRANCH   1   8
ATOM      4  C   UNL     1      46.102   4.769  13.776  0.00  0.00    +0.000 A 
ATOM      5  C   UNL     1      46.815   5.856  13.258  0.00  0.00    +0.000 A 
ATOM      6  C   UNL     1      47.901   6.404  13.939  0.00  0.00    +0.000 A 
ATOM      7  C   UNL     1      48.283   5.893  15.179  0.00  0.00    +0.000 A 
ATOM      8  C   UNL     1      47.595   4.817  15.757  0.00  0.00    +0.000 A 
ATOM      9  C   UNL     1      46.541   4.252  15.005  0.00  0.00    +0.000 A 
BRANCH   4  13
ATOM     10  C   UNL     1      43.947   6.713  11.396  0.00  0.00    +0.000 C 
ATOM     11  C   UNL     1      43.265   5.394  11.755  0.00  0.00    +0.000 C 
ATOM     12  C   UNL     1      43.683   4.839  13.131  0.00  0.00    +0.000 C 
ATOM     13  N   UNL     1      45.024   4.246  13.091  0.00  0.00    +0.000 N 
ATOM     14  C   UNL     1      45.234   3.290  11.989  0.00  0.00    +0.000 C 
ATOM     15  C   UNL     1      44.782   3.904  10.645  0.00  0.00    +0.000 C 
ATOM     16  C   UNL     1      44.814   2.854   9.539  0.00  0.00    +0.000 C 
ATOM     17  O   UNL     1      43.437   4.415  10.712  0.00  0.00    +0.000 OA
ENDBRANCH   4  13
ENDBRANCH   1   8
BRANCH   1  18
ATOM     18  C   UNL     1      49.420   4.075  17.417  0.00  0.00    +0.000 C 
BRANCH  18  19
ATOM     19  N   UNL     1      49.915   2.755  17.004  0.00  0.00    +0.000 N 
ATOM     20  H   UNL     1      49.865   2.600  16.000  0.00  0.00    +0.000 HD
BRANCH  19  21
ATOM     21  C   UNL     1      51.144   2.341  17.527  0.00  0.00    +0.000 A 
ATOM     22  C   UNL     1      51.553   1.019  17.649  0.00  0.00    +0.000 A 
ATOM     23  N   UNL     1      52.772   0.617  18.066  0.00  0.00    +0.000 NA
ATOM     24  C   UNL     1      53.639   1.613  18.358  0.00  0.00    +0.000 A 
ATOM     25  N   UNL     1      53.382   2.931  18.272  0.00  0.00    +0.000 NA
ATOM     26  C   UNL     1      52.144   3.252  17.843  0.00  0.00    +0.000 A 
BRANCH  24  27
ATOM     27  C   UNL     1      55.025   1.183  18.774  0.00  0.00    +0.000 C 
ATOM     28  N   UNL     1      55.620   1.966  19.737  0.00  0.00    +0.000 N 
ATOM     29  O   UNL     1      55.608   0.203  18.316  0.00  0.00    +0.000 OA
ATOM     30  H   UNL     1      55.119   2.753  20.129  0.00  0.00    +0.000 HD
ATOM     31  H   UNL     1      56.529   1.706  20.089  0.00  0.00    +0.000 HD
ENDBRANCH  24  27
ENDBRANCH  19  21
ENDBRANCH  18  19
ENDBRANCH   1  18
TORSDOF 6
ENDMDL
