MODEL 1
REMARK VINA RESULT:    -7.431      0.000      0.000
REMARK INTER + INTRA:          -9.017
REMARK INTER:                  -8.734
REMARK INTRA:                  -0.283
REMARK UNBOUND:                -0.283
REMARK  Name = 
REMARK  5 active torsions:
REMARK  status: ('A' for Active; 'I' for Inactive)
REMARK    1  A    between atoms: C_1  and  C_2
REMARK    2  A    between atoms: C_5  and  C_6
REMARK    3  A    between atoms: C_6  and  C_7
REMARK    4  A    between atoms: C_6  and  N_8
REMARK    5  A    between atoms: C_12  and  C_13
REMARK                            x       y       z     vdW  Elec       q    Type
REMARK                         _______ _______ _______ _____ _____    ______ ____
ROOT
ATOM      1  N   UNL     1      43.810   4.916   9.906  0.00  0.00    +0.000 N 
ATOM      2  C   UNL     1      44.590   3.934   9.301  0.00  0.00    +0.000 A 
ATOM      3  C   UNL     1      44.930   4.088   7.957  0.00  0.00    +0.000 A 
ATOM      4  C   UNL     1      45.684   3.107   7.310  0.00  0.00    +0.000 A 
ATOM      5  C   UNL     1      46.110   1.987   8.021  0.00  0.00    +0.000 A 
ATOM      6  C   UNL     1      45.729   1.909   9.348  0.00  0.00    +0.000 A 
ATOM      7  N   UNL     1      44.974   2.840   9.991  0.00  0.00    +0.000 NA
ATOM      8  H   UNL     1      44.240   5.835   9.784  0.00  0.00    +0.000 HD
ENDROOT
BRANCH   5   9
ATOM      9  C   UNL     1      46.929   0.961   7.328  0.00  0.00    +0.000 C 
ATOM     10  N   UNL     1      46.716  -0.364   7.598  0.00  0.00    +0.000 N 
ATOM     11  O   UNL     1      47.806   1.283   6.525  0.00  0.00    +0.000 OA
ATOM     12  H   UNL     1      46.037  -0.739   8.242  0.00  0.00    +0.000 HD
ATOM     13  H   UNL     1      47.307  -1.023   7.108  0.00  0.00    +0.000 HD
ENDBRANCH   5   9
BRANCH   1  14
ATOM     14  C   UNL     1      43.459   4.738  11.335  0.00  0.00    +0.000 C 
ATOM     15  C   UNL     1      42.238   5.596  11.671  0.00  0.00    +0.000 C 
BRANCH  14  20
ATOM     16  C   UNL     1      48.023   6.073  14.567  0.00  0.00    +0.000 C 
ATOM     17  C   UNL     1      46.810   5.744  13.767  0.00  0.00    +0.000 A 
ATOM     18  C   UNL     1      46.088   4.585  13.939  0.00  0.00    +0.000 A 
ATOM     19  N   UNL     1      45.014   4.255  13.200  0.00  0.00    +0.000 NA
ATOM     20  C   UNL     1      44.635   5.134  12.246  0.00  0.00    +0.000 A 
ATOM     21  N   UNL     1      45.275   6.302  11.996  0.00  0.00    +0.000 NA
ATOM     22  C   UNL     1      46.342   6.579  12.773  0.00  0.00    +0.000 A 
ENDBRANCH  14  20
ENDBRANCH   1  14
TORSDOF 3
ENDMDL
MODEL 2
REMARK VINA RESULT:    -6.969      3.279      6.871
REMARK INTER + INTRA:          -8.474
REMARK INTER:                  -8.061
REMARK INTRA:                  -0.413
REMARK UNBOUND:                -0.283
REMARK  Name = 
REMARK  5 active torsions:
REMARK  status: ('A' for Active; 'I' for Inactive)
REMARK    1  A    between atoms: C_1  and  C_2
REMARK    2  A    between atoms: C_5  and  C_6
REMARK    3  A    between atoms: C_6  and  C_7
REMARK    4  A    between atoms: C_6  and  N_8
REMARK    5  A    between atoms: C_12  and  C_13
REMARK                            x       y       z     vdW  Elec       q    Type
REMARK                         _______ _______ _______ _____ _____    ______ ____
ROOT
ATOM      1  N   UNL     1      45.103   4.460  11.764  0.00  0.00    +0.000 N 
ATOM      2  C   UNL     1      45.167   5.849  11.853  0.00  0.00    +0.000 A 
ATOM      3  C   UNL     1      46.046   6.416  12.776  0.00  0.00    +0.000 A 
ATOM      4  C   UNL     1      46.114   7.804  12.914  0.00  0.00    +0.000 A 
ATOM      5  C   UNL     1      45.313   8.615  12.112  0.00  0.00    +0.000 A 
ATOM      6  C   UNL     1      44.468   7.974  11.224  0.00  0.00    +0.000 A 
ATOM      7  N   UNL     1      44.368   6.624  11.091  0.00  0.00    +0.000 NA
ATOM      8  H   UNL     1      46.035   4.072  11.605  0.00  0.00    +0.000 HD
ENDROOT
BRANCH   5   9
ATOM      9  C   UNL     1      45.409  10.090  12.253  0.00  0.00    +0.000 C 
ATOM     10  N   UNL     1      46.625  10.662  12.512  0.00  0.00    +0.000 N 
ATOM     11  O   UNL     1      44.411  10.804  12.155  0.00  0.00    +0.000 OA
ATOM     12  H   UNL     1      47.501  10.176  12.622  0.00  0.00    +0.000 HD
ATOM     13  H   UNL     1      46.635  11.669  12.609  0.00  0.00    +0.000 HD
ENDBRANCH   5   9
BRANCH   1  14
ATOM     14  C   UNL     1      44.165   3.873  10.777  0.00  0.00    +0.000 C 
ATOM     15  C   UNL     1      43.436   2.687  11.411  0.00  0.00    +0.000 C 
BRANCH  14  20
ATOM     16  C   UNL     1      47.199   2.190   6.193  0.00  0.00    +0.000 C 
ATOM     17  C   UNL     1      46.371   2.625   7.352  0.00  0.00    +0.000 A 
ATOM     18  C   UNL     1      45.997   3.933   7.559  0.00  0.00    +0.000 A 
ATOM     19  N   UNL     1      45.281   4.349   8.620  0.00  0.00    +0.000 NA
ATOM     20  C   UNL     1      44.912   3.407   9.515  0.00  0.00    +0.000 A 
ATOM     21  N   UNL     1      45.228   2.093   9.405  0.00  0.00    +0.000 NA
ATOM     22  C   UNL     1      45.942   1.738   8.318  0.00  0.00    +0.000 A 
ENDBRANCH  14  20
ENDBRANCH   1  14
TORSDOF 3
ENDMDL
MODEL 3
REMARK VINA RESULT:    -6.913      2.911      6.758
REMARK INTER + INTRA:          -8.409
REMARK INTER:                  -8.004
REMARK INTRA:                  -0.405
REMARK UNBOUND:                -0.283
REMARK  Name = 
REMARK  5 active torsions:
REMARK  status: ('A' for Active; 'I' for Inactive)
REMARK    1  A    between atoms: C_1  and  C_2
REMARK    2  A    between atoms: C_5  and  C_6
REMARK    3  A    between atoms: C_6  and  C_7
REMARK    4  A    between atoms: C_6  and  N_8
REMARK    5  A    between atoms: C_12  and  C_13
REMARK                            x       y       z     vdW  Elec       q    Type
REMARK                         _______ _______ _______ _____ _____    ______ ____
ROOT
ATOM      1  N   UNL     1      45.481   3.734  12.346  0.00  0.00    +0.000 N 
ATOM      2  C   UNL     1      46.045   4.948  12.730  0.00  0.00    +0.000 A 
ATOM      3  C   UNL     1      47.062   4.937  13.684  0.00  0.00    +0.000 A 
ATOM      4  C   UNL     1      47.628   6.138  14.116  0.00  0.00    +0.000 A 
ATOM      5  C   UNL     1      47.185   7.342  13.571  0.00  0.00    +0.000 A 
ATOM      6  C   UNL     1      46.172   7.266  12.632  0.00  0.00    +0.000 A 
ATOM      7  N   UNL     1      45.590   6.110  12.216  0.00  0.00    +0.000 NA
ATOM      8  H   UNL     1      46.209   3.087  12.036  0.00  0.00    +0.000 HD
ENDROOT
BRANCH   5   9
ATOM      9  C   UNL     1      47.810   8.612  14.022  0.00  0.00    +0.000 C 
ATOM     10  N   UNL     1      47.562   9.069  15.288  0.00  0.00    +0.000 N 
ATOM     11  O   UNL     1      48.534   9.265  13.271  0.00  0.00    +0.000 OA
ATOM     12  H   UNL     1      46.980   8.624  15.979  0.00  0.00    +0.000 HD
ATOM     13  H   UNL     1      48.003   9.944  15.543  0.00  0.00    +0.000 HD
ENDBRANCH   5   9
BRANCH   1  14
ATOM     14  C   UNL     1      44.403   3.762  11.329  0.00  0.00    +0.000 C 
ATOM     15  C   UNL     1      43.343   2.717  11.680  0.00  0.00    +0.000 C 
BRANCH  14  20
ATOM     16  C   UNL     1      46.751   2.732   6.183  0.00  0.00    +0.000 C 
ATOM     17  C   UNL     1      46.097   3.005   7.494  0.00  0.00    +0.000 A 
ATOM     18  C   UNL     1      45.849   4.277   7.958  0.00  0.00    +0.000 A 
ATOM     19  N   UNL     1      45.294   4.541   9.155  0.00  0.00    +0.000 NA
ATOM     20  C   UNL     1      44.961   3.480   9.923  0.00  0.00    +0.000 A 
ATOM     21  N   UNL     1      45.163   2.191   9.559  0.00  0.00    +0.000 NA
ATOM     22  C   UNL     1      45.718   1.989   8.347  0.00  0.00    +0.000 A 
ENDBRANCH  14  20
ENDBRANCH   1  14
TORSDOF 3
ENDMDL
MODEL 4
REMARK VINA RESULT:    -6.814      2.613      6.084
REMARK INTER + INTRA:          -8.292
REMARK INTER:                  -9.037
REMARK INTRA:                   0.745
REMARK UNBOUND:                -0.283
REMARK  Name = 
REMARK  5 active torsions:
REMARK  status: ('A' for Active; 'I' for Inactive)
REMARK    1  A    between atoms: C_1  and  C_2
REMARK    2  A    between atoms: C_5  and  C_6
REMARK    3  A    between atoms: C_6  and  C_7
REMARK    4  A    between atoms: C_6  and  N_8
REMARK    5  A    between atoms: C_12  and  C_13
REMARK                            x       y       z     vdW  Elec       q    Type
REMARK                         _______ _______ _______ _____ _____    ______ ____
ROOT
ATOM      1  N   UNL     1      44.336   5.940  10.535  0.00  0.00    +0.000 N 
ATOM      2  C   UNL     1      45.275   5.957  11.564  0.00  0.00    +0.000 A 
ATOM      3  C   UNL     1      45.833   7.180  11.937  0.00  0.00    +0.000 A 
ATOM      4  C   UNL     1      46.800   7.229  12.943  0.00  0.00    +0.000 A 
ATOM      5  C   UNL     1      47.187   6.054  13.583  0.00  0.00    +0.000 A 
ATOM      6  C   UNL     1      46.588   4.883  13.153  0.00  0.00    +0.000 A 
ATOM      7  N   UNL     1      45.663   4.809  12.159  0.00  0.00    +0.000 NA
ATOM      8  H   UNL     1      43.578   6.594  10.737  0.00  0.00    +0.000 HD
ENDROOT
BRANCH   5   9
ATOM      9  C   UNL     1      48.200   6.121  14.666  0.00  0.00    +0.000 C 
ATOM     10  N   UNL     1      47.886   5.647  15.910  0.00  0.00    +0.000 N 
ATOM     11  O   UNL     1      49.313   6.610  14.466  0.00  0.00    +0.000 OA
ATOM     12  H   UNL     1      47.007   5.239  16.188  0.00  0.00    +0.000 HD
ATOM     13  H   UNL     1      48.608   5.726  16.616  0.00  0.00    +0.000 HD
ENDBRANCH   5   9
BRANCH   1  14
ATOM     14  C   UNL     1      43.752   4.633  10.153  0.00  0.00    +0.000 C 
ATOM     15  C   UNL     1      43.391   3.848  11.414  0.00  0.00    +0.000 C 
BRANCH  14  20
ATOM     16  C   UNL     1      47.223   1.518   6.790  0.00  0.00    +0.000 C 
ATOM     17  C   UNL     1      46.360   2.326   7.696  0.00  0.00    +0.000 A 
ATOM     18  C   UNL     1      45.610   1.772   8.709  0.00  0.00    +0.000 A 
ATOM     19  N   UNL     1      44.797   2.482   9.513  0.00  0.00    +0.000 NA
ATOM     20  C   UNL     1      44.738   3.815   9.300  0.00  0.00    +0.000 A 
ATOM     21  N   UNL     1      45.436   4.458   8.332  0.00  0.00    +0.000 NA
ATOM     22  C   UNL     1      46.236   3.694   7.562  0.00  0.00    +0.000 A 
ENDBRANCH  14  20
ENDBRANCH   1  14
TORSDOF 3
ENDMDL
MODEL 5
REMARK VINA RESULT:    -6.585      4.059      6.283
REMARK INTER + INTRA:          -8.023
REMARK INTER:                  -7.629
REMARK INTRA:                  -0.394
REMARK UNBOUND:                -0.283
REMARK  Name = 
REMARK  5 active torsions:
REMARK  status: ('A' for Active; 'I' for Inactive)
REMARK    1  A    between atoms: C_1  and  C_2
REMARK    2  A    between atoms: C_5  and  C_6
REMARK    3  A    between atoms: C_6  and  C_7
REMARK    4  A    between atoms: C_6  and  N_8
REMARK    5  A    between atoms: C_12  and  C_13
REMARK                            x       y       z     vdW  Elec       q    Type
REMARK                         _______ _______ _______ _____ _____    ______ ____
ROOT
ATOM      1  N   UNL     1      47.725   5.225  15.477  0.00  0.00    +0.000 N 
ATOM      2  C   UNL     1      47.023   5.113  14.279  0.00  0.00    +0.000 A 
ATOM      3  C   UNL     1      47.155   6.130  13.334  0.00  0.00    +0.000 A 
ATOM      4  C   UNL     1      46.440   6.067  12.135  0.00  0.00    +0.000 A 
ATOM      5  C   UNL     1      45.615   4.973  11.885  0.00  0.00    +0.000 A 
ATOM      6  C   UNL     1      45.537   4.009  12.874  0.00  0.00    +0.000 A 
ATOM      7  N   UNL     1      46.205   4.064  14.058  0.00  0.00    +0.000 NA
ATOM      8  H   UNL     1      48.720   5.369  15.293  0.00  0.00    +0.000 HD
ENDROOT
BRANCH   5   9
ATOM      9  C   UNL     1      44.877   4.906  10.598  0.00  0.00    +0.000 C 
ATOM     10  N   UNL     1      45.452   5.418   9.467  0.00  0.00    +0.000 N 
ATOM     11  O   UNL     1      43.751   4.411  10.535  0.00  0.00    +0.000 OA
ATOM     12  H   UNL     1      46.358   5.854   9.404  0.00  0.00    +0.000 HD
ATOM     13  H   UNL     1      44.904   5.357   8.618  0.00  0.00    +0.000 HD
ENDBRANCH   5   9
BRANCH   1  14
ATOM     14  C   UNL     1      47.576   4.135  16.471  0.00  0.00    +0.000 C 
ATOM     15  C   UNL     1      47.048   4.712  17.785  0.00  0.00    +0.000 C 
BRANCH  14  20
ATOM     16  C   UNL     1      52.499   1.413  17.656  0.00  0.00    +0.000 C 
ATOM     17  C   UNL     1      51.246   2.139  17.309  0.00  0.00    +0.000 A 
ATOM     18  C   UNL     1      51.011   3.447  17.671  0.00  0.00    +0.000 A 
ATOM     19  N   UNL     1      49.871   4.105  17.399  0.00  0.00    +0.000 NA
ATOM     20  C   UNL     1      48.919   3.427  16.720  0.00  0.00    +0.000 A 
ATOM     21  N   UNL     1      49.051   2.140  16.316  0.00  0.00    +0.000 NA
ATOM     22  C   UNL     1      50.218   1.535  16.615  0.00  0.00    +0.000 A 
ENDBRANCH  14  20
ENDBRANCH   1  14
TORSDOF 3
ENDMDL
MODEL 6
REMARK VINA RESULT:    -6.126      3.560      5.810
REMARK INTER + INTRA:          -7.484
REMARK INTER:                  -7.108
REMARK INTRA:                  -0.376
REMARK UNBOUND:                -0.283
REMARK  Name = 
REMARK  5 active torsions:
REMARK  status: ('A' for Active; 'I' for Inactive)
REMARK    1  A    between atoms: C_1  and  C_2
REMARK    2  A    between atoms: C_5  and  C_6
REMARK    3  A    between atoms: C_6  and  C_7
REMARK    4  A    between atoms: C_6  and  N_8
REMARK    5  A    between atoms: C_12  and  C_13
REMARK                            x       y       z     vdW  Elec       q    Type
REMARK                         _______ _______ _______ _____ _____    ______ ____
ROOT
ATOM      1  N   UNL     1      47.052   5.153  15.218  0.00  0.00    +0.000 N 
ATOM      2  C   UNL     1      46.388   4.791  14.048  0.00  0.00    +0.000 A 
ATOM      3  C   UNL     1      45.785   5.794  13.288  0.00  0.00    +0.000 A 
ATOM      4  C   UNL     1      45.084   5.463  12.127  0.00  0.00    +0.000 A 
ATOM      5  C   UNL     1      45.010   4.131  11.724  0.00  0.00    +0.000 A 
ATOM      6  C   UNL     1      45.633   3.199  12.534  0.00  0.00    +0.000 A 
ATOM      7  N   UNL     1      46.300   3.496  13.682  0.00  0.00    +0.000 NA
ATOM      8  H   UNL     1      47.749   5.875  15.022  0.00  0.00    +0.000 HD
ENDROOT
BRANCH   5   9
ATOM      9  C   UNL     1      44.280   3.794  10.475  0.00  0.00    +0.000 C 
ATOM     10  N   UNL     1      44.235   4.707   9.457  0.00  0.00    +0.000 N 
ATOM     11  O   UNL     1      43.704   2.713  10.348  0.00  0.00    +0.000 OA
ATOM     12  H   UNL     1      44.658   5.622   9.457  0.00  0.00    +0.000 HD
ATOM     13  H   UNL     1      43.716   4.433   8.632  0.00  0.00    +0.000 HD
ENDBRANCH   5   9
BRANCH   1  14
ATOM     14  C   UNL     1      47.690   4.077  16.013  0.00  0.00    +0.000 C 
ATOM     15  C   UNL     1      46.823   3.763  17.233  0.00  0.00    +0.000 C 
BRANCH  14  20
ATOM     16  C   UNL     1      52.840   5.722  17.967  0.00  0.00    +0.000 C 
ATOM     17  C   UNL     1      51.527   5.288  17.415  0.00  0.00    +0.000 A 
ATOM     18  C   UNL     1      50.691   6.130  16.715  0.00  0.00    +0.000 A 
ATOM     19  N   UNL     1      49.486   5.765  16.243  0.00  0.00    +0.000 NA
ATOM     20  C   UNL     1      49.099   4.490  16.473  0.00  0.00    +0.000 A 
ATOM     21  N   UNL     1      49.846   3.584  17.149  0.00  0.00    +0.000 NA
ATOM     22  C   UNL     1      51.046   4.008  17.593  0.00  0.00    +0.000 A 
ENDBRANCH  14  20
ENDBRANCH   1  14
TORSDOF 3
ENDMDL
MODEL 7
REMARK VINA RESULT:    -5.514      5.183      8.423
REMARK INTER + INTRA:          -6.764
REMARK INTER:                  -6.325
REMARK INTRA:                  -0.439
REMARK UNBOUND:                -0.283
REMARK  Name = 
REMARK  5 active torsions:
REMARK  status: ('A' for Active; 'I' for Inactive)
REMARK    1  A    between atoms: C_1  and  C_2
REMARK    2  A    between atoms: C_5  and  C_6
REMARK    3  A    between atoms: C_6  and  C_7
REMARK    4  A    between atoms: C_6  and  N_8
REMARK    5  A    between atoms: C_12  and  C_13
REMARK                            x       y       z     vdW  Elec       q    Type
REMARK                         _______ _______ _______ _____ _____    ______ ____
ROOT
ATOM      1  N   UNL     1      48.247   7.199  14.755  0.00  0.00    +0.000 N 
ATOM      2  C   UNL     1      48.498   6.544  15.958  0.00  0.00    +0.000 A 
ATOM      3  C   UNL     1      48.608   7.307  17.121  0.00  0.00    +0.000 A 
ATOM      4  C   UNL     1      48.890   6.686  18.339  0.00  0.00    +0.000 A 
ATOM      5  C   UNL     1      49.040   5.301  18.387  0.00  0.00    +0.000 A 
ATOM      6  C   UNL     1      48.918   4.619  17.190  0.00  0.00    +0.000 A 
ATOM      7  N   UNL     1      48.668   5.206  15.989  0.00  0.00    +0.000 NA
ATOM      8  H   UNL     1      47.414   7.786  14.838  0.00  0.00    +0.000 HD
ENDROOT
BRANCH   5   9
ATOM      9  C   UNL     1      49.319   4.650  19.693  0.00  0.00    +0.000 C 
ATOM     10  N   UNL     1      48.513   3.630  20.119  0.00  0.00    +0.000 N 
ATOM     11  O   UNL     1      50.254   5.023  20.402  0.00  0.00    +0.000 OA
ATOM     12  H   UNL     1      47.717   3.254  19.629  0.00  0.00    +0.000 HD
ATOM     13  H   UNL     1      48.739   3.227  21.020  0.00  0.00    +0.000 HD
ENDBRANCH   5   9
BRANCH   1  14
ATOM     14  C   UNL     1      48.130   6.374  13.529  0.00  0.00    +0.000 C 
ATOM     15  C   UNL     1      48.888   7.051  12.385  0.00  0.00    +0.000 C 
BRANCH  14  20
ATOM     16  C   UNL     1      42.711   5.508  11.816  0.00  0.00    +0.000 C 
ATOM     17  C   UNL     1      44.098   5.766  12.293  0.00  0.00    +0.000 A 
ATOM     18  C   UNL     1      44.865   6.816  11.838  0.00  0.00    +0.000 A 
ATOM     19  N   UNL     1      46.132   7.042  12.230  0.00  0.00    +0.000 NA
ATOM     20  C   UNL     1      46.657   6.181  13.130  0.00  0.00    +0.000 A 
ATOM     21  N   UNL     1      45.987   5.119  13.640  0.00  0.00    +0.000 NA
ATOM     22  C   UNL     1      44.720   4.948  13.213  0.00  0.00    +0.000 A 
ENDBRANCH  14  20
ENDBRANCH   1  14
TORSDOF 3
ENDMDL
MODEL 8
REMARK VINA RESULT:    -5.322      5.041      8.563
REMARK INTER + INTRA:          -6.538
REMARK INTER:                  -6.413
REMARK INTRA:                  -0.125
REMARK UNBOUND:                -0.283
REMARK  Name = 
REMARK  5 active torsions:
REMARK  status: ('A' for Active; 'I' for Inactive)
REMARK    1  A    between atoms: C_1  and  C_2
REMARK    2  A    between atoms: C_5  and  C_6
REMARK    3  A    between atoms: C_6  and  C_7
REMARK    4  A    between atoms: C_6  and  N_8
REMARK    5  A    between atoms: C_12  and  C_13
REMARK                            x       y       z     vdW  Elec       q    Type
REMARK                         _______ _______ _______ _____ _____    ______ ____
ROOT
ATOM      1  N   UNL     1      47.138   5.063  15.482  0.00  0.00    +0.000 N 
ATOM      2  C   UNL     1      48.067   4.993  16.518  0.00  0.00    +0.000 A 
ATOM      3  C   UNL     1      47.627   4.590  17.779  0.00  0.00    +0.000 A 
ATOM      4  C   UNL     1      48.524   4.539  18.848  0.00  0.00    +0.000 A 
ATOM      5  C   UNL     1      49.860   4.873  18.641  0.00  0.00    +0.000 A 
ATOM      6  C   UNL     1      50.215   5.264  17.362  0.00  0.00    +0.000 A 
ATOM      7  N   UNL     1      49.353   5.344  16.313  0.00  0.00    +0.000 NA
ATOM      8  H   UNL     1      46.648   4.172  15.384  0.00  0.00    +0.000 HD
ENDROOT
BRANCH   5   9
ATOM      9  C   UNL     1      50.809   4.794  19.780  0.00  0.00    +0.000 C 
ATOM     10  N   UNL     1      51.923   4.006  19.674  0.00  0.00    +0.000 N 
ATOM     11  O   UNL     1      50.603   5.415  20.824  0.00  0.00    +0.000 OA
ATOM     12  H   UNL     1      52.184   3.448  18.876  0.00  0.00    +0.000 HD
ATOM     13  H   UNL     1      52.532   3.978  20.481  0.00  0.00    +0.000 HD
ENDBRANCH   5   9
BRANCH   1  14
ATOM     14  C   UNL     1      47.622   5.491  14.147  0.00  0.00    +0.000 C 
ATOM     15  C   UNL     1      47.768   7.013  14.123  0.00  0.00    +0.000 C 
BRANCH  14  20
ATOM     16  C   UNL     1      43.783   3.932  10.162  0.00  0.00    +0.000 C 
ATOM     17  C   UNL     1      44.813   4.308  11.170  0.00  0.00    +0.000 A 
ATOM     18  C   UNL     1      45.140   3.509  12.242  0.00  0.00    +0.000 A 
ATOM     19  N   UNL     1      46.040   3.849  13.183  0.00  0.00    +0.000 NA
ATOM     20  C   UNL     1      46.651   5.046  13.039  0.00  0.00    +0.000 A 
ATOM     21  N   UNL     1      46.402   5.905  12.021  0.00  0.00    +0.000 NA
ATOM     22  C   UNL     1      45.494   5.506  11.108  0.00  0.00    +0.000 A 
ENDBRANCH  14  20
ENDBRANCH   1  14
TORSDOF 3
ENDMDL
MODEL 9
REMARK VINA RESULT:    -5.115      3.519      5.733
REMARK INTER + INTRA:          -6.295
REMARK INTER:                  -6.122
REMARK INTRA:                  -0.173
REMARK UNBOUND:                -0.283
REMARK  Name = 
REMARK  5 active torsions:
REMARK  status: ('A' for Active; 'I' for Inactive)
REMARK    1  A    between atoms: C_1  and  C_2
REMARK    2  A    between atoms: C_5  and  C_6
REMARK    3  A    between atoms: C_6  and  C_7
REMARK    4  A    between atoms: C_6  and  N_8
REMARK    5  A    between atoms: C_12  and  C_13
REMARK                            x       y       z     vdW  Elec       q    Type
REMARK                         _______ _______ _______ _____ _____    ______ ____
ROOT
ATOM      1  N   UNL     1      47.658   6.225  14.133  0.00  0.00    +0.000 N 
ATOM      2  C   UNL     1      46.789   5.690  13.185  0.00  0.00    +0.000 A 
ATOM      3  C   UNL     1      46.270   4.414  13.404  0.00  0.00    +0.000 A 
ATOM      4  C   UNL     1      45.421   3.833  12.459  0.00  0.00    +0.000 A 
ATOM      5  C   UNL     1      45.082   4.546  11.311  0.00  0.00    +0.000 A 
ATOM      6  C   UNL     1      45.641   5.803  11.168  0.00  0.00    +0.000 A 
ATOM      7  N   UNL     1      46.489   6.377  12.063  0.00  0.00    +0.000 NA
ATOM      8  H   UNL     1      47.228   6.205  15.059  0.00  0.00    +0.000 HD
ENDROOT
BRANCH   5   9
ATOM      9  C   UNL     1      44.161   3.926  10.323  0.00  0.00    +0.000 C 
ATOM     10  N   UNL     1      44.146   4.391   9.036  0.00  0.00    +0.000 N 
ATOM     11  O   UNL     1      43.402   3.012  10.648  0.00  0.00    +0.000 OA
ATOM     12  H   UNL     1      44.712   5.138   8.665  0.00  0.00    +0.000 HD
ATOM     13  H   UNL     1      43.493   3.943   8.405  0.00  0.00    +0.000 HD
ENDBRANCH   5   9
BRANCH   1  14
ATOM     14  C   UNL     1      48.200   7.583  13.886  0.00  0.00    +0.000 C 
ATOM     15  C   UNL     1      49.402   7.489  12.945  0.00  0.00    +0.000 C 
BRANCH  14  20
ATOM     16  C   UNL     1      49.518  10.172  18.847  0.00  0.00    +0.000 C 
ATOM     17  C   UNL     1      49.226   9.498  17.551  0.00  0.00    +0.000 A 
ATOM     18  C   UNL     1      49.174  10.170  16.351  0.00  0.00    +0.000 A 
ATOM     19  N   UNL     1      48.875   9.584  15.177  0.00  0.00    +0.000 NA
ATOM     20  C   UNL     1      48.625   8.256  15.203  0.00  0.00    +0.000 A 
ATOM     21  N   UNL     1      48.651   7.503  16.329  0.00  0.00    +0.000 NA
ATOM     22  C   UNL     1      48.961   8.146  17.473  0.00  0.00    +0.000 A 
ENDBRANCH  14  20
ENDBRANCH   1  14
TORSDOF 3
ENDMDL
