MODEL 1
REMARK VINA RESULT:    -8.048      0.000      0.000
REMARK INTER + INTRA:         -10.701
REMARK INTER:                  -9.930
REMARK INTRA:                  -0.771
REMARK UNBOUND:                -0.771
REMARK  Name = 
REMARK  4 active torsions:
REMARK  status: ('A' for Active; 'I' for Inactive)
REMARK    1  A    between atoms: C_2  and  C_3
REMARK    2  A    between atoms: C_6  and  C_7
REMARK    3  A    between atoms: C_7  and  C_8
REMARK    4  A    between atoms: C_12  and  C_13
REMARK                            x       y       z     vdW  Elec       q    Type
REMARK                         _______ _______ _______ _____ _____    ______ ____
ROOT
ATOM      1  C   UNL     1      45.372   4.992  12.019  0.00  0.00    +0.000 A 
ATOM      2  C   UNL     1      45.685   4.268  13.180  0.00  0.00    +0.000 A 
ATOM      3  C   UNL     1      46.714   4.677  14.024  0.00  0.00    +0.000 A 
ATOM      4  C   UNL     1      47.443   5.829  13.727  0.00  0.00    +0.000 A 
ATOM      5  C   UNL     1      47.125   6.626  12.616  0.00  0.00    +0.000 A 
ATOM      6  C   UNL     1      46.052   6.208  11.807  0.00  0.00    +0.000 A 
ENDROOT
BRANCH   5   7
ATOM      7  C   UNL     1      47.947   7.793  12.236  0.00  0.00    +0.000 A 
ATOM      8  C   UNL     1      49.288   7.658  11.849  0.00  0.00    +0.000 A 
ATOM      9  C   UNL     1      50.030   8.767  11.443  0.00  0.00    +0.000 A 
ATOM     10  C   UNL     1      49.406  10.000  11.426  0.00  0.00    +0.000 A 
ATOM     11  N   UNL     1      48.121  10.191  11.785  0.00  0.00    +0.000 NA
ATOM     12  C   UNL     1      47.431   9.091  12.181  0.00  0.00    +0.000 A 
ENDBRANCH   5   7
BRANCH   1  13
ATOM     13  C   UNL     1      44.506   4.378  10.916  0.00  0.00    +0.000 C 
ATOM     14  C   UNL     1      43.182   3.741  11.353  0.00  0.00    +0.000 C 
ATOM     15  C   UNL     1      43.159   5.083  10.702  0.00  0.00    +0.000 C 
BRANCH  13  19
ATOM     16  C   UNL     1      46.621   2.707   7.476  0.00  0.00    +0.000 A 
ATOM     17  C   UNL     1      46.524   4.091   7.637  0.00  0.00    +0.000 A 
ATOM     18  C   UNL     1      45.816   4.626   8.721  0.00  0.00    +0.000 A 
ATOM     19  C   UNL     1      45.192   3.800   9.676  0.00  0.00    +0.000 A 
ATOM     20  C   UNL     1      45.281   2.412   9.471  0.00  0.00    +0.000 A 
ATOM     21  C   UNL     1      45.988   1.868   8.393  0.00  0.00    +0.000 A 
BRANCH  16  23
ATOM     22  N   UNL     1      47.985   1.706   5.505  0.00  0.00    +0.000 NA
ATOM     23  C   UNL     1      47.369   2.153   6.386  0.00  0.00    +0.000 C 
ENDBRANCH  16  23
ENDBRANCH  13  19
ENDBRANCH   1  13
TORSDOF 4
ENDMDL
MODEL 2
REMARK VINA RESULT:    -7.287      1.227      2.077
REMARK INTER + INTRA:          -9.761
REMARK INTER:                  -9.052
REMARK INTRA:                  -0.709
REMARK UNBOUND:                -0.771
REMARK  Name = 
REMARK  4 active torsions:
REMARK  status: ('A' for Active; 'I' for Inactive)
REMARK    1  A    between atoms: C_2  and  C_3
REMARK    2  A    between atoms: C_6  and  C_7
REMARK    3  A    between atoms: C_7  and  C_8
REMARK    4  A    between atoms: C_12  and  C_13
REMARK                            x       y       z     vdW  Elec       q    Type
REMARK                         _______ _______ _______ _____ _____    ______ ____
ROOT
ATOM      1  C   UNL     1      45.296   5.031  12.326  0.00  0.00    +0.000 A 
ATOM      2  C   UNL     1      46.217   4.516  13.251  0.00  0.00    +0.000 A 
ATOM      3  C   UNL     1      47.131   5.349  13.891  0.00  0.00    +0.000 A 
ATOM      4  C   UNL     1      47.133   6.719  13.623  0.00  0.00    +0.000 A 
ATOM      5  C   UNL     1      46.188   7.292  12.759  0.00  0.00    +0.000 A 
ATOM      6  C   UNL     1      45.250   6.430  12.162  0.00  0.00    +0.000 A 
ENDROOT
BRANCH   5   7
ATOM      7  C   UNL     1      46.237   8.723  12.393  0.00  0.00    +0.000 A 
ATOM      8  C   UNL     1      45.083   9.431  12.026  0.00  0.00    +0.000 A 
ATOM      9  C   UNL     1      45.144  10.794  11.736  0.00  0.00    +0.000 A 
ATOM     10  C   UNL     1      46.369  11.428  11.827  0.00  0.00    +0.000 A 
ATOM     11  N   UNL     1      47.509  10.800  12.175  0.00  0.00    +0.000 NA
ATOM     12  C   UNL     1      47.415   9.473  12.444  0.00  0.00    +0.000 A 
ENDBRANCH   5   7
BRANCH   1  13
ATOM     13  C   UNL     1      44.540   4.106  11.367  0.00  0.00    +0.000 C 
ATOM     14  C   UNL     1      43.632   3.048  12.002  0.00  0.00    +0.000 C 
ATOM     15  C   UNL     1      43.015   4.267  11.403  0.00  0.00    +0.000 C 
BRANCH  13  19
ATOM     16  C   UNL     1      46.181   3.186   7.422  0.00  0.00    +0.000 A 
ATOM     17  C   UNL     1      45.734   2.158   8.255  0.00  0.00    +0.000 A 
ATOM     18  C   UNL     1      45.241   2.450   9.534  0.00  0.00    +0.000 A 
ATOM     19  C   UNL     1      45.172   3.773  10.014  0.00  0.00    +0.000 A 
ATOM     20  C   UNL     1      45.657   4.783   9.165  0.00  0.00    +0.000 A 
ATOM     21  C   UNL     1      46.149   4.501   7.886  0.00  0.00    +0.000 A 
BRANCH  16  23
ATOM     22  N   UNL     1      47.040   2.666   5.026  0.00  0.00    +0.000 NA
ATOM     23  C   UNL     1      46.659   2.896   6.102  0.00  0.00    +0.000 C 
ENDBRANCH  16  23
ENDBRANCH  13  19
ENDBRANCH   1  13
TORSDOF 4
ENDMDL
MODEL 3
REMARK VINA RESULT:    -6.772      2.573      4.100
REMARK INTER + INTRA:          -9.127
REMARK INTER:                  -8.496
REMARK INTRA:                  -0.631
REMARK UNBOUND:                -0.771
REMARK  Name = 
REMARK  4 active torsions:
REMARK  status: ('A' for Active; 'I' for Inactive)
REMARK    1  A    between atoms: C_2  and  C_3
REMARK    2  A    between atoms: C_6  and  C_7
REMARK    3  A    between atoms: C_7  and  C_8
REMARK    4  A    between atoms: C_12  and  C_13
REMARK                            x       y       z     vdW  Elec       q    Type
REMARK                         _______ _______ _______ _____ _____    ______ ____
ROOT
ATOM      1  C   UNL     1      46.013   5.144  12.527  0.00  0.00    +0.000 A 
ATOM      2  C   UNL     1      46.383   6.484  12.339  0.00  0.00    +0.000 A 
ATOM      3  C   UNL     1      47.141   7.159  13.292  0.00  0.00    +0.000 A 
ATOM      4  C   UNL     1      47.552   6.498  14.451  0.00  0.00    +0.000 A 
ATOM      5  C   UNL     1      47.265   5.140  14.655  0.00  0.00    +0.000 A 
ATOM      6  C   UNL     1      46.536   4.475  13.652  0.00  0.00    +0.000 A 
ENDROOT
BRANCH   5   7
ATOM      7  C   UNL     1      47.611   4.453  15.917  0.00  0.00    +0.000 A 
ATOM      8  C   UNL     1      47.954   3.094  15.948  0.00  0.00    +0.000 A 
ATOM      9  C   UNL     1      48.328   2.479  17.143  0.00  0.00    +0.000 A 
ATOM     10  C   UNL     1      48.358   3.247  18.292  0.00  0.00    +0.000 A 
ATOM     11  N   UNL     1      48.040   4.556  18.322  0.00  0.00    +0.000 NA
ATOM     12  C   UNL     1      47.674   5.120  17.144  0.00  0.00    +0.000 A 
ENDBRANCH   5   7
BRANCH   1  13
ATOM     13  C   UNL     1      44.906   4.505  11.683  0.00  0.00    +0.000 C 
ATOM     14  C   UNL     1      43.849   3.690  12.435  0.00  0.00    +0.000 C 
ATOM     15  C   UNL     1      43.501   5.059  11.956  0.00  0.00    +0.000 C 
BRANCH  13  19
ATOM     16  C   UNL     1      45.983   3.285   7.626  0.00  0.00    +0.000 A 
ATOM     17  C   UNL     1      46.042   4.631   7.995  0.00  0.00    +0.000 A 
ATOM     18  C   UNL     1      45.663   5.026   9.285  0.00  0.00    +0.000 A 
ATOM     19  C   UNL     1      45.222   4.093  10.243  0.00  0.00    +0.000 A 
ATOM     20  C   UNL     1      45.143   2.750   9.834  0.00  0.00    +0.000 A 
ATOM     21  C   UNL     1      45.522   2.346   8.549  0.00  0.00    +0.000 A 
BRANCH  16  23
ATOM     22  N   UNL     1      46.724   2.536   5.252  0.00  0.00    +0.000 NA
ATOM     23  C   UNL     1      46.397   2.872   6.318  0.00  0.00    +0.000 C 
ENDBRANCH  16  23
ENDBRANCH  13  19
ENDBRANCH   1  13
TORSDOF 4
ENDMDL
MODEL 4
REMARK VINA RESULT:    -6.697      2.022      2.939
REMARK INTER + INTRA:          -9.034
REMARK INTER:                  -8.578
REMARK INTRA:                  -0.455
REMARK UNBOUND:                -0.771
REMARK  Name = 
REMARK  4 active torsions:
REMARK  status: ('A' for Active; 'I' for Inactive)
REMARK    1  A    between atoms: C_2  and  C_3
REMARK    2  A    between atoms: C_6  and  C_7
REMARK    3  A    between atoms: C_7  and  C_8
REMARK    4  A    between atoms: C_12  and  C_13
REMARK                            x       y       z     vdW  Elec       q    Type
REMARK                         _______ _______ _______ _____ _____    ______ ____
ROOT
ATOM      1  C   UNL     1      45.288   6.288  11.588  0.00  0.00    +0.000 A 
ATOM      2  C   UNL     1      44.765   7.586  11.490  0.00  0.00    +0.000 A 
ATOM      3  C   UNL     1      45.283   8.628  12.254  0.00  0.00    +0.000 A 
ATOM      4  C   UNL     1      46.347   8.391  13.126  0.00  0.00    +0.000 A 
ATOM      5  C   UNL     1      46.950   7.126  13.211  0.00  0.00    +0.000 A 
ATOM      6  C   UNL     1      46.431   6.106  12.393  0.00  0.00    +0.000 A 
ENDROOT
BRANCH   5   7
ATOM      7  C   UNL     1      48.012   6.837  14.196  0.00  0.00    +0.000 A 
ATOM      8  C   UNL     1      49.136   7.665  14.336  0.00  0.00    +0.000 A 
ATOM      9  C   UNL     1      50.101   7.402  15.308  0.00  0.00    +0.000 A 
ATOM     10  C   UNL     1      49.915   6.309  16.134  0.00  0.00    +0.000 A 
ATOM     11  N   UNL     1      48.857   5.479  16.047  0.00  0.00    +0.000 NA
ATOM     12  C   UNL     1      47.942   5.761  15.085  0.00  0.00    +0.000 A 
ENDBRANCH   5   7
BRANCH   1  13
ATOM     13  C   UNL     1      44.518   5.083  11.039  0.00  0.00    +0.000 C 
ATOM     14  C   UNL     1      43.548   4.389  12.001  0.00  0.00    +0.000 C 
ATOM     15  C   UNL     1      43.001   5.290  10.946  0.00  0.00    +0.000 C 
BRANCH  13  19
ATOM     16  C   UNL     1      46.229   2.651   7.836  0.00  0.00    +0.000 A 
ATOM     17  C   UNL     1      45.602   2.040   8.924  0.00  0.00    +0.000 A 
ATOM     18  C   UNL     1      45.085   2.819   9.968  0.00  0.00    +0.000 A 
ATOM     19  C   UNL     1      45.171   4.225   9.953  0.00  0.00    +0.000 A 
ATOM     20  C   UNL     1      45.834   4.809   8.861  0.00  0.00    +0.000 A 
ATOM     21  C   UNL     1      46.352   4.041   7.812  0.00  0.00    +0.000 A 
BRANCH  16  23
ATOM     22  N   UNL     1      47.135   1.217   5.869  0.00  0.00    +0.000 NA
ATOM     23  C   UNL     1      46.733   1.862   6.751  0.00  0.00    +0.000 C 
ENDBRANCH  16  23
ENDBRANCH  13  19
ENDBRANCH   1  13
TORSDOF 4
ENDMDL
MODEL 5
REMARK VINA RESULT:    -6.607      1.454      6.585
REMARK INTER + INTRA:          -8.923
REMARK INTER:                  -8.452
REMARK INTRA:                  -0.471
REMARK UNBOUND:                -0.771
REMARK  Name = 
REMARK  4 active torsions:
REMARK  status: ('A' for Active; 'I' for Inactive)
REMARK    1  A    between atoms: C_2  and  C_3
REMARK    2  A    between atoms: C_6  and  C_7
REMARK    3  A    between atoms: C_7  and  C_8
REMARK    4  A    between atoms: C_12  and  C_13
REMARK                            x       y       z     vdW  Elec       q    Type
REMARK                         _______ _______ _______ _____ _____    ______ ____
ROOT
ATOM      1  C   UNL     1      44.499   3.912  11.169  0.00  0.00    +0.000 A 
ATOM      2  C   UNL     1      43.563   2.913  11.477  0.00  0.00    +0.000 A 
ATOM      3  C   UNL     1      43.436   1.779  10.680  0.00  0.00    +0.000 A 
ATOM      4  C   UNL     1      44.254   1.619   9.560  0.00  0.00    +0.000 A 
ATOM      5  C   UNL     1      45.252   2.555   9.248  0.00  0.00    +0.000 A 
ATOM      6  C   UNL     1      45.383   3.668  10.099  0.00  0.00    +0.000 A 
ENDROOT
BRANCH   5   7
ATOM      7  C   UNL     1      46.060   2.448   8.016  0.00  0.00    +0.000 A 
ATOM      8  C   UNL     1      46.104   3.482   7.069  0.00  0.00    +0.000 A 
ATOM      9  C   UNL     1      46.916   3.382   5.939  0.00  0.00    +0.000 A 
ATOM     10  C   UNL     1      47.680   2.240   5.782  0.00  0.00    +0.000 A 
ATOM     11  N   UNL     1      47.678   1.216   6.658  0.00  0.00    +0.000 NA
ATOM     12  C   UNL     1      46.872   1.344   7.742  0.00  0.00    +0.000 A 
ENDBRANCH   5   7
BRANCH   1  13
ATOM     13  C   UNL     1      44.411   5.300  11.810  0.00  0.00    +0.000 C 
ATOM     14  C   UNL     1      43.274   6.210  11.331  0.00  0.00    +0.000 C 
ATOM     15  C   UNL     1      43.149   5.530  12.653  0.00  0.00    +0.000 C 
BRANCH  13  19
ATOM     16  C   UNL     1      48.181   7.139  13.038  0.00  0.00    +0.000 A 
ATOM     17  C   UNL     1      47.742   5.960  13.646  0.00  0.00    +0.000 A 
ATOM     18  C   UNL     1      46.516   5.390  13.277  0.00  0.00    +0.000 A 
ATOM     19  C   UNL     1      45.699   5.973  12.289  0.00  0.00    +0.000 A 
ATOM     20  C   UNL     1      46.152   7.175  11.717  0.00  0.00    +0.000 A 
ATOM     21  C   UNL     1      47.375   7.751  12.077  0.00  0.00    +0.000 A 
BRANCH  16  23
ATOM     22  N   UNL     1      50.480   8.171  13.670  0.00  0.00    +0.000 NA
ATOM     23  C   UNL     1      49.447   7.711  13.391  0.00  0.00    +0.000 C 
ENDBRANCH  16  23
ENDBRANCH  13  19
ENDBRANCH   1  13
TORSDOF 4
ENDMDL
MODEL 6
REMARK VINA RESULT:    -6.550      2.372      7.054
REMARK INTER + INTRA:          -8.852
REMARK INTER:                  -8.299
REMARK INTRA:                  -0.553
REMARK UNBOUND:                -0.771
REMARK  Name = 
REMARK  4 active torsions:
REMARK  status: ('A' for Active; 'I' for Inactive)
REMARK    1  A    between atoms: C_2  and  C_3
REMARK    2  A    between atoms: C_6  and  C_7
REMARK    3  A    between atoms: C_7  and  C_8
REMARK    4  A    between atoms: C_12  and  C_13
REMARK                            x       y       z     vdW  Elec       q    Type
REMARK                         _______ _______ _______ _____ _____    ______ ____
ROOT
ATOM      1  C   UNL     1      45.051   4.274  11.605  0.00  0.00    +0.000 A 
ATOM      2  C   UNL     1      43.894   3.574  11.979  0.00  0.00    +0.000 A 
ATOM      3  C   UNL     1      43.389   2.547  11.187  0.00  0.00    +0.000 A 
ATOM      4  C   UNL     1      44.042   2.193  10.005  0.00  0.00    +0.000 A 
ATOM      5  C   UNL     1      45.240   2.815   9.621  0.00  0.00    +0.000 A 
ATOM      6  C   UNL     1      45.747   3.819  10.467  0.00  0.00    +0.000 A 
ENDROOT
BRANCH   5   7
ATOM      7  C   UNL     1      45.891   2.517   8.329  0.00  0.00    +0.000 A 
ATOM      8  C   UNL     1      46.064   3.502   7.345  0.00  0.00    +0.000 A 
ATOM      9  C   UNL     1      46.728   3.212   6.153  0.00  0.00    +0.000 A 
ATOM     10  C   UNL     1      47.217   1.932   5.972  0.00  0.00    +0.000 A 
ATOM     11  N   UNL     1      47.081   0.947   6.881  0.00  0.00    +0.000 NA
ATOM     12  C   UNL     1      46.424   1.262   8.025  0.00  0.00    +0.000 A 
ENDBRANCH   5   7
BRANCH   1  13
ATOM     13  C   UNL     1      45.413   5.610  12.260  0.00  0.00    +0.000 C 
ATOM     14  C   UNL     1      45.296   6.861  11.382  0.00  0.00    +0.000 C 
ATOM     15  C   UNL     1      44.237   6.586  12.397  0.00  0.00    +0.000 C 
BRANCH  13  19
ATOM     16  C   UNL     1      48.286   5.740  15.550  0.00  0.00    +0.000 A 
ATOM     17  C   UNL     1      48.315   6.716  14.552  0.00  0.00    +0.000 A 
ATOM     18  C   UNL     1      47.417   6.655  13.479  0.00  0.00    +0.000 A 
ATOM     19  C   UNL     1      46.462   5.625  13.374  0.00  0.00    +0.000 A 
ATOM     20  C   UNL     1      46.476   4.640  14.376  0.00  0.00    +0.000 A 
ATOM     21  C   UNL     1      47.368   4.694  15.453  0.00  0.00    +0.000 A 
BRANCH  16  23
ATOM     22  N   UNL     1      49.919   5.872  17.567  0.00  0.00    +0.000 NA
ATOM     23  C   UNL     1      49.183   5.814  16.666  0.00  0.00    +0.000 C 
ENDBRANCH  16  23
ENDBRANCH  13  19
ENDBRANCH   1  13
TORSDOF 4
ENDMDL
MODEL 7
REMARK VINA RESULT:    -6.043      1.099      6.773
REMARK INTER + INTRA:          -8.226
REMARK INTER:                  -7.723
REMARK INTRA:                  -0.504
REMARK UNBOUND:                -0.771
REMARK  Name = 
REMARK  4 active torsions:
REMARK  status: ('A' for Active; 'I' for Inactive)
REMARK    1  A    between atoms: C_2  and  C_3
REMARK    2  A    between atoms: C_6  and  C_7
REMARK    3  A    between atoms: C_7  and  C_8
REMARK    4  A    between atoms: C_12  and  C_13
REMARK                            x       y       z     vdW  Elec       q    Type
REMARK                         _______ _______ _______ _____ _____    ______ ____
ROOT
ATOM      1  C   UNL     1      45.341   4.615  11.937  0.00  0.00    +0.000 A 
ATOM      2  C   UNL     1      43.994   5.006  11.883  0.00  0.00    +0.000 A 
ATOM      3  C   UNL     1      43.218   4.750  10.756  0.00  0.00    +0.000 A 
ATOM      4  C   UNL     1      43.775   4.085   9.662  0.00  0.00    +0.000 A 
ATOM      5  C   UNL     1      45.096   3.613   9.693  0.00  0.00    +0.000 A 
ATOM      6  C   UNL     1      45.840   3.849  10.864  0.00  0.00    +0.000 A 
ENDROOT
BRANCH   5   7
ATOM      7  C   UNL     1      45.728   2.993   8.511  0.00  0.00    +0.000 A 
ATOM      8  C   UNL     1      46.102   3.750   7.390  0.00  0.00    +0.000 A 
ATOM      9  C   UNL     1      46.745   3.152   6.306  0.00  0.00    +0.000 A 
ATOM     10  C   UNL     1      47.010   1.797   6.370  0.00  0.00    +0.000 A 
ATOM     11  N   UNL     1      46.675   1.020   7.418  0.00  0.00    +0.000 NA
ATOM     12  C   UNL     1      46.045   1.633   8.452  0.00  0.00    +0.000 A 
ENDBRANCH   5   7
BRANCH   1  13
ATOM     13  C   UNL     1      46.287   5.189  12.995  0.00  0.00    +0.000 C 
ATOM     14  C   UNL     1      46.010   4.802  14.451  0.00  0.00    +0.000 C 
ATOM     15  C   UNL     1      47.132   4.137  13.727  0.00  0.00    +0.000 C 
BRANCH  13  19
ATOM     16  C   UNL     1      48.091   9.065  12.087  0.00  0.00    +0.000 A 
ATOM     17  C   UNL     1      48.856   7.899  12.013  0.00  0.00    +0.000 A 
ATOM     18  C   UNL     1      48.287   6.661  12.338  0.00  0.00    +0.000 A 
ATOM     19  C   UNL     1      46.941   6.549  12.738  0.00  0.00    +0.000 A 
ATOM     20  C   UNL     1      46.204   7.742  12.832  0.00  0.00    +0.000 A 
ATOM     21  C   UNL     1      46.763   8.984  12.507  0.00  0.00    +0.000 A 
BRANCH  16  23
ATOM     22  N   UNL     1      49.112  11.363  11.434  0.00  0.00    +0.000 NA
ATOM     23  C   UNL     1      48.659  10.331  11.727  0.00  0.00    +0.000 C 
ENDBRANCH  16  23
ENDBRANCH  13  19
ENDBRANCH   1  13
TORSDOF 4
ENDMDL
MODEL 8
REMARK VINA RESULT:    -5.974      3.120      7.668
REMARK INTER + INTRA:          -8.142
REMARK INTER:                  -7.799
REMARK INTRA:                  -0.343
REMARK UNBOUND:                -0.771
REMARK  Name = 
REMARK  4 active torsions:
REMARK  status: ('A' for Active; 'I' for Inactive)
REMARK    1  A    between atoms: C_2  and  C_3
REMARK    2  A    between atoms: C_6  and  C_7
REMARK    3  A    between atoms: C_7  and  C_8
REMARK    4  A    between atoms: C_12  and  C_13
REMARK                            x       y       z     vdW  Elec       q    Type
REMARK                         _______ _______ _______ _____ _____    ______ ____
ROOT
ATOM      1  C   UNL     1      47.155   7.475  12.417  0.00  0.00    +0.000 A 
ATOM      2  C   UNL     1      46.196   8.476  12.633  0.00  0.00    +0.000 A 
ATOM      3  C   UNL     1      44.909   8.361  12.114  0.00  0.00    +0.000 A 
ATOM      4  C   UNL     1      44.554   7.231  11.375  0.00  0.00    +0.000 A 
ATOM      5  C   UNL     1      45.455   6.171  11.188  0.00  0.00    +0.000 A 
ATOM      6  C   UNL     1      46.733   6.300  11.763  0.00  0.00    +0.000 A 
ENDROOT
BRANCH   5   7
ATOM      7  C   UNL     1      45.126   5.014  10.330  0.00  0.00    +0.000 A 
ATOM      8  C   UNL     1      45.646   4.885   9.034  0.00  0.00    +0.000 A 
ATOM      9  C   UNL     1      45.365   3.758   8.261  0.00  0.00    +0.000 A 
ATOM     10  C   UNL     1      44.568   2.771   8.809  0.00  0.00    +0.000 A 
ATOM     11  N   UNL     1      44.042   2.840  10.048  0.00  0.00    +0.000 NA
ATOM     12  C   UNL     1      44.330   3.953  10.770  0.00  0.00    +0.000 A 
ENDBRANCH   5   7
BRANCH   1  13
ATOM     13  C   UNL     1      48.642   7.739  12.666  0.00  0.00    +0.000 C 
ATOM     14  C   UNL     1      49.571   7.654  11.450  0.00  0.00    +0.000 C 
ATOM     15  C   UNL     1      49.186   8.997  11.974  0.00  0.00    +0.000 C 
BRANCH  13  19
ATOM     16  C   UNL     1      50.402   6.576  16.494  0.00  0.00    +0.000 A 
ATOM     17  C   UNL     1      49.066   6.278  16.215  0.00  0.00    +0.000 A 
ATOM     18  C   UNL     1      48.493   6.682  15.002  0.00  0.00    +0.000 A 
ATOM     19  C   UNL     1      49.234   7.386  14.033  0.00  0.00    +0.000 A 
ATOM     20  C   UNL     1      50.566   7.699  14.354  0.00  0.00    +0.000 A 
ATOM     21  C   UNL     1      51.149   7.298  15.562  0.00  0.00    +0.000 A 
BRANCH  16  23
ATOM     22  N   UNL     1      51.497   5.780  18.711  0.00  0.00    +0.000 NA
ATOM     23  C   UNL     1      51.003   6.140  17.720  0.00  0.00    +0.000 C 
ENDBRANCH  16  23
ENDBRANCH  13  19
ENDBRANCH   1  13
TORSDOF 4
ENDMDL
MODEL 9
REMARK VINA RESULT:    -5.938      4.884      8.206
REMARK INTER + INTRA:          -8.097
REMARK INTER:                  -7.348
REMARK INTRA:                  -0.749
REMARK UNBOUND:                -0.771
REMARK  Name = 
REMARK  4 active torsions:
REMARK  status: ('A' for Active; 'I' for Inactive)
REMARK    1  A    between atoms: C_2  and  C_3
REMARK    2  A    between atoms: C_6  and  C_7
REMARK    3  A    between atoms: C_7  and  C_8
REMARK    4  A    between atoms: C_12  and  C_13
REMARK                            x       y       z     vdW  Elec       q    Type
REMARK                         _______ _______ _______ _____ _____    ______ ____
ROOT
ATOM      1  C   UNL     1      49.011   6.668  15.679  0.00  0.00    +0.000 A 
ATOM      2  C   UNL     1      49.893   7.442  14.910  0.00  0.00    +0.000 A 
ATOM      3  C   UNL     1      49.761   7.517  13.526  0.00  0.00    +0.000 A 
ATOM      4  C   UNL     1      48.732   6.825  12.885  0.00  0.00    +0.000 A 
ATOM      5  C   UNL     1      47.782   6.093  13.615  0.00  0.00    +0.000 A 
ATOM      6  C   UNL     1      47.919   6.073  15.016  0.00  0.00    +0.000 A 
ENDROOT
BRANCH   5   7
ATOM      7  C   UNL     1      46.746   5.280  12.947  0.00  0.00    +0.000 A 
ATOM      8  C   UNL     1      46.059   5.744  11.815  0.00  0.00    +0.000 A 
ATOM      9  C   UNL     1      45.122   4.939  11.168  0.00  0.00    +0.000 A 
ATOM     10  C   UNL     1      44.895   3.670  11.667  0.00  0.00    +0.000 A 
ATOM     11  N   UNL     1      45.524   3.171  12.749  0.00  0.00    +0.000 NA
ATOM     12  C   UNL     1      46.424   3.984  13.358  0.00  0.00    +0.000 A 
ENDBRANCH   5   7
BRANCH   1  13
ATOM     13  C   UNL     1      49.346   6.293  17.125  0.00  0.00    +0.000 C 
ATOM     14  C   UNL     1      49.562   7.451  18.105  0.00  0.00    +0.000 C 
ATOM     15  C   UNL     1      48.275   6.697  18.148  0.00  0.00    +0.000 C 
BRANCH  13  19
ATOM     16  C   UNL     1      51.567   2.574  17.707  0.00  0.00    +0.000 A 
ATOM     17  C   UNL     1      50.193   2.541  17.456  0.00  0.00    +0.000 A 
ATOM     18  C   UNL     1      49.475   3.735  17.304  0.00  0.00    +0.000 A 
ATOM     19  C   UNL     1      50.105   4.991  17.392  0.00  0.00    +0.000 A 
ATOM     20  C   UNL     1      51.482   4.994  17.676  0.00  0.00    +0.000 A 
ATOM     21  C   UNL     1      52.208   3.808  17.826  0.00  0.00    +0.000 A 
BRANCH  16  23
ATOM     22  N   UNL     1      52.925   0.372  17.937  0.00  0.00    +0.000 NA
ATOM     23  C   UNL     1      52.312   1.356  17.834  0.00  0.00    +0.000 C 
ENDBRANCH  16  23
ENDBRANCH  13  19
ENDBRANCH   1  13
TORSDOF 4
ENDMDL
