MODEL 1
REMARK VINA RESULT:    -7.290      0.000      0.000
REMARK INTER + INTRA:          -9.548
REMARK INTER:                  -8.995
REMARK INTRA:                  -0.554
REMARK UNBOUND:                -0.554
REMARK  Name = 
REMARK  5 active torsions:
REMARK  status: ('A' for Active; 'I' for Inactive)
REMARK    1  A    between atoms: C_1  and  C_2
REMARK    2  A    between atoms: C_2  and  C_3
REMARK    3  A    between atoms: C_7  and  C_8
REMARK    4  A    between atoms: C_14  and  N_15
REMARK    5  A    between atoms: C_19  and  C_20
REMARK                            x       y       z     vdW  Elec       q    Type
REMARK                         _______ _______ _______ _____ _____    ______ ____
ROOT
ATOM      1  C   UNL     1      44.860   5.533  12.838  0.00  0.00    +0.000 C 
ATOM      2  C   UNL     1      43.938   6.099  11.780  0.00  0.00    +0.000 C 
ATOM      3  C   UNL     1      42.504   5.605  11.748  0.00  0.00    +0.000 C 
ATOM      4  C   UNL     1      43.458   5.164  10.678  0.00  0.00    +0.000 C 
ENDROOT
BRANCH   4   5
ATOM      5  N   UNL     1      43.895   3.767  10.608  0.00  0.00    +0.000 N 
ATOM      6  C   UNL     1      44.765   3.386   9.583  0.00  0.00    +0.000 A 
ATOM      7  N   UNL     1      45.529   4.308   8.977  0.00  0.00    +0.000 NA
ATOM      8  C   UNL     1      46.313   3.890   7.959  0.00  0.00    +0.000 A 
ATOM      9  C   UNL     1      46.378   2.585   7.535  0.00  0.00    +0.000 A 
ATOM     10  C   UNL     1      45.559   1.716   8.213  0.00  0.00    +0.000 A 
ATOM     11  N   UNL     1      44.749   2.087   9.236  0.00  0.00    +0.000 NA
ATOM     12  H   UNL     1      43.222   3.017  10.729  0.00  0.00    +0.000 HD
BRANCH   9  13
ATOM     13  C   UNL     1      47.248   2.218   6.410  0.00  0.00    +0.000 C 
ATOM     14  N   UNL     1      47.117   2.912   5.238  0.00  0.00    +0.000 N 
ATOM     15  O   UNL     1      48.048   1.300   6.507  0.00  0.00    +0.000 OA
ATOM     16  H   UNL     1      46.327   3.503   5.019  0.00  0.00    +0.000 HD
ATOM     17  H   UNL     1      47.658   2.559   4.456  0.00  0.00    +0.000 HD
ENDBRANCH   9  13
ENDBRANCH   4   5
BRANCH   2  18
ATOM     18  C   UNL     1      44.237   7.558  11.466  0.00  0.00    +0.000 A 
ATOM     19  C   UNL     1      43.223   8.429  11.031  0.00  0.00    +0.000 A 
ATOM     20  C   UNL     1      43.428   9.808  10.954  0.00  0.00    +0.000 A 
ATOM     21  C   UNL     1      44.658  10.348  11.321  0.00  0.00    +0.000 A 
ATOM     22  C   UNL     1      45.703   9.512  11.734  0.00  0.00    +0.000 A 
ATOM     23  C   UNL     1      45.488   8.122  11.772  0.00  0.00    +0.000 A 
BRANCH  22  24
ATOM     24  C   UNL     1      47.021  10.081  12.193  0.00  0.00    +0.000 C 
ATOM     25  F   UNL     1      48.066   9.757  11.377  0.00  0.00    +0.000 F 
ATOM     26  F   UNL     1      47.011  11.443  12.249  0.00  0.00    +0.000 F 
ATOM     27  F   UNL     1      47.376   9.657  13.436  0.00  0.00    +0.000 F 
ENDBRANCH  22  24
ENDBRANCH   2  18
TORSDOF 4
ENDMDL
MODEL 2
REMARK VINA RESULT:    -6.737      6.399      8.061
REMARK INTER + INTRA:          -8.867
REMARK INTER:                  -8.272
REMARK INTRA:                  -0.595
REMARK UNBOUND:                -0.554
REMARK  Name = 
REMARK  5 active torsions:
REMARK  status: ('A' for Active; 'I' for Inactive)
REMARK    1  A    between atoms: C_1  and  C_2
REMARK    2  A    between atoms: C_2  and  C_3
REMARK    3  A    between atoms: C_7  and  C_8
REMARK    4  A    between atoms: C_14  and  N_15
REMARK    5  A    between atoms: C_19  and  C_20
REMARK                            x       y       z     vdW  Elec       q    Type
REMARK                         _______ _______ _______ _____ _____    ______ ____
ROOT
ATOM      1  C   UNL     1      49.378   2.018  16.641  0.00  0.00    +0.000 C 
ATOM      2  C   UNL     1      48.660   3.289  17.038  0.00  0.00    +0.000 C 
ATOM      3  C   UNL     1      47.174   3.204  17.332  0.00  0.00    +0.000 C 
ATOM      4  C   UNL     1      47.636   3.863  16.067  0.00  0.00    +0.000 C 
ENDROOT
BRANCH   4   5
ATOM      5  N   UNL     1      47.370   3.238  14.768  0.00  0.00    +0.000 N 
ATOM      6  C   UNL     1      46.518   3.888  13.872  0.00  0.00    +0.000 A 
ATOM      7  N   UNL     1      46.318   5.211  13.979  0.00  0.00    +0.000 NA
ATOM      8  C   UNL     1      45.444   5.776  13.117  0.00  0.00    +0.000 A 
ATOM      9  C   UNL     1      44.776   5.075  12.142  0.00  0.00    +0.000 A 
ATOM     10  C   UNL     1      45.043   3.729  12.113  0.00  0.00    +0.000 A 
ATOM     11  N   UNL     1      45.905   3.113  12.959  0.00  0.00    +0.000 NA
ATOM     12  H   UNL     1      47.168   2.245  14.714  0.00  0.00    +0.000 HD
BRANCH   9  13
ATOM     13  C   UNL     1      43.831   5.767  11.254  0.00  0.00    +0.000 C 
ATOM     14  N   UNL     1      43.743   7.129  11.338  0.00  0.00    +0.000 N 
ATOM     15  O   UNL     1      43.122   5.141  10.482  0.00  0.00    +0.000 OA
ATOM     16  H   UNL     1      44.114   7.671  12.106  0.00  0.00    +0.000 HD
ATOM     17  H   UNL     1      43.007   7.557  10.788  0.00  0.00    +0.000 HD
ENDBRANCH   9  13
ENDBRANCH   4   5
BRANCH   2  18
ATOM     18  C   UNL     1      49.536   4.222  17.862  0.00  0.00    +0.000 A 
ATOM     19  C   UNL     1      49.220   4.522  19.198  0.00  0.00    +0.000 A 
ATOM     20  C   UNL     1      50.122   5.188  20.030  0.00  0.00    +0.000 A 
ATOM     21  C   UNL     1      51.370   5.564  19.540  0.00  0.00    +0.000 A 
ATOM     22  C   UNL     1      51.713   5.307  18.207  0.00  0.00    +0.000 A 
ATOM     23  C   UNL     1      50.777   4.666  17.375  0.00  0.00    +0.000 A 
BRANCH  22  24
ATOM     24  C   UNL     1      53.081   5.650  17.673  0.00  0.00    +0.000 C 
ATOM     25  F   UNL     1      53.604   6.789  18.214  0.00  0.00    +0.000 F 
ATOM     26  F   UNL     1      53.998   4.673  17.923  0.00  0.00    +0.000 F 
ATOM     27  F   UNL     1      53.091   5.840  16.326  0.00  0.00    +0.000 F 
ENDBRANCH  22  24
ENDBRANCH   2  18
TORSDOF 4
ENDMDL
MODEL 3
REMARK VINA RESULT:    -6.702      5.341      7.584
REMARK INTER + INTRA:          -8.823
REMARK INTER:                  -8.627
REMARK INTRA:                  -0.196
REMARK UNBOUND:                -0.554
REMARK  Name = 
REMARK  5 active torsions:
REMARK  status: ('A' for Active; 'I' for Inactive)
REMARK    1  A    between atoms: C_1  and  C_2
REMARK    2  A    between atoms: C_2  and  C_3
REMARK    3  A    between atoms: C_7  and  C_8
REMARK    4  A    between atoms: C_14  and  N_15
REMARK    5  A    between atoms: C_19  and  C_20
REMARK                            x       y       z     vdW  Elec       q    Type
REMARK                         _______ _______ _______ _____ _____    ______ ____
ROOT
ATOM      1  C   UNL     1      43.872   5.165  11.067  0.00  0.00    +0.000 C 
ATOM      2  C   UNL     1      44.502   3.807  10.848  0.00  0.00    +0.000 C 
ATOM      3  C   UNL     1      43.825   2.600  11.471  0.00  0.00    +0.000 C 
ATOM      4  C   UNL     1      45.113   3.102  12.052  0.00  0.00    +0.000 C 
ENDROOT
BRANCH   4   5
ATOM      5  N   UNL     1      45.133   3.721  13.380  0.00  0.00    +0.000 N 
ATOM      6  C   UNL     1      46.189   4.575  13.707  0.00  0.00    +0.000 A 
ATOM      7  N   UNL     1      46.896   5.169  12.733  0.00  0.00    +0.000 NA
ATOM      8  C   UNL     1      47.938   5.943  13.108  0.00  0.00    +0.000 A 
ATOM      9  C   UNL     1      48.290   6.162  14.418  0.00  0.00    +0.000 A 
ATOM     10  C   UNL     1      47.512   5.510  15.342  0.00  0.00    +0.000 A 
ATOM     11  N   UNL     1      46.461   4.718  15.017  0.00  0.00    +0.000 NA
ATOM     12  H   UNL     1      44.925   3.166  14.203  0.00  0.00    +0.000 HD
BRANCH   9  13
ATOM     13  C   UNL     1      49.448   7.008  14.738  0.00  0.00    +0.000 C 
ATOM     14  N   UNL     1      49.905   7.018  16.027  0.00  0.00    +0.000 N 
ATOM     15  O   UNL     1      49.971   7.706  13.883  0.00  0.00    +0.000 OA
ATOM     16  H   UNL     1      49.380   6.662  16.813  0.00  0.00    +0.000 HD
ATOM     17  H   UNL     1      50.635   7.693  16.229  0.00  0.00    +0.000 HD
ENDBRANCH   9  13
ENDBRANCH   4   5
BRANCH   2  18
ATOM     18  C   UNL     1      45.153   3.679   9.478  0.00  0.00    +0.000 A 
ATOM     19  C   UNL     1      45.586   4.814   8.772  0.00  0.00    +0.000 A 
ATOM     20  C   UNL     1      46.379   4.704   7.628  0.00  0.00    +0.000 A 
ATOM     21  C   UNL     1      46.764   3.447   7.169  0.00  0.00    +0.000 A 
ATOM     22  C   UNL     1      46.332   2.290   7.829  0.00  0.00    +0.000 A 
ATOM     23  C   UNL     1      45.505   2.420   8.959  0.00  0.00    +0.000 A 
BRANCH  22  24
ATOM     24  C   UNL     1      46.786   0.923   7.385  0.00  0.00    +0.000 C 
ATOM     25  F   UNL     1      48.108   0.685   7.629  0.00  0.00    +0.000 F 
ATOM     26  F   UNL     1      46.112  -0.081   8.015  0.00  0.00    +0.000 F 
ATOM     27  F   UNL     1      46.611   0.713   6.052  0.00  0.00    +0.000 F 
ENDBRANCH  22  24
ENDBRANCH   2  18
TORSDOF 4
ENDMDL
MODEL 4
REMARK VINA RESULT:    -6.630      5.955      7.688
REMARK INTER + INTRA:          -8.733
REMARK INTER:                  -8.276
REMARK INTRA:                  -0.457
REMARK UNBOUND:                -0.554
REMARK  Name = 
REMARK  5 active torsions:
REMARK  status: ('A' for Active; 'I' for Inactive)
REMARK    1  A    between atoms: C_1  and  C_2
REMARK    2  A    between atoms: C_2  and  C_3
REMARK    3  A    between atoms: C_7  and  C_8
REMARK    4  A    between atoms: C_14  and  N_15
REMARK    5  A    between atoms: C_19  and  C_20
REMARK                            x       y       z     vdW  Elec       q    Type
REMARK                         _______ _______ _______ _____ _____    ______ ____
ROOT
ATOM      1  C   UNL     1      49.440   2.315  16.642  0.00  0.00    +0.000 C 
ATOM      2  C   UNL     1      48.565   3.491  17.016  0.00  0.00    +0.000 C 
ATOM      3  C   UNL     1      47.091   3.230  17.265  0.00  0.00    +0.000 C 
ATOM      4  C   UNL     1      47.511   3.944  16.015  0.00  0.00    +0.000 C 
ENDROOT
BRANCH   4   5
ATOM      5  N   UNL     1      47.361   3.296  14.708  0.00  0.00    +0.000 N 
ATOM      6  C   UNL     1      46.407   3.796  13.817  0.00  0.00    +0.000 A 
ATOM      7  N   UNL     1      45.976   5.061  13.938  0.00  0.00    +0.000 NA
ATOM      8  C   UNL     1      45.016   5.472  13.081  0.00  0.00    +0.000 A 
ATOM      9  C   UNL     1      44.483   4.675  12.096  0.00  0.00    +0.000 A 
ATOM     10  C   UNL     1      44.984   3.398  12.053  0.00  0.00    +0.000 A 
ATOM     11  N   UNL     1      45.941   2.935  12.894  0.00  0.00    +0.000 NA
ATOM     12  H   UNL     1      47.338   2.284  14.642  0.00  0.00    +0.000 HD
BRANCH   9  13
ATOM     13  C   UNL     1      43.431   5.199  11.214  0.00  0.00    +0.000 C 
ATOM     14  N   UNL     1      42.452   5.978  11.767  0.00  0.00    +0.000 N 
ATOM     15  O   UNL     1      43.413   4.923  10.025  0.00  0.00    +0.000 OA
ATOM     16  H   UNL     1      42.276   6.041  12.760  0.00  0.00    +0.000 HD
ATOM     17  H   UNL     1      41.689   6.230  11.148  0.00  0.00    +0.000 HD
ENDBRANCH   9  13
ENDBRANCH   4   5
BRANCH   2  18
ATOM     18  C   UNL     1      49.299   4.517  17.867  0.00  0.00    +0.000 A 
ATOM     19  C   UNL     1      50.661   4.794  17.657  0.00  0.00    +0.000 A 
ATOM     20  C   UNL     1      51.289   5.880  18.268  0.00  0.00    +0.000 A 
ATOM     21  C   UNL     1      50.560   6.722  19.105  0.00  0.00    +0.000 A 
ATOM     22  C   UNL     1      49.208   6.465  19.362  0.00  0.00    +0.000 A 
ATOM     23  C   UNL     1      48.601   5.346  18.763  0.00  0.00    +0.000 A 
BRANCH  22  24
ATOM     24  C   UNL     1      48.385   7.398  20.214  0.00  0.00    +0.000 C 
ATOM     25  F   UNL     1      47.500   8.150  19.498  0.00  0.00    +0.000 F 
ATOM     26  F   UNL     1      47.635   6.734  21.139  0.00  0.00    +0.000 F 
ATOM     27  F   UNL     1      49.144   8.284  20.914  0.00  0.00    +0.000 F 
ENDBRANCH  22  24
ENDBRANCH   2  18
TORSDOF 4
ENDMDL
MODEL 5
REMARK VINA RESULT:    -6.604      4.408      7.022
REMARK INTER + INTRA:          -8.702
REMARK INTER:                  -8.006
REMARK INTRA:                  -0.696
REMARK UNBOUND:                -0.554
REMARK  Name = 
REMARK  5 active torsions:
REMARK  status: ('A' for Active; 'I' for Inactive)
REMARK    1  A    between atoms: C_1  and  C_2
REMARK    2  A    between atoms: C_2  and  C_3
REMARK    3  A    between atoms: C_7  and  C_8
REMARK    4  A    between atoms: C_14  and  N_15
REMARK    5  A    between atoms: C_19  and  C_20
REMARK                            x       y       z     vdW  Elec       q    Type
REMARK                         _______ _______ _______ _____ _____    ______ ____
ROOT
ATOM      1  C   UNL     1      43.403   6.217  10.966  0.00  0.00    +0.000 C 
ATOM      2  C   UNL     1      44.199   5.133  11.659  0.00  0.00    +0.000 C 
ATOM      3  C   UNL     1      43.868   4.822  13.106  0.00  0.00    +0.000 C 
ATOM      4  C   UNL     1      45.141   5.546  12.782  0.00  0.00    +0.000 C 
ENDROOT
BRANCH   4   5
ATOM      5  N   UNL     1      45.310   6.950  13.168  0.00  0.00    +0.000 N 
ATOM      6  C   UNL     1      46.502   7.598  12.835  0.00  0.00    +0.000 A 
ATOM      7  N   UNL     1      47.257   7.134  11.827  0.00  0.00    +0.000 NA
ATOM      8  C   UNL     1      48.424   7.771  11.584  0.00  0.00    +0.000 A 
ATOM      9  C   UNL     1      48.857   8.864  12.295  0.00  0.00    +0.000 A 
ATOM     10  C   UNL     1      48.020   9.263  13.308  0.00  0.00    +0.000 A 
ATOM     11  N   UNL     1      46.843   8.654  13.596  0.00  0.00    +0.000 NA
ATOM     12  H   UNL     1      45.048   7.257  14.098  0.00  0.00    +0.000 HD
BRANCH   9  13
ATOM     13  C   UNL     1      50.148   9.488  11.974  0.00  0.00    +0.000 C 
ATOM     14  N   UNL     1      50.161  10.515  11.070  0.00  0.00    +0.000 N 
ATOM     15  O   UNL     1      51.184   9.084  12.477  0.00  0.00    +0.000 OA
ATOM     16  H   UNL     1      49.393  10.730  10.450  0.00  0.00    +0.000 HD
ATOM     17  H   UNL     1      51.080  10.847  10.796  0.00  0.00    +0.000 HD
ENDBRANCH   9  13
ENDBRANCH   4   5
BRANCH   2  18
ATOM     18  C   UNL     1      44.586   4.001  10.717  0.00  0.00    +0.000 A 
ATOM     19  C   UNL     1      43.913   2.768  10.750  0.00  0.00    +0.000 A 
ATOM     20  C   UNL     1      44.100   1.807   9.754  0.00  0.00    +0.000 A 
ATOM     21  C   UNL     1      44.967   2.065   8.695  0.00  0.00    +0.000 A 
ATOM     22  C   UNL     1      45.678   3.270   8.640  0.00  0.00    +0.000 A 
ATOM     23  C   UNL     1      45.501   4.212   9.671  0.00  0.00    +0.000 A 
BRANCH  22  24
ATOM     24  C   UNL     1      46.573   3.595   7.472  0.00  0.00    +0.000 C 
ATOM     25  F   UNL     1      45.929   3.567   6.270  0.00  0.00    +0.000 F 
ATOM     26  F   UNL     1      47.119   4.842   7.564  0.00  0.00    +0.000 F 
ATOM     27  F   UNL     1      47.621   2.736   7.352  0.00  0.00    +0.000 F 
ENDBRANCH  22  24
ENDBRANCH   2  18
TORSDOF 4
ENDMDL
MODEL 6
REMARK VINA RESULT:    -6.576      5.839      8.004
REMARK INTER + INTRA:          -8.667
REMARK INTER:                  -8.197
REMARK INTRA:                  -0.470
REMARK UNBOUND:                -0.554
REMARK  Name = 
REMARK  5 active torsions:
REMARK  status: ('A' for Active; 'I' for Inactive)
REMARK    1  A    between atoms: C_1  and  C_2
REMARK    2  A    between atoms: C_2  and  C_3
REMARK    3  A    between atoms: C_7  and  C_8
REMARK    4  A    between atoms: C_14  and  N_15
REMARK    5  A    between atoms: C_19  and  C_20
REMARK                            x       y       z     vdW  Elec       q    Type
REMARK                         _______ _______ _______ _____ _____    ______ ____
ROOT
ATOM      1  C   UNL     1      47.771   7.171  11.239  0.00  0.00    +0.000 C 
ATOM      2  C   UNL     1      46.548   6.905  12.089  0.00  0.00    +0.000 C 
ATOM      3  C   UNL     1      46.002   8.046  12.926  0.00  0.00    +0.000 C 
ATOM      4  C   UNL     1      46.715   6.913  13.602  0.00  0.00    +0.000 C 
ENDROOT
BRANCH   4   5
ATOM      5  N   UNL     1      48.020   7.133  14.233  0.00  0.00    +0.000 N 
ATOM      6  C   UNL     1      48.371   6.353  15.338  0.00  0.00    +0.000 A 
ATOM      7  N   UNL     1      47.775   5.167  15.536  0.00  0.00    +0.000 NA
ATOM      8  C   UNL     1      48.118   4.481  16.649  0.00  0.00    +0.000 A 
ATOM      9  C   UNL     1      49.046   4.924  17.561  0.00  0.00    +0.000 A 
ATOM     10  C   UNL     1      49.598   6.148  17.274  0.00  0.00    +0.000 A 
ATOM     11  N   UNL     1      49.283   6.878  16.176  0.00  0.00    +0.000 NA
ATOM     12  H   UNL     1      48.346   8.077  14.411  0.00  0.00    +0.000 HD
BRANCH   9  13
ATOM     13  C   UNL     1      49.350   4.121  18.753  0.00  0.00    +0.000 C 
ATOM     14  N   UNL     1      48.460   3.150  19.122  0.00  0.00    +0.000 N 
ATOM     15  O   UNL     1      50.355   4.332  19.413  0.00  0.00    +0.000 OA
ATOM     16  H   UNL     1      47.515   3.089  18.771  0.00  0.00    +0.000 HD
ATOM     17  H   UNL     1      48.652   2.692  20.006  0.00  0.00    +0.000 HD
ENDBRANCH   9  13
ENDBRANCH   4   5
BRANCH   2  18
ATOM     18  C   UNL     1      45.583   5.927  11.433  0.00  0.00    +0.000 A 
ATOM     19  C   UNL     1      44.222   5.906  11.782  0.00  0.00    +0.000 A 
ATOM     20  C   UNL     1      43.289   5.180  11.040  0.00  0.00    +0.000 A 
ATOM     21  C   UNL     1      43.701   4.459   9.922  0.00  0.00    +0.000 A 
ATOM     22  C   UNL     1      45.053   4.432   9.556  0.00  0.00    +0.000 A 
ATOM     23  C   UNL     1      45.983   5.143  10.337  0.00  0.00    +0.000 A 
BRANCH  22  24
ATOM     24  C   UNL     1      45.511   3.710   8.315  0.00  0.00    +0.000 C 
ATOM     25  F   UNL     1      45.977   2.451   8.561  0.00  0.00    +0.000 F 
ATOM     26  F   UNL     1      44.510   3.556   7.402  0.00  0.00    +0.000 F 
ATOM     27  F   UNL     1      46.515   4.358   7.665  0.00  0.00    +0.000 F 
ENDBRANCH  22  24
ENDBRANCH   2  18
TORSDOF 4
ENDMDL
MODEL 7
REMARK VINA RESULT:    -6.345      5.152      7.125
REMARK INTER + INTRA:          -8.382
REMARK INTER:                  -7.658
REMARK INTRA:                  -0.724
REMARK UNBOUND:                -0.554
REMARK  Name = 
REMARK  5 active torsions:
REMARK  status: ('A' for Active; 'I' for Inactive)
REMARK    1  A    between atoms: C_1  and  C_2
REMARK    2  A    between atoms: C_2  and  C_3
REMARK    3  A    between atoms: C_7  and  C_8
REMARK    4  A    between atoms: C_14  and  N_15
REMARK    5  A    between atoms: C_19  and  C_20
REMARK                            x       y       z     vdW  Elec       q    Type
REMARK                         _______ _______ _______ _____ _____    ______ ____
ROOT
ATOM      1  C   UNL     1      47.917   8.537  14.789  0.00  0.00    +0.000 C 
ATOM      2  C   UNL     1      49.021   7.563  14.440  0.00  0.00    +0.000 C 
ATOM      3  C   UNL     1      49.999   7.958  13.350  0.00  0.00    +0.000 C 
ATOM      4  C   UNL     1      48.978   6.896  13.071  0.00  0.00    +0.000 C 
ENDROOT
BRANCH   4   5
ATOM      5  N   UNL     1      47.888   7.150  12.124  0.00  0.00    +0.000 N 
ATOM      6  C   UNL     1      46.847   6.222  12.035  0.00  0.00    +0.000 A 
ATOM      7  N   UNL     1      46.600   5.393  13.061  0.00  0.00    +0.000 NA
ATOM      8  C   UNL     1      45.615   4.483  12.898  0.00  0.00    +0.000 A 
ATOM      9  C   UNL     1      44.854   4.381  11.758  0.00  0.00    +0.000 A 
ATOM     10  C   UNL     1      45.183   5.269  10.763  0.00  0.00    +0.000 A 
ATOM     11  N   UNL     1      46.166   6.195  10.875  0.00  0.00    +0.000 NA
ATOM     12  H   UNL     1      48.095   7.465  11.183  0.00  0.00    +0.000 HD
BRANCH   9  13
ATOM     13  C   UNL     1      43.810   3.352  11.658  0.00  0.00    +0.000 C 
ATOM     14  N   UNL     1      43.737   2.407  12.645  0.00  0.00    +0.000 N 
ATOM     15  O   UNL     1      43.046   3.323  10.706  0.00  0.00    +0.000 OA
ATOM     16  H   UNL     1      44.473   2.234  13.314  0.00  0.00    +0.000 HD
ATOM     17  H   UNL     1      43.075   1.656  12.485  0.00  0.00    +0.000 HD
ENDBRANCH   9  13
ENDBRANCH   4   5
BRANCH   2  18
ATOM     18  C   UNL     1      49.520   6.787  15.651  0.00  0.00    +0.000 A 
ATOM     19  C   UNL     1      50.804   7.008  16.176  0.00  0.00    +0.000 A 
ATOM     20  C   UNL     1      51.191   6.476  17.407  0.00  0.00    +0.000 A 
ATOM     21  C   UNL     1      50.293   5.711  18.146  0.00  0.00    +0.000 A 
ATOM     22  C   UNL     1      49.012   5.444  17.645  0.00  0.00    +0.000 A 
ATOM     23  C   UNL     1      48.652   5.961  16.387  0.00  0.00    +0.000 A 
BRANCH  22  24
ATOM     24  C   UNL     1      48.003   4.670  18.455  0.00  0.00    +0.000 C 
ATOM     25  F   UNL     1      48.406   4.429  19.736  0.00  0.00    +0.000 F 
ATOM     26  F   UNL     1      46.811   5.323  18.564  0.00  0.00    +0.000 F 
ATOM     27  F   UNL     1      47.716   3.453  17.920  0.00  0.00    +0.000 F 
ENDBRANCH  22  24
ENDBRANCH   2  18
TORSDOF 4
ENDMDL
MODEL 8
REMARK VINA RESULT:    -5.774      4.951      6.587
REMARK INTER + INTRA:          -7.678
REMARK INTER:                  -7.293
REMARK INTRA:                  -0.386
REMARK UNBOUND:                -0.554
REMARK  Name = 
REMARK  5 active torsions:
REMARK  status: ('A' for Active; 'I' for Inactive)
REMARK    1  A    between atoms: C_1  and  C_2
REMARK    2  A    between atoms: C_2  and  C_3
REMARK    3  A    between atoms: C_7  and  C_8
REMARK    4  A    between atoms: C_14  and  N_15
REMARK    5  A    between atoms: C_19  and  C_20
REMARK                            x       y       z     vdW  Elec       q    Type
REMARK                         _______ _______ _______ _____ _____    ______ ____
ROOT
ATOM      1  C   UNL     1      48.459   9.628  13.924  0.00  0.00    +0.000 C 
ATOM      2  C   UNL     1      48.561   8.272  14.587  0.00  0.00    +0.000 C 
ATOM      3  C   UNL     1      49.395   7.206  13.901  0.00  0.00    +0.000 C 
ATOM      4  C   UNL     1      47.901   7.087  13.893  0.00  0.00    +0.000 C 
ENDROOT
BRANCH   4   5
ATOM      5  N   UNL     1      47.153   7.245  12.643  0.00  0.00    +0.000 N 
ATOM      6  C   UNL     1      46.348   6.191  12.204  0.00  0.00    +0.000 A 
ATOM      7  N   UNL     1      45.907   5.276  13.082  0.00  0.00    +0.000 NA
ATOM      8  C   UNL     1      45.175   4.251  12.592  0.00  0.00    +0.000 A 
ATOM      9  C   UNL     1      44.851   4.115  11.264  0.00  0.00    +0.000 A 
ATOM     10  C   UNL     1      45.349   5.096  10.443  0.00  0.00    +0.000 A 
ATOM     11  N   UNL     1      46.093   6.140  10.884  0.00  0.00    +0.000 NA
ATOM     12  H   UNL     1      47.607   7.641  11.826  0.00  0.00    +0.000 HD
BRANCH   9  13
ATOM     13  C   UNL     1      44.061   2.961  10.813  0.00  0.00    +0.000 C 
ATOM     14  N   UNL     1      44.558   2.194   9.795  0.00  0.00    +0.000 N 
ATOM     15  O   UNL     1      42.976   2.707  11.314  0.00  0.00    +0.000 OA
ATOM     16  H   UNL     1      45.312   2.485   9.188  0.00  0.00    +0.000 HD
ATOM     17  H   UNL     1      43.936   1.475   9.443  0.00  0.00    +0.000 HD
ENDBRANCH   9  13
ENDBRANCH   4   5
BRANCH   2  18
ATOM     18  C   UNL     1      48.561   8.363  16.106  0.00  0.00    +0.000 A 
ATOM     19  C   UNL     1      48.044   9.491  16.766  0.00  0.00    +0.000 A 
ATOM     20  C   UNL     1      47.831   9.497  18.145  0.00  0.00    +0.000 A 
ATOM     21  C   UNL     1      48.129   8.363  18.898  0.00  0.00    +0.000 A 
ATOM     22  C   UNL     1      48.672   7.228  18.283  0.00  0.00    +0.000 A 
ATOM     23  C   UNL     1      48.910   7.254  16.897  0.00  0.00    +0.000 A 
BRANCH  22  24
ATOM     24  C   UNL     1      48.944   5.971  19.068  0.00  0.00    +0.000 C 
ATOM     25  F   UNL     1      47.838   5.191  19.245  0.00  0.00    +0.000 F 
ATOM     26  F   UNL     1      49.864   5.166  18.462  0.00  0.00    +0.000 F 
ATOM     27  F   UNL     1      49.427   6.219  20.315  0.00  0.00    +0.000 F 
ENDBRANCH  22  24
ENDBRANCH   2  18
TORSDOF 4
ENDMDL
MODEL 9
REMARK VINA RESULT:    -5.763      4.867      6.615
REMARK INTER + INTRA:          -7.665
REMARK INTER:                  -7.423
REMARK INTRA:                  -0.242
REMARK UNBOUND:                -0.554
REMARK  Name = 
REMARK  5 active torsions:
REMARK  status: ('A' for Active; 'I' for Inactive)
REMARK    1  A    between atoms: C_1  and  C_2
REMARK    2  A    between atoms: C_2  and  C_3
REMARK    3  A    between atoms: C_7  and  C_8
REMARK    4  A    between atoms: C_14  and  N_15
REMARK    5  A    between atoms: C_19  and  C_20
REMARK                            x       y       z     vdW  Elec       q    Type
REMARK                         _______ _______ _______ _____ _____    ______ ____
ROOT
ATOM      1  C   UNL     1      44.017   5.621  12.839  0.00  0.00    +0.000 C 
ATOM      2  C   UNL     1      45.336   6.127  12.297  0.00  0.00    +0.000 C 
ATOM      3  C   UNL     1      46.011   5.322  11.202  0.00  0.00    +0.000 C 
ATOM      4  C   UNL     1      46.587   5.308  12.586  0.00  0.00    +0.000 C 
ENDROOT
BRANCH   4   5
ATOM      5  N   UNL     1      46.539   4.087  13.395  0.00  0.00    +0.000 N 
ATOM      6  C   UNL     1      47.156   4.087  14.648  0.00  0.00    +0.000 A 
ATOM      7  N   UNL     1      47.376   5.247  15.286  0.00  0.00    +0.000 NA
ATOM      8  C   UNL     1      48.022   5.190  16.471  0.00  0.00    +0.000 A 
ATOM      9  C   UNL     1      48.441   4.017  17.053  0.00  0.00    +0.000 A 
ATOM     10  C   UNL     1      48.175   2.884  16.325  0.00  0.00    +0.000 A 
ATOM     11  N   UNL     1      47.536   2.889  15.129  0.00  0.00    +0.000 NA
ATOM     12  H   UNL     1      46.722   3.186  12.966  0.00  0.00    +0.000 HD
BRANCH   9  13
ATOM     13  C   UNL     1      49.150   4.046  18.340  0.00  0.00    +0.000 C 
ATOM     14  N   UNL     1      48.668   3.273  19.361  0.00  0.00    +0.000 N 
ATOM     15  O   UNL     1      50.126   4.761  18.504  0.00  0.00    +0.000 OA
ATOM     16  H   UNL     1      47.747   2.858  19.366  0.00  0.00    +0.000 HD
ATOM     17  H   UNL     1      49.120   3.402  20.259  0.00  0.00    +0.000 HD
ENDBRANCH   9  13
ENDBRANCH   4   5
BRANCH   2  18
ATOM     18  C   UNL     1      45.410   7.647  12.264  0.00  0.00    +0.000 A 
ATOM     19  C   UNL     1      46.530   8.330  12.768  0.00  0.00    +0.000 A 
ATOM     20  C   UNL     1      46.714   9.696  12.545  0.00  0.00    +0.000 A 
ATOM     21  C   UNL     1      45.776  10.410  11.804  0.00  0.00    +0.000 A 
ATOM     22  C   UNL     1      44.632   9.772  11.308  0.00  0.00    +0.000 A 
ATOM     23  C   UNL     1      44.448   8.403  11.572  0.00  0.00    +0.000 A 
BRANCH  22  24
ATOM     24  C   UNL     1      43.636  10.512  10.452  0.00  0.00    +0.000 C 
ATOM     25  F   UNL     1      42.989  11.515  11.114  0.00  0.00    +0.000 F 
ATOM     26  F   UNL     1      44.217  11.105   9.370  0.00  0.00    +0.000 F 
ATOM     27  F   UNL     1      42.660   9.704   9.957  0.00  0.00    +0.000 F 
ENDBRANCH  22  24
ENDBRANCH   2  18
TORSDOF 4
ENDMDL
