MODEL 1
REMARK VINA RESULT:    -8.381      0.000      0.000
REMARK INTER + INTRA:         -12.495
REMARK INTER:                 -11.320
REMARK INTRA:                  -1.175
REMARK UNBOUND:                -1.175
REMARK  Name = 
REMARK  6 active torsions:
REMARK  status: ('A' for Active; 'I' for Inactive)
REMARK    1  A    between atoms: C_2  and  C_25
REMARK    2  A    between atoms: N_3  and  C_4
REMARK    3  A    between atoms: C_4  and  C_5
REMARK    4  A    between atoms: C_8  and  C_9
REMARK    5  A    between atoms: C_9  and  N_10
REMARK    6  A    between atoms: C_11  and  C_13
REMARK                            x       y       z     vdW  Elec       q    Type
REMARK                         _______ _______ _______ _____ _____    ______ ____
ROOT
ATOM      1  C   UNL     1      44.966   5.407  10.708  0.00  0.00    +0.000 A 
ATOM      2  C   UNL     1      44.403   5.704  11.958  0.00  0.00    +0.000 A 
ATOM      3  C   UNL     1      45.043   6.582  12.840  0.00  0.00    +0.000 A 
ATOM      4  C   UNL     1      46.249   7.200  12.484  0.00  0.00    +0.000 A 
ATOM      5  C   UNL     1      46.813   6.902  11.237  0.00  0.00    +0.000 A 
ATOM      6  C   UNL     1      46.173   6.025  10.354  0.00  0.00    +0.000 A 
ENDROOT
BRANCH   1   7
ATOM      7  C   UNL     1      44.291   4.441   9.769  0.00  0.00    +0.000 C 
BRANCH   7  10
ATOM      8  O   UNL     1      45.437   1.934   9.393  0.00  0.00    +0.000 OA
ATOM      9  C   UNL     1      45.652   2.805   8.553  0.00  0.00    +0.000 C 
ATOM     10  N   UNL     1      45.138   4.076   8.659  0.00  0.00    +0.000 N 
ATOM     11  H   UNL     1      45.243   4.729   7.897  0.00  0.00    +0.000 HD
BRANCH   9  12
ATOM     12  C   UNL     1      46.454   2.558   7.382  0.00  0.00    +0.000 A 
ATOM     13  C   UNL     1      46.578   3.199   6.164  0.00  0.00    +0.000 A 
ATOM     14  C   UNL     1      47.545   2.463   5.455  0.00  0.00    +0.000 A 
ATOM     15  N   UNL     1      48.008   1.429   6.157  0.00  0.00    +0.000 NA
ATOM     16  N   UNL     1      47.339   1.511   7.322  0.00  0.00    +0.000 N 
ATOM     17  H   UNL     1      47.524   0.823   8.046  0.00  0.00    +0.000 HD
ENDBRANCH   9  12
ENDBRANCH   7  10
ENDBRANCH   1   7
BRANCH   4  18
ATOM     18  C   UNL     1      46.954   8.137  13.433  0.00  0.00    +0.000 C 
BRANCH  18  19
ATOM     19  N   UNL     1      47.419   7.446  14.610  0.00  0.00    +0.000 N 
ATOM     20  C   UNL     1      48.657   6.856  14.646  0.00  0.00    +0.000 C 
ATOM     21  O   UNL     1      49.445   6.940  13.707  0.00  0.00    +0.000 OA
ATOM     22  H   UNL     1      46.717   7.171  15.289  0.00  0.00    +0.000 HD
BRANCH  20  23
ATOM     23  C   UNL     1      49.022   6.169  15.892  0.00  0.00    +0.000 A 
ATOM     24  C   UNL     1      50.112   6.611  16.631  0.00  0.00    +0.000 A 
ATOM     25  S   UNL     1      50.363   5.735  18.074  0.00  0.00    +0.000 S 
ATOM     26  C   UNL     1      49.059   4.697  17.734  0.00  0.00    +0.000 A 
ATOM     27  N   UNL     1      48.739   3.678  18.576  0.00  0.00    +0.000 NA
ATOM     28  C   UNL     1      47.751   2.949  18.180  0.00  0.00    +0.000 A 
ATOM     29  N   UNL     1      47.047   3.151  17.021  0.00  0.00    +0.000 N 
ATOM     30  C   UNL     1      47.315   4.184  16.156  0.00  0.00    +0.000 A 
ATOM     31  O   UNL     1      46.639   4.363  15.148  0.00  0.00    +0.000 OA
ATOM     32  C   UNL     1      48.428   5.027  16.548  0.00  0.00    +0.000 A 
ATOM     33  H   UNL     1      46.276   2.549  16.772  0.00  0.00    +0.000 HD
ENDBRANCH  20  23
ENDBRANCH  18  19
ENDBRANCH   4  18
TORSDOF 6
ENDMDL
MODEL 2
REMARK VINA RESULT:    -7.595      2.283      2.656
REMARK INTER + INTRA:         -11.434
REMARK INTER:                 -10.518
REMARK INTRA:                  -0.916
REMARK UNBOUND:                -1.175
REMARK  Name = 
REMARK  6 active torsions:
REMARK  status: ('A' for Active; 'I' for Inactive)
REMARK    1  A    between atoms: C_2  and  C_25
REMARK    2  A    between atoms: N_3  and  C_4
REMARK    3  A    between atoms: C_4  and  C_5
REMARK    4  A    between atoms: C_8  and  C_9
REMARK    5  A    between atoms: C_9  and  N_10
REMARK    6  A    between atoms: C_11  and  C_13
REMARK                            x       y       z     vdW  Elec       q    Type
REMARK                         _______ _______ _______ _____ _____    ______ ____
ROOT
ATOM      1  C   UNL     1      45.234   5.051  11.354  0.00  0.00    +0.000 A 
ATOM      2  C   UNL     1      45.645   4.519  12.586  0.00  0.00    +0.000 A 
ATOM      3  C   UNL     1      46.534   5.222  13.408  0.00  0.00    +0.000 A 
ATOM      4  C   UNL     1      47.015   6.482  13.028  0.00  0.00    +0.000 A 
ATOM      5  C   UNL     1      46.606   7.012  11.797  0.00  0.00    +0.000 A 
ATOM      6  C   UNL     1      45.717   6.310  10.975  0.00  0.00    +0.000 A 
ENDROOT
BRANCH   1   7
ATOM      7  C   UNL     1      44.299   4.283  10.457  0.00  0.00    +0.000 C 
BRANCH   7  10
ATOM      8  O   UNL     1      45.651   4.566   8.042  0.00  0.00    +0.000 OA
ATOM      9  C   UNL     1      45.623   3.455   8.567  0.00  0.00    +0.000 C 
ATOM     10  N   UNL     1      44.971   3.216   9.754  0.00  0.00    +0.000 N 
ATOM     11  H   UNL     1      45.064   2.321  10.210  0.00  0.00    +0.000 HD
BRANCH   9  12
ATOM     12  C   UNL     1      46.283   2.316   7.983  0.00  0.00    +0.000 A 
ATOM     13  C   UNL     1      46.100   0.951   8.099  0.00  0.00    +0.000 A 
ATOM     14  C   UNL     1      47.068   0.375   7.256  0.00  0.00    +0.000 A 
ATOM     15  N   UNL     1      47.816   1.293   6.645  0.00  0.00    +0.000 NA
ATOM     16  N   UNL     1      47.319   2.459   7.095  0.00  0.00    +0.000 N 
ATOM     17  H   UNL     1      47.725   3.330   6.763  0.00  0.00    +0.000 HD
ENDBRANCH   9  12
ENDBRANCH   7  10
ENDBRANCH   1   7
BRANCH   4  18
ATOM     18  C   UNL     1      47.983   7.241  13.900  0.00  0.00    +0.000 C 
BRANCH  18  19
ATOM     19  N   UNL     1      47.913   6.802  15.272  0.00  0.00    +0.000 N 
ATOM     20  C   UNL     1      49.044   6.463  15.970  0.00  0.00    +0.000 C 
ATOM     21  O   UNL     1      50.167   6.572  15.482  0.00  0.00    +0.000 OA
ATOM     22  H   UNL     1      47.008   6.490  15.609  0.00  0.00    +0.000 HD
BRANCH  20  23
ATOM     23  C   UNL     1      48.853   6.018  17.358  0.00  0.00    +0.000 A 
ATOM     24  C   UNL     1      49.163   4.712  17.713  0.00  0.00    +0.000 A 
ATOM     25  S   UNL     1      48.932   4.378  19.370  0.00  0.00    +0.000 S 
ATOM     26  C   UNL     1      48.355   5.952  19.661  0.00  0.00    +0.000 A 
ATOM     27  N   UNL     1      47.948   6.329  20.903  0.00  0.00    +0.000 NA
ATOM     28  C   UNL     1      47.502   7.538  20.975  0.00  0.00    +0.000 A 
ATOM     29  N   UNL     1      47.433   8.408  19.918  0.00  0.00    +0.000 N 
ATOM     30  C   UNL     1      47.860   8.082  18.654  0.00  0.00    +0.000 A 
ATOM     31  O   UNL     1      47.824   8.898  17.738  0.00  0.00    +0.000 OA
ATOM     32  C   UNL     1      48.358   6.727  18.515  0.00  0.00    +0.000 A 
ATOM     33  H   UNL     1      47.082   9.346  20.043  0.00  0.00    +0.000 HD
ENDBRANCH  20  23
ENDBRANCH  18  19
ENDBRANCH   4  18
TORSDOF 6
ENDMDL
MODEL 3
REMARK VINA RESULT:    -7.454      1.938      2.418
REMARK INTER + INTRA:         -11.243
REMARK INTER:                 -10.577
REMARK INTRA:                  -0.666
REMARK UNBOUND:                -1.175
REMARK  Name = 
REMARK  6 active torsions:
REMARK  status: ('A' for Active; 'I' for Inactive)
REMARK    1  A    between atoms: C_2  and  C_25
REMARK    2  A    between atoms: N_3  and  C_4
REMARK    3  A    between atoms: C_4  and  C_5
REMARK    4  A    between atoms: C_8  and  C_9
REMARK    5  A    between atoms: C_9  and  N_10
REMARK    6  A    between atoms: C_11  and  C_13
REMARK                            x       y       z     vdW  Elec       q    Type
REMARK                         _______ _______ _______ _____ _____    ______ ____
ROOT
ATOM      1  C   UNL     1      44.448   4.586  11.500  0.00  0.00    +0.000 A 
ATOM      2  C   UNL     1      45.671   4.780  12.160  0.00  0.00    +0.000 A 
ATOM      3  C   UNL     1      46.084   6.064  12.536  0.00  0.00    +0.000 A 
ATOM      4  C   UNL     1      45.275   7.179  12.280  0.00  0.00    +0.000 A 
ATOM      5  C   UNL     1      44.056   6.984  11.619  0.00  0.00    +0.000 A 
ATOM      6  C   UNL     1      43.641   5.702  11.244  0.00  0.00    +0.000 A 
ENDROOT
BRANCH   1   7
ATOM      7  C   UNL     1      44.016   3.207  11.071  0.00  0.00    +0.000 C 
BRANCH   7  10
ATOM      8  O   UNL     1      44.375   3.979   8.423  0.00  0.00    +0.000 OA
ATOM      9  C   UNL     1      45.064   3.061   8.860  0.00  0.00    +0.000 C 
ATOM     10  N   UNL     1      44.951   2.603  10.153  0.00  0.00    +0.000 N 
ATOM     11  H   UNL     1      45.608   1.926  10.509  0.00  0.00    +0.000 HD
BRANCH   9  12
ATOM     12  C   UNL     1      46.057   2.397   8.055  0.00  0.00    +0.000 A 
ATOM     13  C   UNL     1      47.008   2.848   7.159  0.00  0.00    +0.000 A 
ATOM     14  C   UNL     1      47.675   1.691   6.715  0.00  0.00    +0.000 A 
ATOM     15  N   UNL     1      47.195   0.583   7.278  0.00  0.00    +0.000 NA
ATOM     16  N   UNL     1      46.221   1.036   8.090  0.00  0.00    +0.000 N 
ATOM     17  H   UNL     1      45.696   0.370   8.649  0.00  0.00    +0.000 HD
ENDBRANCH   9  12
ENDBRANCH   7  10
ENDBRANCH   1   7
BRANCH   4  18
ATOM     18  C   UNL     1      45.718   8.567  12.669  0.00  0.00    +0.000 C 
BRANCH  18  19
ATOM     19  N   UNL     1      46.495   8.552  13.883  0.00  0.00    +0.000 N 
ATOM     20  C   UNL     1      47.826   8.889  13.881  0.00  0.00    +0.000 C 
ATOM     21  O   UNL     1      48.398   9.273  12.864  0.00  0.00    +0.000 OA
ATOM     22  H   UNL     1      46.116   8.029  14.666  0.00  0.00    +0.000 HD
BRANCH  20  23
ATOM     23  C   UNL     1      48.522   8.827  15.174  0.00  0.00    +0.000 A 
ATOM     24  C   UNL     1      48.949   9.999  15.785  0.00  0.00    +0.000 A 
ATOM     25  S   UNL     1      49.690   9.751  17.302  0.00  0.00    +0.000 S 
ATOM     26  C   UNL     1      49.518   8.064  17.170  0.00  0.00    +0.000 A 
ATOM     27  N   UNL     1      49.982   7.235  18.144  0.00  0.00    +0.000 NA
ATOM     28  C   UNL     1      49.816   5.979  17.899  0.00  0.00    +0.000 A 
ATOM     29  N   UNL     1      49.221   5.475  16.772  0.00  0.00    +0.000 N 
ATOM     30  C   UNL     1      48.712   6.273  15.776  0.00  0.00    +0.000 A 
ATOM     31  O   UNL     1      48.148   5.792  14.799  0.00  0.00    +0.000 OA
ATOM     32  C   UNL     1      48.886   7.696  15.995  0.00  0.00    +0.000 A 
ATOM     33  H   UNL     1      49.113   4.479  16.645  0.00  0.00    +0.000 HD
ENDBRANCH  20  23
ENDBRANCH  18  19
ENDBRANCH   4  18
TORSDOF 6
ENDMDL
MODEL 4
REMARK VINA RESULT:    -7.344      1.938      2.149
REMARK INTER + INTRA:         -11.096
REMARK INTER:                 -10.200
REMARK INTRA:                  -0.896
REMARK UNBOUND:                -1.175
REMARK  Name = 
REMARK  6 active torsions:
REMARK  status: ('A' for Active; 'I' for Inactive)
REMARK    1  A    between atoms: C_2  and  C_25
REMARK    2  A    between atoms: N_3  and  C_4
REMARK    3  A    between atoms: C_4  and  C_5
REMARK    4  A    between atoms: C_8  and  C_9
REMARK    5  A    between atoms: C_9  and  N_10
REMARK    6  A    between atoms: C_11  and  C_13
REMARK                            x       y       z     vdW  Elec       q    Type
REMARK                         _______ _______ _______ _____ _____    ______ ____
ROOT
ATOM      1  C   UNL     1      45.336   5.143  11.541  0.00  0.00    +0.000 A 
ATOM      2  C   UNL     1      45.958   4.517  12.632  0.00  0.00    +0.000 A 
ATOM      3  C   UNL     1      46.911   5.197  13.399  0.00  0.00    +0.000 A 
ATOM      4  C   UNL     1      47.248   6.526  13.106  0.00  0.00    +0.000 A 
ATOM      5  C   UNL     1      46.629   7.150  12.016  0.00  0.00    +0.000 A 
ATOM      6  C   UNL     1      45.675   6.471  11.249  0.00  0.00    +0.000 A 
ENDROOT
BRANCH   1   7
ATOM      7  C   UNL     1      44.331   4.402  10.699  0.00  0.00    +0.000 C 
BRANCH   7  10
ATOM      8  O   UNL     1      45.562   4.818   8.239  0.00  0.00    +0.000 OA
ATOM      9  C   UNL     1      45.540   3.677   8.694  0.00  0.00    +0.000 C 
ATOM     10  N   UNL     1      44.945   3.372   9.896  0.00  0.00    +0.000 N 
ATOM     11  H   UNL     1      45.043   2.448  10.289  0.00  0.00    +0.000 HD
BRANCH   9  12
ATOM     12  C   UNL     1      46.146   2.566   8.005  0.00  0.00    +0.000 A 
ATOM     13  C   UNL     1      46.924   2.466   6.868  0.00  0.00    +0.000 A 
ATOM     14  C   UNL     1      47.208   1.094   6.733  0.00  0.00    +0.000 A 
ATOM     15  N   UNL     1      46.658   0.367   7.704  0.00  0.00    +0.000 NA
ATOM     16  N   UNL     1      46.026   1.280   8.466  0.00  0.00    +0.000 N 
ATOM     17  H   UNL     1      45.524   0.970   9.293  0.00  0.00    +0.000 HD
ENDBRANCH   9  12
ENDBRANCH   7  10
ENDBRANCH   1   7
BRANCH   4  18
ATOM     18  C   UNL     1      48.284   7.263  13.919  0.00  0.00    +0.000 C 
BRANCH  18  19
ATOM     19  N   UNL     1      48.123   7.013  15.329  0.00  0.00    +0.000 N 
ATOM     20  C   UNL     1      48.844   7.713  16.264  0.00  0.00    +0.000 C 
ATOM     21  O   UNL     1      49.611   8.620  15.947  0.00  0.00    +0.000 OA
ATOM     22  H   UNL     1      47.685   6.136  15.594  0.00  0.00    +0.000 HD
BRANCH  20  23
ATOM     23  C   UNL     1      48.608   7.367  17.672  0.00  0.00    +0.000 A 
ATOM     24  C   UNL     1      48.249   8.358  18.576  0.00  0.00    +0.000 A 
ATOM     25  S   UNL     1      47.962   7.776  20.154  0.00  0.00    +0.000 S 
ATOM     26  C   UNL     1      48.364   6.187  19.699  0.00  0.00    +0.000 A 
ATOM     27  N   UNL     1      48.350   5.174  20.607  0.00  0.00    +0.000 NA
ATOM     28  C   UNL     1      48.709   4.028  20.134  0.00  0.00    +0.000 A 
ATOM     29  N   UNL     1      49.073   3.800  18.832  0.00  0.00    +0.000 N 
ATOM     30  C   UNL     1      49.074   4.785  17.874  0.00  0.00    +0.000 A 
ATOM     31  O   UNL     1      49.366   4.539  16.708  0.00  0.00    +0.000 OA
ATOM     32  C   UNL     1      48.692   6.098  18.357  0.00  0.00    +0.000 A 
ATOM     33  H   UNL     1      49.335   2.876  18.523  0.00  0.00    +0.000 HD
ENDBRANCH  20  23
ENDBRANCH  18  19
ENDBRANCH   4  18
TORSDOF 6
ENDMDL
MODEL 5
REMARK VINA RESULT:    -7.309      4.655      9.511
REMARK INTER + INTRA:         -11.048
REMARK INTER:                 -10.277
REMARK INTRA:                  -0.771
REMARK UNBOUND:                -1.175
REMARK  Name = 
REMARK  6 active torsions:
REMARK  status: ('A' for Active; 'I' for Inactive)
REMARK    1  A    between atoms: C_2  and  C_25
REMARK    2  A    between atoms: N_3  and  C_4
REMARK    3  A    between atoms: C_4  and  C_5
REMARK    4  A    between atoms: C_8  and  C_9
REMARK    5  A    between atoms: C_9  and  N_10
REMARK    6  A    between atoms: C_11  and  C_13
REMARK                            x       y       z     vdW  Elec       q    Type
REMARK                         _______ _______ _______ _____ _____    ______ ____
ROOT
ATOM      1  C   UNL     1      51.548   2.988  17.755  0.00  0.00    +0.000 A 
ATOM      2  C   UNL     1      50.774   1.954  17.207  0.00  0.00    +0.000 A 
ATOM      3  C   UNL     1      49.408   2.137  16.960  0.00  0.00    +0.000 A 
ATOM      4  C   UNL     1      48.790   3.365  17.236  0.00  0.00    +0.000 A 
ATOM      5  C   UNL     1      49.563   4.396  17.785  0.00  0.00    +0.000 A 
ATOM      6  C   UNL     1      50.929   4.214  18.031  0.00  0.00    +0.000 A 
ENDROOT
BRANCH   1   7
ATOM      7  C   UNL     1      53.012   2.782  18.046  0.00  0.00    +0.000 C 
BRANCH   7  10
ATOM      8  O   UNL     1      54.422   0.763  16.751  0.00  0.00    +0.000 OA
ATOM      9  C   UNL     1      53.997   0.543  17.882  0.00  0.00    +0.000 C 
ATOM     10  N   UNL     1      53.280   1.475  18.597  0.00  0.00    +0.000 N 
ATOM     11  H   UNL     1      53.045   1.301  19.562  0.00  0.00    +0.000 HD
BRANCH   9  12
ATOM     12  C   UNL     1      54.227  -0.709  18.556  0.00  0.00    +0.000 A 
ATOM     13  C   UNL     1      55.369  -1.373  18.962  0.00  0.00    +0.000 A 
ATOM     14  C   UNL     1      54.912  -2.552  19.579  0.00  0.00    +0.000 A 
ATOM     15  N   UNL     1      53.583  -2.643  19.573  0.00  0.00    +0.000 NA
ATOM     16  N   UNL     1      53.190  -1.514  18.955  0.00  0.00    +0.000 N 
ATOM     17  H   UNL     1      52.196  -1.340  18.830  0.00  0.00    +0.000 HD
ENDBRANCH   9  12
ENDBRANCH   7  10
ENDBRANCH   1   7
BRANCH   4  18
ATOM     18  C   UNL     1      47.316   3.568  16.986  0.00  0.00    +0.000 C 
BRANCH  18  19
ATOM     19  N   UNL     1      47.086   4.569  15.975  0.00  0.00    +0.000 N 
ATOM     20  C   UNL     1      47.115   4.253  14.640  0.00  0.00    +0.000 C 
ATOM     21  O   UNL     1      47.280   3.100  14.248  0.00  0.00    +0.000 OA
ATOM     22  H   UNL     1      47.179   5.539  16.259  0.00  0.00    +0.000 HD
BRANCH  20  23
ATOM     23  C   UNL     1      46.878   5.355  13.697  0.00  0.00    +0.000 A 
ATOM     24  C   UNL     1      47.905   6.243  13.401  0.00  0.00    +0.000 A 
ATOM     25  S   UNL     1      47.476   7.428  12.251  0.00  0.00    +0.000 S 
ATOM     26  C   UNL     1      45.886   6.832  12.150  0.00  0.00    +0.000 A 
ATOM     27  N   UNL     1      44.966   7.427  11.343  0.00  0.00    +0.000 NA
ATOM     28  C   UNL     1      43.792   6.893  11.389  0.00  0.00    +0.000 A 
ATOM     29  N   UNL     1      43.455   5.813  12.163  0.00  0.00    +0.000 N 
ATOM     30  C   UNL     1      44.357   5.163  12.970  0.00  0.00    +0.000 A 
ATOM     31  O   UNL     1      44.034   4.173  13.619  0.00  0.00    +0.000 OA
ATOM     32  C   UNL     1      45.691   5.732  12.966  0.00  0.00    +0.000 A 
ATOM     33  H   UNL     1      42.518   5.437  12.146  0.00  0.00    +0.000 HD
ENDBRANCH  20  23
ENDBRANCH  18  19
ENDBRANCH   4  18
TORSDOF 6
ENDMDL
MODEL 6
REMARK VINA RESULT:    -7.111      4.578      9.444
REMARK INTER + INTRA:         -10.781
REMARK INTER:                  -9.716
REMARK INTRA:                  -1.065
REMARK UNBOUND:                -1.175
REMARK  Name = 
REMARK  6 active torsions:
REMARK  status: ('A' for Active; 'I' for Inactive)
REMARK    1  A    between atoms: C_2  and  C_25
REMARK    2  A    between atoms: N_3  and  C_4
REMARK    3  A    between atoms: C_4  and  C_5
REMARK    4  A    between atoms: C_8  and  C_9
REMARK    5  A    between atoms: C_9  and  N_10
REMARK    6  A    between atoms: C_11  and  C_13
REMARK                            x       y       z     vdW  Elec       q    Type
REMARK                         _______ _______ _______ _____ _____    ______ ____
ROOT
ATOM      1  C   UNL     1      51.381   2.930  17.738  0.00  0.00    +0.000 A 
ATOM      2  C   UNL     1      50.586   1.929  17.159  0.00  0.00    +0.000 A 
ATOM      3  C   UNL     1      49.237   2.165  16.870  0.00  0.00    +0.000 A 
ATOM      4  C   UNL     1      48.657   3.413  17.134  0.00  0.00    +0.000 A 
ATOM      5  C   UNL     1      49.451   4.412  17.715  0.00  0.00    +0.000 A 
ATOM      6  C   UNL     1      50.800   4.177  18.002  0.00  0.00    +0.000 A 
ENDROOT
BRANCH   1   7
ATOM      7  C   UNL     1      52.826   2.667  18.074  0.00  0.00    +0.000 C 
BRANCH   7  10
ATOM      8  O   UNL     1      54.340   0.699  16.819  0.00  0.00    +0.000 OA
ATOM      9  C   UNL     1      53.810   0.429  17.893  0.00  0.00    +0.000 C 
ATOM     10  N   UNL     1      53.034   1.332  18.583  0.00  0.00    +0.000 N 
ATOM     11  H   UNL     1      52.709   1.114  19.512  0.00  0.00    +0.000 HD
BRANCH   9  12
ATOM     12  C   UNL     1      53.968  -0.857  18.523  0.00  0.00    +0.000 A 
ATOM     13  C   UNL     1      55.067  -1.643  18.812  0.00  0.00    +0.000 A 
ATOM     14  C   UNL     1      54.547  -2.785  19.450  0.00  0.00    +0.000 A 
ATOM     15  N   UNL     1      53.221  -2.741  19.563  0.00  0.00    +0.000 NA
ATOM     16  N   UNL     1      52.893  -1.562  19.002  0.00  0.00    +0.000 N 
ATOM     17  H   UNL     1      51.916  -1.285  18.971  0.00  0.00    +0.000 HD
ENDBRANCH   9  12
ENDBRANCH   7  10
ENDBRANCH   1   7
BRANCH   4  18
ATOM     18  C   UNL     1      47.201   3.673  16.839  0.00  0.00    +0.000 C 
BRANCH  18  19
ATOM     19  N   UNL     1      47.042   4.666  15.805  0.00  0.00    +0.000 N 
ATOM     20  C   UNL     1      47.101   4.327  14.477  0.00  0.00    +0.000 C 
ATOM     21  O   UNL     1      47.234   3.163  14.108  0.00  0.00    +0.000 OA
ATOM     22  H   UNL     1      47.162   5.636  16.077  0.00  0.00    +0.000 HD
BRANCH  20  23
ATOM     23  C   UNL     1      46.937   5.422  13.511  0.00  0.00    +0.000 A 
ATOM     24  C   UNL     1      45.886   5.390  12.604  0.00  0.00    +0.000 A 
ATOM     25  S   UNL     1      45.811   6.762  11.591  0.00  0.00    +0.000 S 
ATOM     26  C   UNL     1      47.215   7.420  12.291  0.00  0.00    +0.000 A 
ATOM     27  N   UNL     1      47.726   8.603  11.853  0.00  0.00    +0.000 NA
ATOM     28  C   UNL     1      48.812   8.968  12.448  0.00  0.00    +0.000 A 
ATOM     29  N   UNL     1      49.429   8.262  13.447  0.00  0.00    +0.000 N 
ATOM     30  C   UNL     1      48.935   7.079  13.941  0.00  0.00    +0.000 A 
ATOM     31  O   UNL     1      49.490   6.493  14.865  0.00  0.00    +0.000 OA
ATOM     32  C   UNL     1      47.721   6.616  13.296  0.00  0.00    +0.000 A 
ATOM     33  H   UNL     1      50.274   8.608  13.879  0.00  0.00    +0.000 HD
ENDBRANCH  20  23
ENDBRANCH  18  19
ENDBRANCH   4  18
TORSDOF 6
ENDMDL
MODEL 7
REMARK VINA RESULT:    -6.901      3.120      8.584
REMARK INTER + INTRA:         -10.497
REMARK INTER:                  -9.554
REMARK INTRA:                  -0.943
REMARK UNBOUND:                -1.175
REMARK  Name = 
REMARK  6 active torsions:
REMARK  status: ('A' for Active; 'I' for Inactive)
REMARK    1  A    between atoms: C_2  and  C_25
REMARK    2  A    between atoms: N_3  and  C_4
REMARK    3  A    between atoms: C_4  and  C_5
REMARK    4  A    between atoms: C_8  and  C_9
REMARK    5  A    between atoms: C_9  and  N_10
REMARK    6  A    between atoms: C_11  and  C_13
REMARK                            x       y       z     vdW  Elec       q    Type
REMARK                         _______ _______ _______ _____ _____    ______ ____
ROOT
ATOM      1  C   UNL     1      50.127   7.063  15.582  0.00  0.00    +0.000 A 
ATOM      2  C   UNL     1      50.566   7.817  14.482  0.00  0.00    +0.000 A 
ATOM      3  C   UNL     1      49.741   8.000  13.366  0.00  0.00    +0.000 A 
ATOM      4  C   UNL     1      48.452   7.452  13.333  0.00  0.00    +0.000 A 
ATOM      5  C   UNL     1      48.015   6.698  14.429  0.00  0.00    +0.000 A 
ATOM      6  C   UNL     1      48.839   6.515  15.546  0.00  0.00    +0.000 A 
ENDROOT
BRANCH   1   7
ATOM      7  C   UNL     1      51.025   6.843  16.771  0.00  0.00    +0.000 C 
BRANCH   7  10
ATOM      8  O   UNL     1      50.003   4.948  18.533  0.00  0.00    +0.000 OA
ATOM      9  C   UNL     1      50.901   4.607  17.767  0.00  0.00    +0.000 C 
ATOM     10  N   UNL     1      51.476   5.476  16.869  0.00  0.00    +0.000 N 
ATOM     11  H   UNL     1      52.131   5.133  16.182  0.00  0.00    +0.000 HD
BRANCH   9  12
ATOM     12  C   UNL     1      51.417   3.262  17.742  0.00  0.00    +0.000 A 
ATOM     13  C   UNL     1      52.666   2.720  17.980  0.00  0.00    +0.000 A 
ATOM     14  C   UNL     1      52.507   1.333  17.804  0.00  0.00    +0.000 A 
ATOM     15  N   UNL     1      51.257   1.005  17.478  0.00  0.00    +0.000 NA
ATOM     16  N   UNL     1      50.615   2.187  17.454  0.00  0.00    +0.000 N 
ATOM     17  H   UNL     1      49.623   2.205  17.232  0.00  0.00    +0.000 HD
ENDBRANCH   9  12
ENDBRANCH   7  10
ENDBRANCH   1   7
BRANCH   4  18
ATOM     18  C   UNL     1      47.560   7.633  12.129  0.00  0.00    +0.000 C 
BRANCH  18  19
ATOM     19  N   UNL     1      46.869   6.413  11.797  0.00  0.00    +0.000 N 
ATOM     20  C   UNL     1      45.498   6.356  11.768  0.00  0.00    +0.000 C 
ATOM     21  O   UNL     1      44.802   7.349  11.965  0.00  0.00    +0.000 OA
ATOM     22  H   UNL     1      47.401   5.551  11.859  0.00  0.00    +0.000 HD
BRANCH  20  23
ATOM     23  C   UNL     1      44.900   5.057  11.428  0.00  0.00    +0.000 A 
ATOM     24  C   UNL     1      44.141   4.379  12.373  0.00  0.00    +0.000 A 
ATOM     25  S   UNL     1      43.478   2.915  11.798  0.00  0.00    +0.000 S 
ATOM     26  C   UNL     1      44.230   3.108  10.284  0.00  0.00    +0.000 A 
ATOM     27  N   UNL     1      44.091   2.169   9.310  0.00  0.00    +0.000 NA
ATOM     28  C   UNL     1      44.741   2.425   8.225  0.00  0.00    +0.000 A 
ATOM     29  N   UNL     1      45.513   3.539   8.022  0.00  0.00    +0.000 N 
ATOM     30  C   UNL     1      45.659   4.528   8.965  0.00  0.00    +0.000 A 
ATOM     31  O   UNL     1      46.324   5.533   8.737  0.00  0.00    +0.000 OA
ATOM     32  C   UNL     1      44.958   4.282  10.211  0.00  0.00    +0.000 A 
ATOM     33  H   UNL     1      45.990   3.686   7.144  0.00  0.00    +0.000 HD
ENDBRANCH  20  23
ENDBRANCH  18  19
ENDBRANCH   4  18
TORSDOF 6
ENDMDL
MODEL 8
REMARK VINA RESULT:    -6.814      3.858      8.357
REMARK INTER + INTRA:         -10.379
REMARK INTER:                  -9.326
REMARK INTRA:                  -1.053
REMARK UNBOUND:                -1.175
REMARK  Name = 
REMARK  6 active torsions:
REMARK  status: ('A' for Active; 'I' for Inactive)
REMARK    1  A    between atoms: C_2  and  C_25
REMARK    2  A    between atoms: N_3  and  C_4
REMARK    3  A    between atoms: C_4  and  C_5
REMARK    4  A    between atoms: C_8  and  C_9
REMARK    5  A    between atoms: C_9  and  N_10
REMARK    6  A    between atoms: C_11  and  C_13
REMARK                            x       y       z     vdW  Elec       q    Type
REMARK                         _______ _______ _______ _____ _____    ______ ____
ROOT
ATOM      1  C   UNL     1      49.762   4.696  17.618  0.00  0.00    +0.000 A 
ATOM      2  C   UNL     1      50.543   5.772  17.169  0.00  0.00    +0.000 A 
ATOM      3  C   UNL     1      50.096   6.594  16.128  0.00  0.00    +0.000 A 
ATOM      4  C   UNL     1      48.849   6.373  15.528  0.00  0.00    +0.000 A 
ATOM      5  C   UNL     1      48.071   5.298  15.975  0.00  0.00    +0.000 A 
ATOM      6  C   UNL     1      48.516   4.476  17.016  0.00  0.00    +0.000 A 
ENDROOT
BRANCH   1   7
ATOM      7  C   UNL     1      50.255   3.794  18.720  0.00  0.00    +0.000 C 
BRANCH   7  10
ATOM      8  O   UNL     1      50.560   1.401  17.335  0.00  0.00    +0.000 OA
ATOM      9  C   UNL     1      51.571   1.997  17.698  0.00  0.00    +0.000 C 
ATOM     10  N   UNL     1      51.521   3.180  18.397  0.00  0.00    +0.000 N 
ATOM     11  H   UNL     1      52.368   3.696  18.581  0.00  0.00    +0.000 HD
BRANCH   9  12
ATOM     12  C   UNL     1      52.894   1.506  17.409  0.00  0.00    +0.000 A 
ATOM     13  C   UNL     1      54.152   2.077  17.468  0.00  0.00    +0.000 A 
ATOM     14  C   UNL     1      55.038   1.060  17.067  0.00  0.00    +0.000 A 
ATOM     15  N   UNL     1      54.406  -0.076  16.774  0.00  0.00    +0.000 NA
ATOM     16  N   UNL     1      53.111   0.216  16.995  0.00  0.00    +0.000 N 
ATOM     17  H   UNL     1      52.410  -0.505  16.846  0.00  0.00    +0.000 HD
ENDBRANCH   9  12
ENDBRANCH   7  10
ENDBRANCH   1   7
BRANCH   4  18
ATOM     18  C   UNL     1      48.364   7.246  14.396  0.00  0.00    +0.000 C 
BRANCH  18  19
ATOM     19  N   UNL     1      47.113   6.770  13.862  0.00  0.00    +0.000 N 
ATOM     20  C   UNL     1      46.884   6.735  12.509  0.00  0.00    +0.000 C 
ATOM     21  O   UNL     1      47.748   7.051  11.695  0.00  0.00    +0.000 OA
ATOM     22  H   UNL     1      46.326   6.727  14.501  0.00  0.00    +0.000 HD
BRANCH  20  23
ATOM     23  C   UNL     1      45.569   6.242  12.077  0.00  0.00    +0.000 A 
ATOM     24  C   UNL     1      44.646   7.124  11.531  0.00  0.00    +0.000 A 
ATOM     25  S   UNL     1      43.194   6.378  11.035  0.00  0.00    +0.000 S 
ATOM     26  C   UNL     1      43.724   4.859  11.585  0.00  0.00    +0.000 A 
ATOM     27  N   UNL     1      42.927   3.761  11.484  0.00  0.00    +0.000 NA
ATOM     28  C   UNL     1      43.440   2.682  11.971  0.00  0.00    +0.000 A 
ATOM     29  N   UNL     1      44.683   2.598  12.544  0.00  0.00    +0.000 N 
ATOM     30  C   UNL     1      45.534   3.672  12.641  0.00  0.00    +0.000 A 
ATOM     31  O   UNL     1      46.656   3.554  13.122  0.00  0.00    +0.000 OA
ATOM     32  C   UNL     1      44.999   4.916  12.120  0.00  0.00    +0.000 A 
ATOM     33  H   UNL     1      45.031   1.719  12.898  0.00  0.00    +0.000 HD
ENDBRANCH  20  23
ENDBRANCH  18  19
ENDBRANCH   4  18
TORSDOF 6
ENDMDL
MODEL 9
REMARK VINA RESULT:    -6.449      4.750      7.252
REMARK INTER + INTRA:          -9.886
REMARK INTER:                  -9.021
REMARK INTRA:                  -0.866
REMARK UNBOUND:                -1.175
REMARK  Name = 
REMARK  6 active torsions:
REMARK  status: ('A' for Active; 'I' for Inactive)
REMARK    1  A    between atoms: C_2  and  C_25
REMARK    2  A    between atoms: N_3  and  C_4
REMARK    3  A    between atoms: C_4  and  C_5
REMARK    4  A    between atoms: C_8  and  C_9
REMARK    5  A    between atoms: C_9  and  N_10
REMARK    6  A    between atoms: C_11  and  C_13
REMARK                            x       y       z     vdW  Elec       q    Type
REMARK                         _______ _______ _______ _____ _____    ______ ____
ROOT
ATOM      1  C   UNL     1      50.754   8.714  11.372  0.00  0.00    +0.000 A 
ATOM      2  C   UNL     1      49.928   9.847  11.417  0.00  0.00    +0.000 A 
ATOM      3  C   UNL     1      48.586   9.738  11.801  0.00  0.00    +0.000 A 
ATOM      4  C   UNL     1      48.046   8.498  12.170  0.00  0.00    +0.000 A 
ATOM      5  C   UNL     1      48.872   7.367  12.123  0.00  0.00    +0.000 A 
ATOM      6  C   UNL     1      50.213   7.476  11.740  0.00  0.00    +0.000 A 
ENDROOT
BRANCH   1   7
ATOM      7  C   UNL     1      52.191   8.827  10.933  0.00  0.00    +0.000 C 
BRANCH   7  10
ATOM      8  O   UNL     1      52.789   9.070   8.227  0.00  0.00    +0.000 OA
ATOM      9  C   UNL     1      52.871   7.958   8.744  0.00  0.00    +0.000 C 
ATOM     10  N   UNL     1      52.585   7.738  10.071  0.00  0.00    +0.000 N 
ATOM     11  H   UNL     1      52.771   6.837  10.486  0.00  0.00    +0.000 HD
BRANCH   9  12
ATOM     12  C   UNL     1      53.286   6.796   8.000  0.00  0.00    +0.000 A 
ATOM     13  C   UNL     1      53.715   5.536   8.370  0.00  0.00    +0.000 A 
ATOM     14  C   UNL     1      53.957   4.858   7.161  0.00  0.00    +0.000 A 
ATOM     15  N   UNL     1      53.705   5.618   6.096  0.00  0.00    +0.000 NA
ATOM     16  N   UNL     1      53.294   6.784   6.628  0.00  0.00    +0.000 N 
ATOM     17  H   UNL     1      53.029   7.543   6.007  0.00  0.00    +0.000 HD
ENDBRANCH   9  12
ENDBRANCH   7  10
ENDBRANCH   1   7
BRANCH   4  18
ATOM     18  C   UNL     1      46.598   8.369  12.573  0.00  0.00    +0.000 C 
BRANCH  18  19
ATOM     19  N   UNL     1      46.111   7.028  12.363  0.00  0.00    +0.000 N 
ATOM     20  C   UNL     1      44.975   6.790  11.630  0.00  0.00    +0.000 C 
ATOM     21  O   UNL     1      44.358   7.695  11.074  0.00  0.00    +0.000 OA
ATOM     22  H   UNL     1      46.460   6.309  12.988  0.00  0.00    +0.000 HD
BRANCH  20  23
ATOM     23  C   UNL     1      44.564   5.386  11.491  0.00  0.00    +0.000 A 
ATOM     24  C   UNL     1      43.869   4.765  12.521  0.00  0.00    +0.000 A 
ATOM     25  S   UNL     1      43.424   3.154  12.175  0.00  0.00    +0.000 S 
ATOM     26  C   UNL     1      44.194   3.211  10.659  0.00  0.00    +0.000 A 
ATOM     27  N   UNL     1      44.212   2.123   9.843  0.00  0.00    +0.000 NA
ATOM     28  C   UNL     1      44.860   2.294   8.739  0.00  0.00    +0.000 A 
ATOM     29  N   UNL     1      45.485   3.458   8.374  0.00  0.00    +0.000 N 
ATOM     30  C   UNL     1      45.469   4.590   9.152  0.00  0.00    +0.000 A 
ATOM     31  O   UNL     1      46.003   5.629   8.777  0.00  0.00    +0.000 OA
ATOM     32  C   UNL     1      44.765   4.447  10.412  0.00  0.00    +0.000 A 
ATOM     33  H   UNL     1      45.969   3.530   7.491  0.00  0.00    +0.000 HD
ENDBRANCH  20  23
ENDBRANCH  18  19
ENDBRANCH   4  18
TORSDOF 6
ENDMDL
