MODEL 1
REMARK VINA RESULT:    -6.965      0.000      0.000
REMARK INTER + INTRA:          -9.430
REMARK INTER:                  -8.797
REMARK INTRA:                  -0.633
REMARK UNBOUND:                -0.633
REMARK  Name = 
REMARK  5 active torsions:
REMARK  status: ('A' for Active; 'I' for Inactive)
REMARK    1  A    between atoms: N_1  and  C_2
REMARK    2  A    between atoms: C_2  and  C_3
REMARK    3  A    between atoms: C_6  and  O_7
REMARK    4  A    between atoms: O_7  and  C_8
REMARK    5  A    between atoms: C_8  and  C_9
REMARK                            x       y       z     vdW  Elec       q    Type
REMARK                         _______ _______ _______ _____ _____    ______ ____
ROOT
ATOM      1  C   UNL     1      46.533   2.288   7.644  0.00  0.00    +0.000 A 
ATOM      2  C   UNL     1      45.698   1.587   8.507  0.00  0.00    +0.000 A 
ATOM      3  C   UNL     1      44.718   2.238   9.277  0.00  0.00    +0.000 A 
ATOM      4  C   UNL     1      44.595   3.638   9.179  0.00  0.00    +0.000 A 
ATOM      5  C   UNL     1      45.429   4.328   8.310  0.00  0.00    +0.000 A 
ATOM      6  C   UNL     1      46.389   3.690   7.556  0.00  0.00    +0.000 A 
ENDROOT
BRANCH   1   7
ATOM      7  C   UNL     1      47.575   1.582   6.819  0.00  0.00    +0.000 C 
BRANCH   7   8
ATOM      8  N   UNL     1      48.600   2.512   6.366  0.00  0.00    +0.000 NA
ATOM      9  H   UNL     1      48.786   3.193   7.099  0.00  0.00    +0.000 HD
ATOM     10  H   UNL     1      48.242   3.031   5.566  0.00  0.00    +0.000 HD
ENDBRANCH   7   8
ENDBRANCH   1   7
BRANCH   4  11
ATOM     11  O   UNL     1      43.654   4.315   9.921  0.00  0.00    +0.000 OA
BRANCH  11  12
ATOM     12  C   UNL     1      43.579   3.866  11.298  0.00  0.00    +0.000 C 
BRANCH  12  13
ATOM     13  C   UNL     1      44.666   4.494  12.127  0.00  0.00    +0.000 A 
ATOM     14  C   UNL     1      45.609   3.719  12.803  0.00  0.00    +0.000 A 
ATOM     15  C   UNL     1      46.601   4.360  13.525  0.00  0.00    +0.000 A 
ATOM     16  N   UNL     1      46.728   5.701  13.603  0.00  0.00    +0.000 NA
ATOM     17  C   UNL     1      45.819   6.434  12.927  0.00  0.00    +0.000 A 
ATOM     18  C   UNL     1      44.790   5.887  12.181  0.00  0.00    +0.000 A 
ENDBRANCH  12  13
ENDBRANCH  11  12
ENDBRANCH   4  11
TORSDOF 5
ENDMDL
MODEL 2
REMARK VINA RESULT:    -6.938      0.093      1.208
REMARK INTER + INTRA:          -9.396
REMARK INTER:                  -8.760
REMARK INTRA:                  -0.636
REMARK UNBOUND:                -0.633
REMARK  Name = 
REMARK  5 active torsions:
REMARK  status: ('A' for Active; 'I' for Inactive)
REMARK    1  A    between atoms: N_1  and  C_2
REMARK    2  A    between atoms: C_2  and  C_3
REMARK    3  A    between atoms: C_6  and  O_7
REMARK    4  A    between atoms: O_7  and  C_8
REMARK    5  A    between atoms: C_8  and  C_9
REMARK                            x       y       z     vdW  Elec       q    Type
REMARK                         _______ _______ _______ _____ _____    ______ ____
ROOT
ATOM      1  C   UNL     1      46.572   2.303   7.614  0.00  0.00    +0.000 A 
ATOM      2  C   UNL     1      46.407   3.684   7.563  0.00  0.00    +0.000 A 
ATOM      3  C   UNL     1      45.441   4.340   8.345  0.00  0.00    +0.000 A 
ATOM      4  C   UNL     1      44.612   3.574   9.187  0.00  0.00    +0.000 A 
ATOM      5  C   UNL     1      44.789   2.198   9.236  0.00  0.00    +0.000 A 
ATOM      6  C   UNL     1      45.735   1.554   8.469  0.00  0.00    +0.000 A 
ENDROOT
BRANCH   1   7
ATOM      7  C   UNL     1      47.614   1.610   6.777  0.00  0.00    +0.000 C 
BRANCH   7   8
ATOM      8  N   UNL     1      48.628   2.552   6.324  0.00  0.00    +0.000 NA
ATOM      9  H   UNL     1      48.301   3.503   6.479  0.00  0.00    +0.000 HD
ATOM     10  H   UNL     1      48.751   2.444   5.318  0.00  0.00    +0.000 HD
ENDBRANCH   7   8
ENDBRANCH   1   7
BRANCH   4  11
ATOM     11  O   UNL     1      43.648   4.177   9.964  0.00  0.00    +0.000 OA
BRANCH  11  12
ATOM     12  C   UNL     1      43.639   3.703  11.334  0.00  0.00    +0.000 C 
BRANCH  12  13
ATOM     13  C   UNL     1      44.714   4.377  12.142  0.00  0.00    +0.000 A 
ATOM     14  C   UNL     1      45.699   3.644  12.805  0.00  0.00    +0.000 A 
ATOM     15  C   UNL     1      46.676   4.326  13.508  0.00  0.00    +0.000 A 
ATOM     16  N   UNL     1      46.750   5.672  13.580  0.00  0.00    +0.000 NA
ATOM     17  C   UNL     1      45.801   6.365  12.917  0.00  0.00    +0.000 A 
ATOM     18  C   UNL     1      44.783   5.775  12.190  0.00  0.00    +0.000 A 
ENDBRANCH  12  13
ENDBRANCH  11  12
ENDBRANCH   4  11
TORSDOF 5
ENDMDL
MODEL 3
REMARK VINA RESULT:    -6.735      1.233      5.817
REMARK INTER + INTRA:          -9.140
REMARK INTER:                  -8.611
REMARK INTRA:                  -0.528
REMARK UNBOUND:                -0.633
REMARK  Name = 
REMARK  5 active torsions:
REMARK  status: ('A' for Active; 'I' for Inactive)
REMARK    1  A    between atoms: N_1  and  C_2
REMARK    2  A    between atoms: C_2  and  C_3
REMARK    3  A    between atoms: C_6  and  O_7
REMARK    4  A    between atoms: O_7  and  C_8
REMARK    5  A    between atoms: C_8  and  C_9
REMARK                            x       y       z     vdW  Elec       q    Type
REMARK                         _______ _______ _______ _____ _____    ______ ____
ROOT
ATOM      1  C   UNL     1      46.318   5.396  12.701  0.00  0.00    +0.000 A 
ATOM      2  C   UNL     1      46.090   5.999  11.469  0.00  0.00    +0.000 A 
ATOM      3  C   UNL     1      45.391   5.340  10.443  0.00  0.00    +0.000 A 
ATOM      4  C   UNL     1      44.927   4.030  10.670  0.00  0.00    +0.000 A 
ATOM      5  C   UNL     1      45.153   3.438  11.905  0.00  0.00    +0.000 A 
ATOM      6  C   UNL     1      45.839   4.085  12.910  0.00  0.00    +0.000 A 
ENDROOT
BRANCH   1   7
ATOM      7  C   UNL     1      47.063   6.113  13.795  0.00  0.00    +0.000 C 
BRANCH   7   8
ATOM      8  N   UNL     1      47.140   5.293  14.996  0.00  0.00    +0.000 NA
ATOM      9  H   UNL     1      46.492   4.513  14.916  0.00  0.00    +0.000 HD
ATOM     10  H   UNL     1      46.834   5.849  15.794  0.00  0.00    +0.000 HD
ENDBRANCH   7   8
ENDBRANCH   1   7
BRANCH   4  11
ATOM     11  O   UNL     1      44.244   3.346   9.689  0.00  0.00    +0.000 OA
BRANCH  11  12
ATOM     12  C   UNL     1      44.648   3.715   8.346  0.00  0.00    +0.000 C 
BRANCH  12  13
ATOM     13  C   UNL     1      45.793   2.860   7.876  0.00  0.00    +0.000 A 
ATOM     14  C   UNL     1      45.857   1.498   8.170  0.00  0.00    +0.000 A 
ATOM     15  C   UNL     1      46.923   0.762   7.683  0.00  0.00    +0.000 A 
ATOM     16  N   UNL     1      47.907   1.279   6.919  0.00  0.00    +0.000 NA
ATOM     17  C   UNL     1      47.820   2.593   6.629  0.00  0.00    +0.000 A 
ATOM     18  C   UNL     1      46.796   3.413   7.070  0.00  0.00    +0.000 A 
ENDBRANCH  12  13
ENDBRANCH  11  12
ENDBRANCH   4  11
TORSDOF 5
ENDMDL
MODEL 4
REMARK VINA RESULT:    -6.642      1.275      5.661
REMARK INTER + INTRA:          -9.022
REMARK INTER:                  -8.510
REMARK INTRA:                  -0.512
REMARK UNBOUND:                -0.633
REMARK  Name = 
REMARK  5 active torsions:
REMARK  status: ('A' for Active; 'I' for Inactive)
REMARK    1  A    between atoms: N_1  and  C_2
REMARK    2  A    between atoms: C_2  and  C_3
REMARK    3  A    between atoms: C_6  and  O_7
REMARK    4  A    between atoms: O_7  and  C_8
REMARK    5  A    between atoms: C_8  and  C_9
REMARK                            x       y       z     vdW  Elec       q    Type
REMARK                         _______ _______ _______ _____ _____    ______ ____
ROOT
ATOM      1  C   UNL     1      46.393   5.399  12.738  0.00  0.00    +0.000 A 
ATOM      2  C   UNL     1      45.926   4.098  12.899  0.00  0.00    +0.000 A 
ATOM      3  C   UNL     1      45.218   3.437  11.881  0.00  0.00    +0.000 A 
ATOM      4  C   UNL     1      44.963   4.120  10.676  0.00  0.00    +0.000 A 
ATOM      5  C   UNL     1      45.438   5.415  10.521  0.00  0.00    +0.000 A 
ATOM      6  C   UNL     1      46.132   6.063  11.520  0.00  0.00    +0.000 A 
ENDROOT
BRANCH   1   7
ATOM      7  C   UNL     1      47.156   6.096  13.832  0.00  0.00    +0.000 C 
BRANCH   7   8
ATOM      8  N   UNL     1      48.578   6.144  13.525  0.00  0.00    +0.000 NA
ATOM      9  H   UNL     1      49.094   5.619  14.228  0.00  0.00    +0.000 HD
ATOM     10  H   UNL     1      48.896   7.110  13.589  0.00  0.00    +0.000 HD
ENDBRANCH   7   8
ENDBRANCH   1   7
BRANCH   4  11
ATOM     11  O   UNL     1      44.266   3.511   9.656  0.00  0.00    +0.000 OA
BRANCH  11  12
ATOM     12  C   UNL     1      44.718   3.910   8.337  0.00  0.00    +0.000 C 
BRANCH  12  13
ATOM     13  C   UNL     1      45.797   2.987   7.837  0.00  0.00    +0.000 A 
ATOM     14  C   UNL     1      46.824   3.444   7.011  0.00  0.00    +0.000 A 
ATOM     15  C   UNL     1      47.801   2.551   6.609  0.00  0.00    +0.000 A 
ATOM     16  N   UNL     1      47.836   1.255   6.984  0.00  0.00    +0.000 NA
ATOM     17  C   UNL     1      46.845   0.835   7.799  0.00  0.00    +0.000 A 
ATOM     18  C   UNL     1      45.824   1.650   8.251  0.00  0.00    +0.000 A 
ENDBRANCH  12  13
ENDBRANCH  11  12
ENDBRANCH   4  11
TORSDOF 5
ENDMDL
MODEL 5
REMARK VINA RESULT:    -5.600      1.442      5.955
REMARK INTER + INTRA:          -7.706
REMARK INTER:                  -7.293
REMARK INTRA:                  -0.413
REMARK UNBOUND:                -0.633
REMARK  Name = 
REMARK  5 active torsions:
REMARK  status: ('A' for Active; 'I' for Inactive)
REMARK    1  A    between atoms: N_1  and  C_2
REMARK    2  A    between atoms: C_2  and  C_3
REMARK    3  A    between atoms: C_6  and  O_7
REMARK    4  A    between atoms: O_7  and  C_8
REMARK    5  A    between atoms: C_8  and  C_9
REMARK                            x       y       z     vdW  Elec       q    Type
REMARK                         _______ _______ _______ _____ _____    ______ ____
ROOT
ATOM      1  C   UNL     1      46.854   4.711  14.278  0.00  0.00    +0.000 A 
ATOM      2  C   UNL     1      46.140   3.691  13.659  0.00  0.00    +0.000 A 
ATOM      3  C   UNL     1      45.512   3.879  12.415  0.00  0.00    +0.000 A 
ATOM      4  C   UNL     1      45.599   5.140  11.793  0.00  0.00    +0.000 A 
ATOM      5  C   UNL     1      46.319   6.150  12.415  0.00  0.00    +0.000 A 
ATOM      6  C   UNL     1      46.934   5.965  13.635  0.00  0.00    +0.000 A 
ENDROOT
BRANCH   1   7
ATOM      7  C   UNL     1      47.528   4.498  15.606  0.00  0.00    +0.000 C 
BRANCH   7   8
ATOM      8  N   UNL     1      46.672   3.740  16.508  0.00  0.00    +0.000 NA
ATOM      9  H   UNL     1      47.128   2.863  16.750  0.00  0.00    +0.000 HD
ATOM     10  H   UNL     1      45.811   3.498  16.019  0.00  0.00    +0.000 HD
ENDBRANCH   7   8
ENDBRANCH   1   7
BRANCH   4  11
ATOM     11  O   UNL     1      44.992   5.368  10.578  0.00  0.00    +0.000 OA
BRANCH  11  12
ATOM     12  C   UNL     1      44.301   4.205  10.056  0.00  0.00    +0.000 C 
BRANCH  12  13
ATOM     13  C   UNL     1      45.145   3.493   9.034  0.00  0.00    +0.000 A 
ATOM     14  C   UNL     1      45.839   4.191   8.046  0.00  0.00    +0.000 A 
ATOM     15  C   UNL     1      46.620   3.479   7.153  0.00  0.00    +0.000 A 
ATOM     16  N   UNL     1      46.770   2.138   7.189  0.00  0.00    +0.000 NA
ATOM     17  C   UNL     1      46.107   1.482   8.163  0.00  0.00    +0.000 A 
ATOM     18  C   UNL     1      45.301   2.103   9.099  0.00  0.00    +0.000 A 
ENDBRANCH  12  13
ENDBRANCH  11  12
ENDBRANCH   4  11
TORSDOF 5
ENDMDL
MODEL 6
REMARK VINA RESULT:    -5.233      1.256      2.333
REMARK INTER + INTRA:          -7.243
REMARK INTER:                  -7.018
REMARK INTRA:                  -0.225
REMARK UNBOUND:                -0.633
REMARK  Name = 
REMARK  5 active torsions:
REMARK  status: ('A' for Active; 'I' for Inactive)
REMARK    1  A    between atoms: N_1  and  C_2
REMARK    2  A    between atoms: C_2  and  C_3
REMARK    3  A    between atoms: C_6  and  O_7
REMARK    4  A    between atoms: O_7  and  C_8
REMARK    5  A    between atoms: C_8  and  C_9
REMARK                            x       y       z     vdW  Elec       q    Type
REMARK                         _______ _______ _______ _____ _____    ______ ____
ROOT
ATOM      1  C   UNL     1      45.827   3.347   7.891  0.00  0.00    +0.000 A 
ATOM      2  C   UNL     1      45.933   4.664   8.326  0.00  0.00    +0.000 A 
ATOM      3  C   UNL     1      45.414   5.075   9.566  0.00  0.00    +0.000 A 
ATOM      4  C   UNL     1      44.757   4.129  10.377  0.00  0.00    +0.000 A 
ATOM      5  C   UNL     1      44.662   2.815   9.937  0.00  0.00    +0.000 A 
ATOM      6  C   UNL     1      45.170   2.413   8.721  0.00  0.00    +0.000 A 
ENDROOT
BRANCH   1   7
ATOM      7  C   UNL     1      46.392   2.915   6.565  0.00  0.00    +0.000 C 
BRANCH   7   8
ATOM      8  N   UNL     1      47.833   3.121   6.520  0.00  0.00    +0.000 NA
ATOM      9  H   UNL     1      48.110   3.734   7.284  0.00  0.00    +0.000 HD
ATOM     10  H   UNL     1      48.069   3.606   5.655  0.00  0.00    +0.000 HD
ENDBRANCH   7   8
ENDBRANCH   1   7
BRANCH   4  11
ATOM     11  O   UNL     1      44.228   4.491  11.595  0.00  0.00    +0.000 OA
BRANCH  11  12
ATOM     12  C   UNL     1      44.274   5.921  11.836  0.00  0.00    +0.000 C 
BRANCH  12  13
ATOM     13  C   UNL     1      45.520   6.299  12.589  0.00  0.00    +0.000 A 
ATOM     14  C   UNL     1      45.966   7.619  12.649  0.00  0.00    +0.000 A 
ATOM     15  C   UNL     1      47.104   7.904  13.383  0.00  0.00    +0.000 A 
ATOM     16  N   UNL     1      47.808   6.979  14.068  0.00  0.00    +0.000 NA
ATOM     17  C   UNL     1      47.352   5.711  14.015  0.00  0.00    +0.000 A 
ATOM     18  C   UNL     1      46.227   5.327  13.307  0.00  0.00    +0.000 A 
ENDBRANCH  12  13
ENDBRANCH  11  12
ENDBRANCH   4  11
TORSDOF 5
ENDMDL
MODEL 7
REMARK VINA RESULT:    -5.196      4.077      7.926
REMARK INTER + INTRA:          -7.197
REMARK INTER:                  -6.837
REMARK INTRA:                  -0.360
REMARK UNBOUND:                -0.633
REMARK  Name = 
REMARK  5 active torsions:
REMARK  status: ('A' for Active; 'I' for Inactive)
REMARK    1  A    between atoms: N_1  and  C_2
REMARK    2  A    between atoms: C_2  and  C_3
REMARK    3  A    between atoms: C_6  and  O_7
REMARK    4  A    between atoms: O_7  and  C_8
REMARK    5  A    between atoms: C_8  and  C_9
REMARK                            x       y       z     vdW  Elec       q    Type
REMARK                         _______ _______ _______ _____ _____    ______ ____
ROOT
ATOM      1  C   UNL     1      48.509   4.531  18.431  0.00  0.00    +0.000 A 
ATOM      2  C   UNL     1      48.172   3.231  18.071  0.00  0.00    +0.000 A 
ATOM      3  C   UNL     1      47.736   2.914  16.772  0.00  0.00    +0.000 A 
ATOM      4  C   UNL     1      47.626   3.947  15.821  0.00  0.00    +0.000 A 
ATOM      5  C   UNL     1      47.971   5.241  16.188  0.00  0.00    +0.000 A 
ATOM      6  C   UNL     1      48.397   5.551  17.461  0.00  0.00    +0.000 A 
ENDROOT
BRANCH   1   7
ATOM      7  C   UNL     1      48.981   4.859  19.822  0.00  0.00    +0.000 C 
BRANCH   7   8
ATOM      8  N   UNL     1      48.440   3.916  20.791  0.00  0.00    +0.000 NA
ATOM      9  H   UNL     1      48.129   4.421  21.618  0.00  0.00    +0.000 HD
ATOM     10  H   UNL     1      49.185   3.289  21.092  0.00  0.00    +0.000 HD
ENDBRANCH   7   8
ENDBRANCH   1   7
BRANCH   4  11
ATOM     11  O   UNL     1      47.196   3.681  14.540  0.00  0.00    +0.000 OA
BRANCH  11  12
ATOM     12  C   UNL     1      46.739   4.862  13.834  0.00  0.00    +0.000 C 
BRANCH  12  13
ATOM     13  C   UNL     1      45.470   4.577  13.077  0.00  0.00    +0.000 A 
ATOM     14  C   UNL     1      45.272   3.366  12.413  0.00  0.00    +0.000 A 
ATOM     15  C   UNL     1      44.071   3.156  11.760  0.00  0.00    +0.000 A 
ATOM     16  N   UNL     1      43.059   4.049  11.738  0.00  0.00    +0.000 NA
ATOM     17  C   UNL     1      43.261   5.206  12.401  0.00  0.00    +0.000 A 
ATOM     18  C   UNL     1      44.427   5.510  13.081  0.00  0.00    +0.000 A 
ENDBRANCH  12  13
ENDBRANCH  11  12
ENDBRANCH   4  11
TORSDOF 5
ENDMDL
MODEL 8
REMARK VINA RESULT:    -4.657      2.780      4.103
REMARK INTER + INTRA:          -6.515
REMARK INTER:                  -6.105
REMARK INTRA:                  -0.410
REMARK UNBOUND:                -0.633
REMARK  Name = 
REMARK  5 active torsions:
REMARK  status: ('A' for Active; 'I' for Inactive)
REMARK    1  A    between atoms: N_1  and  C_2
REMARK    2  A    between atoms: C_2  and  C_3
REMARK    3  A    between atoms: C_6  and  O_7
REMARK    4  A    between atoms: O_7  and  C_8
REMARK    5  A    between atoms: C_8  and  C_9
REMARK                            x       y       z     vdW  Elec       q    Type
REMARK                         _______ _______ _______ _____ _____    ______ ____
ROOT
ATOM      1  C   UNL     1      45.075   4.214   9.791  0.00  0.00    +0.000 A 
ATOM      2  C   UNL     1      45.586   5.446  10.185  0.00  0.00    +0.000 A 
ATOM      3  C   UNL     1      45.809   5.753  11.539  0.00  0.00    +0.000 A 
ATOM      4  C   UNL     1      45.490   4.790  12.517  0.00  0.00    +0.000 A 
ATOM      5  C   UNL     1      44.988   3.561  12.113  0.00  0.00    +0.000 A 
ATOM      6  C   UNL     1      44.768   3.261  10.786  0.00  0.00    +0.000 A 
ENDROOT
BRANCH   1   7
ATOM      7  C   UNL     1      44.846   3.892   8.339  0.00  0.00    +0.000 C 
BRANCH   7   8
ATOM      8  N   UNL     1      45.977   4.318   7.527  0.00  0.00    +0.000 NA
ATOM      9  H   UNL     1      46.009   3.763   6.674  0.00  0.00    +0.000 HD
ATOM     10  H   UNL     1      46.839   4.123   8.035  0.00  0.00    +0.000 HD
ENDBRANCH   7   8
ENDBRANCH   1   7
BRANCH   4  11
ATOM     11  O   UNL     1      45.687   5.054  13.854  0.00  0.00    +0.000 OA
BRANCH  11  12
ATOM     12  C   UNL     1      46.809   4.330  14.420  0.00  0.00    +0.000 C 
BRANCH  12  13
ATOM     13  C   UNL     1      47.709   5.254  15.193  0.00  0.00    +0.000 A 
ATOM     14  C   UNL     1      48.164   4.931  16.472  0.00  0.00    +0.000 A 
ATOM     15  C   UNL     1      49.013   5.813  17.117  0.00  0.00    +0.000 A 
ATOM     16  N   UNL     1      49.450   6.969  16.576  0.00  0.00    +0.000 NA
ATOM     17  C   UNL     1      49.016   7.256  15.332  0.00  0.00    +0.000 A 
ATOM     18  C   UNL     1      48.164   6.442  14.607  0.00  0.00    +0.000 A 
ENDBRANCH  12  13
ENDBRANCH  11  12
ENDBRANCH   4  11
TORSDOF 5
ENDMDL
MODEL 9
REMARK VINA RESULT:    -4.602      4.125      5.991
REMARK INTER + INTRA:          -6.446
REMARK INTER:                  -6.079
REMARK INTRA:                  -0.367
REMARK UNBOUND:                -0.633
REMARK  Name = 
REMARK  5 active torsions:
REMARK  status: ('A' for Active; 'I' for Inactive)
REMARK    1  A    between atoms: N_1  and  C_2
REMARK    2  A    between atoms: C_2  and  C_3
REMARK    3  A    between atoms: C_6  and  O_7
REMARK    4  A    between atoms: O_7  and  C_8
REMARK    5  A    between atoms: C_8  and  C_9
REMARK                            x       y       z     vdW  Elec       q    Type
REMARK                         _______ _______ _______ _____ _____    ______ ____
ROOT
ATOM      1  C   UNL     1      44.472   5.042  11.797  0.00  0.00    +0.000 A 
ATOM      2  C   UNL     1      45.094   6.145  12.372  0.00  0.00    +0.000 A 
ATOM      3  C   UNL     1      46.170   6.001  13.266  0.00  0.00    +0.000 A 
ATOM      4  C   UNL     1      46.613   4.706  13.595  0.00  0.00    +0.000 A 
ATOM      5  C   UNL     1      45.991   3.611  13.010  0.00  0.00    +0.000 A 
ATOM      6  C   UNL     1      44.936   3.752  12.135  0.00  0.00    +0.000 A 
ENDROOT
BRANCH   1   7
ATOM      7  C   UNL     1      43.326   5.206  10.836  0.00  0.00    +0.000 C 
BRANCH   7   8
ATOM      8  N   UNL     1      42.613   6.451  11.083  0.00  0.00    +0.000 NA
ATOM      9  H   UNL     1      41.612   6.292  10.995  0.00  0.00    +0.000 HD
ATOM     10  H   UNL     1      42.867   7.125  10.362  0.00  0.00    +0.000 HD
ENDBRANCH   7   8
ENDBRANCH   1   7
BRANCH   4  11
ATOM     11  O   UNL     1      47.659   4.521  14.472  0.00  0.00    +0.000 OA
BRANCH  11  12
ATOM     12  C   UNL     1      47.248   3.953  15.741  0.00  0.00    +0.000 C 
BRANCH  12  13
ATOM     13  C   UNL     1      48.069   4.512  16.871  0.00  0.00    +0.000 A 
ATOM     14  C   UNL     1      48.274   3.795  18.050  0.00  0.00    +0.000 A 
ATOM     15  C   UNL     1      49.063   4.354  19.039  0.00  0.00    +0.000 A 
ATOM     16  N   UNL     1      49.670   5.554  18.929  0.00  0.00    +0.000 NA
ATOM     17  C   UNL     1      49.477   6.225  17.775  0.00  0.00    +0.000 A 
ATOM     18  C   UNL     1      48.704   5.752  16.729  0.00  0.00    +0.000 A 
ENDBRANCH  12  13
ENDBRANCH  11  12
ENDBRANCH   4  11
TORSDOF 5
ENDMDL
