MODEL 1
REMARK VINA RESULT:    -7.216      0.000      0.000
REMARK INTER + INTRA:         -10.929
REMARK INTER:                 -10.169
REMARK INTRA:                  -0.760
REMARK UNBOUND:                -0.760
REMARK  Name = 
REMARK  9 active torsions:
REMARK  status: ('A' for Active; 'I' for Inactive)
REMARK    1  A    between atoms: C_1  and  N_2
REMARK    2  A    between atoms: N_2  and  C_3
REMARK    3  A    between atoms: N_2  and  C_4
REMARK    4  A    between atoms: C_4  and  C_5
REMARK    5  A    between atoms: C_5  and  N_6
REMARK    6  A    between atoms: C_7  and  C_9
REMARK    7  A    between atoms: N_13  and  C_14
REMARK    8  A    between atoms: C_14  and  C_15
REMARK    9  A    between atoms: C_15  and  C_16
REMARK                            x       y       z     vdW  Elec       q    Type
REMARK                         _______ _______ _______ _____ _____    ______ ____
ROOT
ATOM      1  C   UNL     1      47.019   5.688  13.389  0.00  0.00    +0.000 A 
ATOM      2  C   UNL     1      46.073   4.893  14.028  0.00  0.00    +0.000 A 
ATOM      3  C   UNL     1      44.969   4.432  13.299  0.00  0.00    +0.000 A 
ATOM      4  C   UNL     1      44.855   4.724  11.938  0.00  0.00    +0.000 A 
ATOM      5  N   UNL     1      43.704   4.294  11.249  0.00  0.00    +0.000 N 
ATOM      6  N   UNL     1      45.772   5.489  11.313  0.00  0.00    +0.000 NA
ATOM      7  C   UNL     1      46.811   5.968  12.045  0.00  0.00    +0.000 A 
ATOM      8  H   UNL     1      43.371   3.422  11.646  0.00  0.00    +0.000 HD
ENDROOT
BRANCH   1  10
ATOM      9  N   UNL     1      48.131   6.435  15.445  0.00  0.00    +0.000 N 
ATOM     10  C   UNL     1      48.173   6.312  14.070  0.00  0.00    +0.000 C 
ATOM     11  O   UNL     1      49.133   6.690  13.399  0.00  0.00    +0.000 OA
ATOM     12  H   UNL     1      47.476   5.888  15.991  0.00  0.00    +0.000 HD
BRANCH   9  13
ATOM     13  C   UNL     1      49.282   6.963  16.157  0.00  0.00    +0.000 C 
BRANCH  13  14
ATOM     14  C   UNL     1      50.107   5.869  16.855  0.00  0.00    +0.000 C 
BRANCH  14  16
ATOM     15  C   UNL     1      50.140   3.564  17.643  0.00  0.00    +0.000 C 
ATOM     16  N   UNL     1      49.314   4.758  17.433  0.00  0.00    +0.000 NA
ATOM     17  C   UNL     1      48.758   5.188  18.724  0.00  0.00    +0.000 C 
ENDBRANCH  14  16
ENDBRANCH  13  14
ENDBRANCH   9  13
ENDBRANCH   1  10
BRANCH   5  18
ATOM     18  C   UNL     1      43.910   4.191   9.799  0.00  0.00    +0.000 C 
BRANCH  18  19
ATOM     19  C   UNL     1      44.237   2.738   9.420  0.00  0.00    +0.000 C 
BRANCH  19  20
ATOM     20  C   UNL     1      45.444   2.646   8.540  0.00  0.00    +0.000 A 
ATOM     21  C   UNL     1      45.997   3.740   7.911  0.00  0.00    +0.000 A 
ATOM     22  N   UNL     1      47.049   3.671   7.072  0.00  0.00    +0.000 NA
ATOM     23  C   UNL     1      47.550   2.455   6.844  0.00  0.00    +0.000 A 
ATOM     24  N   UNL     1      48.615   2.354   5.975  0.00  0.00    +0.000 N 
ATOM     25  N   UNL     1      47.118   1.331   7.422  0.00  0.00    +0.000 NA
ATOM     26  C   UNL     1      46.064   1.449   8.254  0.00  0.00    +0.000 A 
ATOM     27  H   UNL     1      49.108   3.234   5.934  0.00  0.00    +0.000 HD
ATOM     28  H   UNL     1      49.150   1.525   6.188  0.00  0.00    +0.000 HD
ENDBRANCH  19  20
ENDBRANCH  18  19
ENDBRANCH   5  18
TORSDOF 7
ENDMDL
MODEL 2
REMARK VINA RESULT:    -7.063      1.432      2.073
REMARK INTER + INTRA:         -10.713
REMARK INTER:                  -9.873
REMARK INTRA:                  -0.839
REMARK UNBOUND:                -0.760
REMARK  Name = 
REMARK  9 active torsions:
REMARK  status: ('A' for Active; 'I' for Inactive)
REMARK    1  A    between atoms: C_1  and  N_2
REMARK    2  A    between atoms: N_2  and  C_3
REMARK    3  A    between atoms: N_2  and  C_4
REMARK    4  A    between atoms: C_4  and  C_5
REMARK    5  A    between atoms: C_5  and  N_6
REMARK    6  A    between atoms: C_7  and  C_9
REMARK    7  A    between atoms: N_13  and  C_14
REMARK    8  A    between atoms: C_14  and  C_15
REMARK    9  A    between atoms: C_15  and  C_16
REMARK                            x       y       z     vdW  Elec       q    Type
REMARK                         _______ _______ _______ _____ _____    ______ ____
ROOT
ATOM      1  C   UNL     1      47.086   5.803  13.225  0.00  0.00    +0.000 A 
ATOM      2  C   UNL     1      46.787   4.616  13.885  0.00  0.00    +0.000 A 
ATOM      3  C   UNL     1      45.857   3.738  13.314  0.00  0.00    +0.000 A 
ATOM      4  C   UNL     1      45.284   4.030  12.074  0.00  0.00    +0.000 A 
ATOM      5  N   UNL     1      44.310   3.154  11.556  0.00  0.00    +0.000 N 
ATOM      6  N   UNL     1      45.575   5.176  11.428  0.00  0.00    +0.000 NA
ATOM      7  C   UNL     1      46.443   6.040  12.018  0.00  0.00    +0.000 A 
ATOM      8  H   UNL     1      44.510   2.205  11.851  0.00  0.00    +0.000 HD
ENDROOT
BRANCH   1  10
ATOM      9  N   UNL     1      47.400   8.007  14.258  0.00  0.00    +0.000 N 
ATOM     10  C   UNL     1      47.976   6.852  13.768  0.00  0.00    +0.000 C 
ATOM     11  O   UNL     1      49.192   6.661  13.778  0.00  0.00    +0.000 OA
ATOM     12  H   UNL     1      46.413   8.032  14.488  0.00  0.00    +0.000 HD
BRANCH   9  13
ATOM     13  C   UNL     1      48.233   9.021  14.879  0.00  0.00    +0.000 C 
BRANCH  13  14
ATOM     14  C   UNL     1      48.102   9.049  16.411  0.00  0.00    +0.000 C 
BRANCH  14  16
ATOM     15  C   UNL     1      49.050   7.018  17.366  0.00  0.00    +0.000 C 
ATOM     16  N   UNL     1      49.243   8.456  17.149  0.00  0.00    +0.000 NA
ATOM     17  C   UNL     1      50.473   8.661  16.371  0.00  0.00    +0.000 C 
ENDBRANCH  14  16
ENDBRANCH  13  14
ENDBRANCH   9  13
ENDBRANCH   1  10
BRANCH   5  18
ATOM     18  C   UNL     1      44.164   3.256  10.100  0.00  0.00    +0.000 C 
BRANCH  18  19
ATOM     19  C   UNL     1      44.522   1.913   9.444  0.00  0.00    +0.000 C 
BRANCH  19  20
ATOM     20  C   UNL     1      45.609   2.057   8.426  0.00  0.00    +0.000 A 
ATOM     21  C   UNL     1      46.402   1.004   8.023  0.00  0.00    +0.000 A 
ATOM     22  N   UNL     1      47.421   1.124   7.150  0.00  0.00    +0.000 NA
ATOM     23  C   UNL     1      47.662   2.350   6.678  0.00  0.00    +0.000 A 
ATOM     24  N   UNL     1      48.710   2.503   5.797  0.00  0.00    +0.000 N 
ATOM     25  N   UNL     1      46.940   3.435   6.971  0.00  0.00    +0.000 NA
ATOM     26  C   UNL     1      45.930   3.267   7.850  0.00  0.00    +0.000 A 
ATOM     27  H   UNL     1      48.902   1.624   5.337  0.00  0.00    +0.000 HD
ATOM     28  H   UNL     1      48.550   3.312   5.216  0.00  0.00    +0.000 HD
ENDBRANCH  19  20
ENDBRANCH  18  19
ENDBRANCH   5  18
TORSDOF 7
ENDMDL
MODEL 3
REMARK VINA RESULT:    -6.749      2.626      3.516
REMARK INTER + INTRA:         -10.270
REMARK INTER:                  -9.565
REMARK INTRA:                  -0.706
REMARK UNBOUND:                -0.760
REMARK  Name = 
REMARK  9 active torsions:
REMARK  status: ('A' for Active; 'I' for Inactive)
REMARK    1  A    between atoms: C_1  and  N_2
REMARK    2  A    between atoms: N_2  and  C_3
REMARK    3  A    between atoms: N_2  and  C_4
REMARK    4  A    between atoms: C_4  and  C_5
REMARK    5  A    between atoms: C_5  and  N_6
REMARK    6  A    between atoms: C_7  and  C_9
REMARK    7  A    between atoms: N_13  and  C_14
REMARK    8  A    between atoms: C_14  and  C_15
REMARK    9  A    between atoms: C_15  and  C_16
REMARK                            x       y       z     vdW  Elec       q    Type
REMARK                         _______ _______ _______ _____ _____    ______ ____
ROOT
ATOM      1  C   UNL     1      47.284   6.274  12.661  0.00  0.00    +0.000 A 
ATOM      2  C   UNL     1      46.897   5.220  13.483  0.00  0.00    +0.000 A 
ATOM      3  C   UNL     1      45.879   4.360  13.049  0.00  0.00    +0.000 A 
ATOM      4  C   UNL     1      45.306   4.531  11.786  0.00  0.00    +0.000 A 
ATOM      5  N   UNL     1      44.247   3.684  11.405  0.00  0.00    +0.000 N 
ATOM      6  N   UNL     1      45.683   5.546  10.985  0.00  0.00    +0.000 NA
ATOM      7  C   UNL     1      46.637   6.400  11.440  0.00  0.00    +0.000 A 
ATOM      8  H   UNL     1      44.369   2.769  11.826  0.00  0.00    +0.000 HD
ENDROOT
BRANCH   1  10
ATOM      9  N   UNL     1      49.557   7.191  12.545  0.00  0.00    +0.000 N 
ATOM     10  C   UNL     1      48.275   7.302  13.045  0.00  0.00    +0.000 C 
ATOM     11  O   UNL     1      47.927   8.224  13.783  0.00  0.00    +0.000 OA
ATOM     12  H   UNL     1      49.748   6.600  11.745  0.00  0.00    +0.000 HD
BRANCH   9  13
ATOM     13  C   UNL     1      50.533   8.228  12.829  0.00  0.00    +0.000 C 
BRANCH  13  14
ATOM     14  C   UNL     1      50.980   8.991  11.570  0.00  0.00    +0.000 C 
BRANCH  14  16
ATOM     15  C   UNL     1      53.211   8.330  12.294  0.00  0.00    +0.000 C 
ATOM     16  N   UNL     1      52.384   8.752  11.158  0.00  0.00    +0.000 NA
ATOM     17  C   UNL     1      52.408   7.699  10.133  0.00  0.00    +0.000 C 
ENDBRANCH  14  16
ENDBRANCH  13  14
ENDBRANCH   9  13
ENDBRANCH   1  10
BRANCH   5  18
ATOM     18  C   UNL     1      44.078   3.598   9.950  0.00  0.00    +0.000 C 
BRANCH  18  19
ATOM     19  C   UNL     1      44.583   2.238   9.445  0.00  0.00    +0.000 C 
BRANCH  19  20
ATOM     20  C   UNL     1      45.581   2.385   8.339  0.00  0.00    +0.000 A 
ATOM     21  C   UNL     1      45.751   3.557   7.635  0.00  0.00    +0.000 A 
ATOM     22  N   UNL     1      46.604   3.695   6.601  0.00  0.00    +0.000 NA
ATOM     23  C   UNL     1      47.298   2.609   6.252  0.00  0.00    +0.000 A 
ATOM     24  N   UNL     1      48.164   2.717   5.186  0.00  0.00    +0.000 N 
ATOM     25  N   UNL     1      47.240   1.432   6.882  0.00  0.00    +0.000 NA
ATOM     26  C   UNL     1      46.373   1.342   7.911  0.00  0.00    +0.000 A 
ATOM     27  H   UNL     1      48.439   3.682   5.065  0.00  0.00    +0.000 HD
ATOM     28  H   UNL     1      48.895   2.027   5.271  0.00  0.00    +0.000 HD
ENDBRANCH  19  20
ENDBRANCH  18  19
ENDBRANCH   5  18
TORSDOF 7
ENDMDL
MODEL 4
REMARK VINA RESULT:    -6.726      1.530      2.064
REMARK INTER + INTRA:         -10.238
REMARK INTER:                  -9.676
REMARK INTRA:                  -0.563
REMARK UNBOUND:                -0.760
REMARK  Name = 
REMARK  9 active torsions:
REMARK  status: ('A' for Active; 'I' for Inactive)
REMARK    1  A    between atoms: C_1  and  N_2
REMARK    2  A    between atoms: N_2  and  C_3
REMARK    3  A    between atoms: N_2  and  C_4
REMARK    4  A    between atoms: C_4  and  C_5
REMARK    5  A    between atoms: C_5  and  N_6
REMARK    6  A    between atoms: C_7  and  C_9
REMARK    7  A    between atoms: N_13  and  C_14
REMARK    8  A    between atoms: C_14  and  C_15
REMARK    9  A    between atoms: C_15  and  C_16
REMARK                            x       y       z     vdW  Elec       q    Type
REMARK                         _______ _______ _______ _____ _____    ______ ____
ROOT
ATOM      1  C   UNL     1      47.162   5.060  14.607  0.00  0.00    +0.000 A 
ATOM      2  C   UNL     1      46.899   6.138  13.767  0.00  0.00    +0.000 A 
ATOM      3  C   UNL     1      46.279   5.901  12.533  0.00  0.00    +0.000 A 
ATOM      4  C   UNL     1      45.883   4.608  12.183  0.00  0.00    +0.000 A 
ATOM      5  N   UNL     1      45.314   4.397  10.911  0.00  0.00    +0.000 N 
ATOM      6  N   UNL     1      46.130   3.562  12.996  0.00  0.00    +0.000 NA
ATOM      7  C   UNL     1      46.775   3.802  14.168  0.00  0.00    +0.000 A 
ATOM      8  H   UNL     1      44.794   5.219  10.627  0.00  0.00    +0.000 HD
ENDROOT
BRANCH   1  10
ATOM      9  N   UNL     1      47.241   4.794  17.045  0.00  0.00    +0.000 N 
ATOM     10  C   UNL     1      47.894   5.167  15.887  0.00  0.00    +0.000 C 
ATOM     11  O   UNL     1      49.056   5.572  15.881  0.00  0.00    +0.000 OA
ATOM     12  H   UNL     1      46.406   4.222  17.003  0.00  0.00    +0.000 HD
BRANCH   9  13
ATOM     13  C   UNL     1      47.955   4.803  18.310  0.00  0.00    +0.000 C 
BRANCH  13  14
ATOM     14  C   UNL     1      47.525   5.957  19.232  0.00  0.00    +0.000 C 
BRANCH  14  16
ATOM     15  C   UNL     1      49.891   6.533  19.199  0.00  0.00    +0.000 C 
ATOM     16  N   UNL     1      48.527   7.036  19.395  0.00  0.00    +0.000 NA
ATOM     17  C   UNL     1      48.260   8.090  18.405  0.00  0.00    +0.000 C 
ENDBRANCH  14  16
ENDBRANCH  13  14
ENDBRANCH   9  13
ENDBRANCH   1  10
BRANCH   5  18
ATOM     18  C   UNL     1      44.495   3.181  10.845  0.00  0.00    +0.000 C 
BRANCH  18  19
ATOM     19  C   UNL     1      44.144   2.867   9.383  0.00  0.00    +0.000 C 
BRANCH  19  20
ATOM     20  C   UNL     1      45.366   2.742   8.526  0.00  0.00    +0.000 A 
ATOM     21  C   UNL     1      45.883   3.795   7.802  0.00  0.00    +0.000 A 
ATOM     22  N   UNL     1      46.947   3.691   6.983  0.00  0.00    +0.000 NA
ATOM     23  C   UNL     1      47.500   2.480   6.875  0.00  0.00    +0.000 A 
ATOM     24  N   UNL     1      48.579   2.341   6.029  0.00  0.00    +0.000 N 
ATOM     25  N   UNL     1      47.106   1.398   7.553  0.00  0.00    +0.000 NA
ATOM     26  C   UNL     1      46.037   1.551   8.361  0.00  0.00    +0.000 A 
ATOM     27  H   UNL     1      49.037   3.234   5.910  0.00  0.00    +0.000 HD
ATOM     28  H   UNL     1      49.144   1.559   6.325  0.00  0.00    +0.000 HD
ENDBRANCH  19  20
ENDBRANCH  18  19
ENDBRANCH   5  18
TORSDOF 7
ENDMDL
MODEL 5
REMARK VINA RESULT:    -6.627      1.203      1.979
REMARK INTER + INTRA:         -10.098
REMARK INTER:                  -9.573
REMARK INTRA:                  -0.525
REMARK UNBOUND:                -0.760
REMARK  Name = 
REMARK  9 active torsions:
REMARK  status: ('A' for Active; 'I' for Inactive)
REMARK    1  A    between atoms: C_1  and  N_2
REMARK    2  A    between atoms: N_2  and  C_3
REMARK    3  A    between atoms: N_2  and  C_4
REMARK    4  A    between atoms: C_4  and  C_5
REMARK    5  A    between atoms: C_5  and  N_6
REMARK    6  A    between atoms: C_7  and  C_9
REMARK    7  A    between atoms: N_13  and  C_14
REMARK    8  A    between atoms: C_14  and  C_15
REMARK    9  A    between atoms: C_15  and  C_16
REMARK                            x       y       z     vdW  Elec       q    Type
REMARK                         _______ _______ _______ _____ _____    ______ ____
ROOT
ATOM      1  C   UNL     1      47.836   6.491  13.920  0.00  0.00    +0.000 A 
ATOM      2  C   UNL     1      47.678   7.500  12.976  0.00  0.00    +0.000 A 
ATOM      3  C   UNL     1      46.880   7.259  11.850  0.00  0.00    +0.000 A 
ATOM      4  C   UNL     1      46.212   6.039  11.712  0.00  0.00    +0.000 A 
ATOM      5  N   UNL     1      45.464   5.808  10.540  0.00  0.00    +0.000 N 
ATOM      6  N   UNL     1      46.357   5.061  12.626  0.00  0.00    +0.000 NA
ATOM      7  C   UNL     1      47.172   5.293  13.688  0.00  0.00    +0.000 A 
ATOM      8  H   UNL     1      45.075   6.682  10.203  0.00  0.00    +0.000 HD
ENDROOT
BRANCH   1  10
ATOM      9  N   UNL     1      48.169   6.417  16.350  0.00  0.00    +0.000 N 
ATOM     10  C   UNL     1      48.724   6.589  15.097  0.00  0.00    +0.000 C 
ATOM     11  O   UNL     1      49.924   6.808  14.927  0.00  0.00    +0.000 OA
ATOM     12  H   UNL     1      47.261   5.979  16.455  0.00  0.00    +0.000 HD
BRANCH   9  13
ATOM     13  C   UNL     1      49.023   6.421  17.524  0.00  0.00    +0.000 C 
BRANCH  13  14
ATOM     14  C   UNL     1      48.708   5.273  18.498  0.00  0.00    +0.000 C 
BRANCH  14  16
ATOM     15  C   UNL     1      48.662   3.161  17.283  0.00  0.00    +0.000 C 
ATOM     16  N   UNL     1      49.417   4.002  18.219  0.00  0.00    +0.000 NA
ATOM     17  C   UNL     1      50.731   4.305  17.634  0.00  0.00    +0.000 C 
ENDBRANCH  14  16
ENDBRANCH  13  14
ENDBRANCH   9  13
ENDBRANCH   1  10
BRANCH   5  18
ATOM     18  C   UNL     1      44.432   4.780  10.713  0.00  0.00    +0.000 C 
BRANCH  18  19
ATOM     19  C   UNL     1      43.954   4.284   9.340  0.00  0.00    +0.000 C 
BRANCH  19  20
ATOM     20  C   UNL     1      44.990   3.453   8.651  0.00  0.00    +0.000 A 
ATOM     21  C   UNL     1      45.180   2.115   8.923  0.00  0.00    +0.000 A 
ATOM     22  N   UNL     1      46.142   1.363   8.354  0.00  0.00    +0.000 NA
ATOM     23  C   UNL     1      46.953   1.983   7.495  0.00  0.00    +0.000 A 
ATOM     24  N   UNL     1      47.958   1.241   6.913  0.00  0.00    +0.000 N 
ATOM     25  N   UNL     1      46.844   3.264   7.130  0.00  0.00    +0.000 NA
ATOM     26  C   UNL     1      45.866   3.977   7.725  0.00  0.00    +0.000 A 
ATOM     27  H   UNL     1      47.707   0.262   6.917  0.00  0.00    +0.000 HD
ATOM     28  H   UNL     1      48.219   1.655   6.030  0.00  0.00    +0.000 HD
ENDBRANCH  19  20
ENDBRANCH  18  19
ENDBRANCH   5  18
TORSDOF 7
ENDMDL
MODEL 6
REMARK VINA RESULT:    -6.452      2.042      2.590
REMARK INTER + INTRA:          -9.851
REMARK INTER:                  -9.489
REMARK INTRA:                  -0.362
REMARK UNBOUND:                -0.760
REMARK  Name = 
REMARK  9 active torsions:
REMARK  status: ('A' for Active; 'I' for Inactive)
REMARK    1  A    between atoms: C_1  and  N_2
REMARK    2  A    between atoms: N_2  and  C_3
REMARK    3  A    between atoms: N_2  and  C_4
REMARK    4  A    between atoms: C_4  and  C_5
REMARK    5  A    between atoms: C_5  and  N_6
REMARK    6  A    between atoms: C_7  and  C_9
REMARK    7  A    between atoms: N_13  and  C_14
REMARK    8  A    between atoms: C_14  and  C_15
REMARK    9  A    between atoms: C_15  and  C_16
REMARK                            x       y       z     vdW  Elec       q    Type
REMARK                         _______ _______ _______ _____ _____    ______ ____
ROOT
ATOM      1  C   UNL     1      46.722   8.052  13.068  0.00  0.00    +0.000 A 
ATOM      2  C   UNL     1      45.602   8.539  12.403  0.00  0.00    +0.000 A 
ATOM      3  C   UNL     1      44.886   7.679  11.560  0.00  0.00    +0.000 A 
ATOM      4  C   UNL     1      45.266   6.340  11.436  0.00  0.00    +0.000 A 
ATOM      5  N   UNL     1      44.559   5.518  10.536  0.00  0.00    +0.000 N 
ATOM      6  N   UNL     1      46.347   5.863  12.083  0.00  0.00    +0.000 NA
ATOM      7  C   UNL     1      47.058   6.721  12.860  0.00  0.00    +0.000 A 
ATOM      8  H   UNL     1      43.591   5.814  10.487  0.00  0.00    +0.000 HD
ENDROOT
BRANCH   1  10
ATOM      9  N   UNL     1      47.456   8.824  15.279  0.00  0.00    +0.000 N 
ATOM     10  C   UNL     1      47.612   8.881  13.908  0.00  0.00    +0.000 C 
ATOM     11  O   UNL     1      48.467   9.583  13.366  0.00  0.00    +0.000 OA
ATOM     12  H   UNL     1      46.949   8.059  15.708  0.00  0.00    +0.000 HD
BRANCH   9  13
ATOM     13  C   UNL     1      48.367   9.558  16.140  0.00  0.00    +0.000 C 
BRANCH  13  14
ATOM     14  C   UNL     1      49.173   8.641  17.076  0.00  0.00    +0.000 C 
BRANCH  14  16
ATOM     15  C   UNL     1      47.873   7.676  18.896  0.00  0.00    +0.000 C 
ATOM     16  N   UNL     1      48.810   8.736  18.510  0.00  0.00    +0.000 NA
ATOM     17  C   UNL     1      50.030   8.614  19.321  0.00  0.00    +0.000 C 
ENDBRANCH  14  16
ENDBRANCH  13  14
ENDBRANCH   9  13
ENDBRANCH   1  10
BRANCH   5  18
ATOM     18  C   UNL     1      44.680   4.090  10.849  0.00  0.00    +0.000 C 
BRANCH  18  19
ATOM     19  C   UNL     1      44.212   3.251   9.650  0.00  0.00    +0.000 C 
BRANCH  19  20
ATOM     20  C   UNL     1      45.315   3.015   8.666  0.00  0.00    +0.000 A 
ATOM     21  C   UNL     1      45.900   1.781   8.478  0.00  0.00    +0.000 A 
ATOM     22  N   UNL     1      46.930   1.558   7.639  0.00  0.00    +0.000 NA
ATOM     23  C   UNL     1      47.399   2.619   6.977  0.00  0.00    +0.000 A 
ATOM     24  N   UNL     1      48.465   2.422   6.125  0.00  0.00    +0.000 N 
ATOM     25  N   UNL     1      46.891   3.852   7.054  0.00  0.00    +0.000 NA
ATOM     26  C   UNL     1      45.862   4.026   7.907  0.00  0.00    +0.000 A 
ATOM     27  H   UNL     1      48.492   1.457   5.829  0.00  0.00    +0.000 HD
ATOM     28  H   UNL     1      48.463   3.134   5.410  0.00  0.00    +0.000 HD
ENDBRANCH  19  20
ENDBRANCH  18  19
ENDBRANCH   5  18
TORSDOF 7
ENDMDL
MODEL 7
REMARK VINA RESULT:    -6.310      2.140      8.700
REMARK INTER + INTRA:          -9.652
REMARK INTER:                  -9.042
REMARK INTRA:                  -0.609
REMARK UNBOUND:                -0.760
REMARK  Name = 
REMARK  9 active torsions:
REMARK  status: ('A' for Active; 'I' for Inactive)
REMARK    1  A    between atoms: C_1  and  N_2
REMARK    2  A    between atoms: N_2  and  C_3
REMARK    3  A    between atoms: N_2  and  C_4
REMARK    4  A    between atoms: C_4  and  C_5
REMARK    5  A    between atoms: C_5  and  N_6
REMARK    6  A    between atoms: C_7  and  C_9
REMARK    7  A    between atoms: N_13  and  C_14
REMARK    8  A    between atoms: C_14  and  C_15
REMARK    9  A    between atoms: C_15  and  C_16
REMARK                            x       y       z     vdW  Elec       q    Type
REMARK                         _______ _______ _______ _____ _____    ______ ____
ROOT
ATOM      1  C   UNL     1      45.298   6.113  11.430  0.00  0.00    +0.000 A 
ATOM      2  C   UNL     1      44.843   7.424  11.511  0.00  0.00    +0.000 A 
ATOM      3  C   UNL     1      45.429   8.290  12.444  0.00  0.00    +0.000 A 
ATOM      4  C   UNL     1      46.492   7.852  13.237  0.00  0.00    +0.000 A 
ATOM      5  N   UNL     1      47.020   8.730  14.204  0.00  0.00    +0.000 N 
ATOM      6  N   UNL     1      46.941   6.584  13.158  0.00  0.00    +0.000 NA
ATOM      7  C   UNL     1      46.330   5.743  12.282  0.00  0.00    +0.000 A 
ATOM      8  H   UNL     1      46.947   9.687  13.876  0.00  0.00    +0.000 HD
ENDROOT
BRANCH   1  10
ATOM      9  N   UNL     1      45.204   4.933   9.281  0.00  0.00    +0.000 N 
ATOM     10  C   UNL     1      44.699   5.081  10.557  0.00  0.00    +0.000 C 
ATOM     11  O   UNL     1      43.784   4.383  10.995  0.00  0.00    +0.000 OA
ATOM     12  H   UNL     1      46.110   5.316   9.038  0.00  0.00    +0.000 HD
BRANCH   9  13
ATOM     13  C   UNL     1      44.700   3.873   8.425  0.00  0.00    +0.000 C 
BRANCH  13  14
ATOM     14  C   UNL     1      45.472   2.553   8.590  0.00  0.00    +0.000 C 
BRANCH  14  16
ATOM     15  C   UNL     1      46.968   1.006   7.447  0.00  0.00    +0.000 C 
ATOM     16  N   UNL     1      46.670   2.415   7.728  0.00  0.00    +0.000 NA
ATOM     17  C   UNL     1      46.429   3.115   6.458  0.00  0.00    +0.000 C 
ENDBRANCH  14  16
ENDBRANCH  13  14
ENDBRANCH   9  13
ENDBRANCH   1  10
BRANCH   5  18
ATOM     18  C   UNL     1      48.393   8.390  14.597  0.00  0.00    +0.000 C 
BRANCH  18  19
ATOM     19  C   UNL     1      48.560   8.565  16.114  0.00  0.00    +0.000 C 
BRANCH  19  20
ATOM     20  C   UNL     1      48.761   7.256  16.812  0.00  0.00    +0.000 A 
ATOM     21  C   UNL     1      48.787   7.135  18.185  0.00  0.00    +0.000 A 
ATOM     22  N   UNL     1      49.021   5.977  18.832  0.00  0.00    +0.000 NA
ATOM     23  C   UNL     1      49.255   4.906  18.070  0.00  0.00    +0.000 A 
ATOM     24  N   UNL     1      49.516   3.712  18.707  0.00  0.00    +0.000 N 
ATOM     25  N   UNL     1      49.223   4.897  16.735  0.00  0.00    +0.000 NA
ATOM     26  C   UNL     1      48.984   6.080  16.131  0.00  0.00    +0.000 A 
ATOM     27  H   UNL     1      49.118   3.725  19.635  0.00  0.00    +0.000 HD
ATOM     28  H   UNL     1      49.271   2.943  18.101  0.00  0.00    +0.000 HD
ENDBRANCH  19  20
ENDBRANCH  18  19
ENDBRANCH   5  18
TORSDOF 7
ENDMDL
MODEL 8
REMARK VINA RESULT:    -6.227      3.102      3.595
REMARK INTER + INTRA:          -9.535
REMARK INTER:                  -8.854
REMARK INTRA:                  -0.680
REMARK UNBOUND:                -0.760
REMARK  Name = 
REMARK  9 active torsions:
REMARK  status: ('A' for Active; 'I' for Inactive)
REMARK    1  A    between atoms: C_1  and  N_2
REMARK    2  A    between atoms: N_2  and  C_3
REMARK    3  A    between atoms: N_2  and  C_4
REMARK    4  A    between atoms: C_4  and  C_5
REMARK    5  A    between atoms: C_5  and  N_6
REMARK    6  A    between atoms: C_7  and  C_9
REMARK    7  A    between atoms: N_13  and  C_14
REMARK    8  A    between atoms: C_14  and  C_15
REMARK    9  A    between atoms: C_15  and  C_16
REMARK                            x       y       z     vdW  Elec       q    Type
REMARK                         _______ _______ _______ _____ _____    ______ ____
ROOT
ATOM      1  C   UNL     1      46.576   7.831  12.295  0.00  0.00    +0.000 A 
ATOM      2  C   UNL     1      45.208   8.065  12.201  0.00  0.00    +0.000 A 
ATOM      3  C   UNL     1      44.384   7.068  11.662  0.00  0.00    +0.000 A 
ATOM      4  C   UNL     1      44.928   5.840  11.277  0.00  0.00    +0.000 A 
ATOM      5  N   UNL     1      44.081   4.882  10.686  0.00  0.00    +0.000 N 
ATOM      6  N   UNL     1      46.251   5.607  11.372  0.00  0.00    +0.000 NA
ATOM      7  C   UNL     1      47.044   6.601  11.852  0.00  0.00    +0.000 A 
ATOM      8  H   UNL     1      43.146   4.965  11.071  0.00  0.00    +0.000 HD
ENDROOT
BRANCH   1  10
ATOM      9  N   UNL     1      48.208   9.596  11.805  0.00  0.00    +0.000 N 
ATOM     10  C   UNL     1      47.559   8.835  12.756  0.00  0.00    +0.000 C 
ATOM     11  O   UNL     1      47.759   8.968  13.963  0.00  0.00    +0.000 OA
ATOM     12  H   UNL     1      47.843   9.663  10.862  0.00  0.00    +0.000 HD
BRANCH   9  13
ATOM     13  C   UNL     1      49.115  10.651  12.222  0.00  0.00    +0.000 C 
BRANCH  13  14
ATOM     14  C   UNL     1      50.595  10.277  12.035  0.00  0.00    +0.000 C 
BRANCH  14  16
ATOM     15  C   UNL     1      51.823   8.412  11.059  0.00  0.00    +0.000 C 
ATOM     16  N   UNL     1      50.890   8.826  12.113  0.00  0.00    +0.000 NA
ATOM     17  C   UNL     1      51.486   8.528  13.423  0.00  0.00    +0.000 C 
ENDBRANCH  14  16
ENDBRANCH  13  14
ENDBRANCH   9  13
ENDBRANCH   1  10
BRANCH   5  18
ATOM     18  C   UNL     1      44.598   3.514  10.797  0.00  0.00    +0.000 C 
BRANCH  18  19
ATOM     19  C   UNL     1      44.280   2.729   9.515  0.00  0.00    +0.000 C 
BRANCH  19  20
ATOM     20  C   UNL     1      45.461   2.650   8.598  0.00  0.00    +0.000 A 
ATOM     21  C   UNL     1      45.962   3.744   7.926  0.00  0.00    +0.000 A 
ATOM     22  N   UNL     1      46.987   3.684   7.054  0.00  0.00    +0.000 NA
ATOM     23  C   UNL     1      47.516   2.477   6.838  0.00  0.00    +0.000 A 
ATOM     24  N   UNL     1      48.555   2.385   5.937  0.00  0.00    +0.000 N 
ATOM     25  N   UNL     1      47.136   1.356   7.456  0.00  0.00    +0.000 NA
ATOM     26  C   UNL     1      46.105   1.465   8.320  0.00  0.00    +0.000 A 
ATOM     27  H   UNL     1      49.021   3.278   5.860  0.00  0.00    +0.000 HD
ATOM     28  H   UNL     1      49.120   1.577   6.152  0.00  0.00    +0.000 HD
ENDBRANCH  19  20
ENDBRANCH  18  19
ENDBRANCH   5  18
TORSDOF 7
ENDMDL
MODEL 9
REMARK VINA RESULT:    -5.677      2.603      3.756
REMARK INTER + INTRA:          -8.759
REMARK INTER:                  -9.043
REMARK INTRA:                   0.284
REMARK UNBOUND:                -0.760
REMARK  Name = 
REMARK  9 active torsions:
REMARK  status: ('A' for Active; 'I' for Inactive)
REMARK    1  A    between atoms: C_1  and  N_2
REMARK    2  A    between atoms: N_2  and  C_3
REMARK    3  A    between atoms: N_2  and  C_4
REMARK    4  A    between atoms: C_4  and  C_5
REMARK    5  A    between atoms: C_5  and  N_6
REMARK    6  A    between atoms: C_7  and  C_9
REMARK    7  A    between atoms: N_13  and  C_14
REMARK    8  A    between atoms: C_14  and  C_15
REMARK    9  A    between atoms: C_15  and  C_16
REMARK                            x       y       z     vdW  Elec       q    Type
REMARK                         _______ _______ _______ _____ _____    ______ ____
ROOT
ATOM      1  C   UNL     1      46.248   6.625  13.056  0.00  0.00    +0.000 A 
ATOM      2  C   UNL     1      47.009   5.484  13.287  0.00  0.00    +0.000 A 
ATOM      3  C   UNL     1      46.432   4.227  13.064  0.00  0.00    +0.000 A 
ATOM      4  C   UNL     1      45.130   4.130  12.564  0.00  0.00    +0.000 A 
ATOM      5  N   UNL     1      44.561   2.852  12.406  0.00  0.00    +0.000 N 
ATOM      6  N   UNL     1      44.392   5.233  12.333  0.00  0.00    +0.000 NA
ATOM      7  C   UNL     1      44.950   6.444  12.600  0.00  0.00    +0.000 A 
ATOM      8  H   UNL     1      45.283   2.180  12.170  0.00  0.00    +0.000 HD
ENDROOT
BRANCH   1  10
ATOM      9  N   UNL     1      47.723   8.169  14.266  0.00  0.00    +0.000 N 
ATOM     10  C   UNL     1      46.710   8.000  13.344  0.00  0.00    +0.000 C 
ATOM     11  O   UNL     1      46.189   8.944  12.749  0.00  0.00    +0.000 OA
ATOM     12  H   UNL     1      48.310   7.387  14.534  0.00  0.00    +0.000 HD
BRANCH   9  13
ATOM     13  C   UNL     1      48.262   9.495  14.511  0.00  0.00    +0.000 C 
BRANCH  13  14
ATOM     14  C   UNL     1      49.620   9.725  13.826  0.00  0.00    +0.000 C 
BRANCH  14  16
ATOM     15  C   UNL     1      50.930  11.514  12.816  0.00  0.00    +0.000 C 
ATOM     16  N   UNL     1      49.639  10.816  12.823  0.00  0.00    +0.000 NA
ATOM     17  C   UNL     1      49.398  10.245  11.490  0.00  0.00    +0.000 C 
ENDBRANCH  14  16
ENDBRANCH  13  14
ENDBRANCH   9  13
ENDBRANCH   1  10
BRANCH   5  18
ATOM     18  C   UNL     1      43.459   2.832  11.437  0.00  0.00    +0.000 C 
BRANCH  18  19
ATOM     19  C   UNL     1      43.773   3.779  10.269  0.00  0.00    +0.000 C 
BRANCH  19  20
ATOM     20  C   UNL     1      44.758   3.183   9.312  0.00  0.00    +0.000 A 
ATOM     21  C   UNL     1      44.988   1.827   9.222  0.00  0.00    +0.000 A 
ATOM     22  N   UNL     1      45.908   1.275   8.408  0.00  0.00    +0.000 NA
ATOM     23  C   UNL     1      46.635   2.118   7.671  0.00  0.00    +0.000 A 
ATOM     24  N   UNL     1      47.596   1.580   6.842  0.00  0.00    +0.000 N 
ATOM     25  N   UNL     1      46.477   3.445   7.651  0.00  0.00    +0.000 NA
ATOM     26  C   UNL     1      45.545   3.952   8.482  0.00  0.00    +0.000 A 
ATOM     27  H   UNL     1      47.360   0.624   6.619  0.00  0.00    +0.000 HD
ATOM     28  H   UNL     1      47.775   2.211   6.075  0.00  0.00    +0.000 HD
ENDBRANCH  19  20
ENDBRANCH  18  19
ENDBRANCH   5  18
TORSDOF 7
ENDMDL
