MODEL 1
REMARK VINA RESULT:    -7.414      0.000      0.000
REMARK INTER + INTRA:          -9.026
REMARK INTER:                  -8.714
REMARK INTRA:                  -0.313
REMARK UNBOUND:                -0.313
REMARK  Name = 
REMARK  5 active torsions:
REMARK  status: ('A' for Active; 'I' for Inactive)
REMARK    1  A    between atoms: C_1  and  C_2
REMARK    2  A    between atoms: C_5  and  C_6
REMARK    3  A    between atoms: C_6  and  C_7
REMARK    4  A    between atoms: C_6  and  N_8
REMARK    5  A    between atoms: C_12  and  C_13
REMARK                            x       y       z     vdW  Elec       q    Type
REMARK                         _______ _______ _______ _____ _____    ______ ____
ROOT
ATOM      1  N   UNL     1      43.837   4.957   9.865  0.00  0.00    +0.000 N 
ATOM      2  C   UNL     1      44.597   3.944   9.266  0.00  0.00    +0.000 A 
ATOM      3  C   UNL     1      44.888   4.061   7.908  0.00  0.00    +0.000 A 
ATOM      4  C   UNL     1      45.643   3.074   7.271  0.00  0.00    +0.000 A 
ATOM      5  C   UNL     1      46.101   1.978   8.001  0.00  0.00    +0.000 A 
ATOM      6  C   UNL     1      45.754   1.931   9.340  0.00  0.00    +0.000 A 
ATOM      7  N   UNL     1      45.013   2.876   9.976  0.00  0.00    +0.000 NA
ATOM      8  H   UNL     1      44.298   5.848   9.697  0.00  0.00    +0.000 HD
ENDROOT
BRANCH   5   9
ATOM      9  C   UNL     1      46.914   0.941   7.318  0.00  0.00    +0.000 C 
ATOM     10  N   UNL     1      46.695  -0.377   7.610  0.00  0.00    +0.000 N 
ATOM     11  O   UNL     1      47.780   1.249   6.508  0.00  0.00    +0.000 OA
ATOM     12  H   UNL     1      46.030  -0.740   8.275  0.00  0.00    +0.000 HD
ATOM     13  H   UNL     1      47.283  -1.047   7.128  0.00  0.00    +0.000 HD
ENDBRANCH   5   9
BRANCH   1  14
ATOM     14  C   UNL     1      43.511   4.786  11.284  0.00  0.00    +0.000 C 
ATOM     15  C   UNL     1      42.276   5.616  11.643  0.00  0.00    +0.000 C 
BRANCH  14  20
ATOM     16  C   UNL     1      48.150   6.364  14.480  0.00  0.00    +0.000 C 
ATOM     17  C   UNL     1      46.951   5.964  13.673  0.00  0.00    +0.000 A 
ATOM     18  C   UNL     1      46.273   4.770  13.935  0.00  0.00    +0.000 A 
ATOM     19  C   UNL     1      45.168   4.400  13.164  0.00  0.00    +0.000 A 
ATOM     20  C   UNL     1      44.715   5.217  12.117  0.00  0.00    +0.000 A 
ATOM     21  C   UNL     1      45.400   6.414  11.859  0.00  0.00    +0.000 A 
ATOM     22  C   UNL     1      46.505   6.785  12.631  0.00  0.00    +0.000 A 
ENDBRANCH  14  20
ENDBRANCH   1  14
TORSDOF 3
ENDMDL
MODEL 2
REMARK VINA RESULT:    -7.376      3.508      6.954
REMARK INTER + INTRA:          -8.982
REMARK INTER:                  -8.522
REMARK INTRA:                  -0.460
REMARK UNBOUND:                -0.313
REMARK  Name = 
REMARK  5 active torsions:
REMARK  status: ('A' for Active; 'I' for Inactive)
REMARK    1  A    between atoms: C_1  and  C_2
REMARK    2  A    between atoms: C_5  and  C_6
REMARK    3  A    between atoms: C_6  and  C_7
REMARK    4  A    between atoms: C_6  and  N_8
REMARK    5  A    between atoms: C_12  and  C_13
REMARK                            x       y       z     vdW  Elec       q    Type
REMARK                         _______ _______ _______ _____ _____    ______ ____
ROOT
ATOM      1  N   UNL     1      45.195   4.600  11.696  0.00  0.00    +0.000 N 
ATOM      2  C   UNL     1      45.192   5.997  11.797  0.00  0.00    +0.000 A 
ATOM      3  C   UNL     1      46.040   6.586  12.733  0.00  0.00    +0.000 A 
ATOM      4  C   UNL     1      46.069   7.976  12.868  0.00  0.00    +0.000 A 
ATOM      5  C   UNL     1      45.249   8.764  12.061  0.00  0.00    +0.000 A 
ATOM      6  C   UNL     1      44.426   8.098  11.169  0.00  0.00    +0.000 A 
ATOM      7  N   UNL     1      44.376   6.747  11.030  0.00  0.00    +0.000 NA
ATOM      8  H   UNL     1      46.148   4.291  11.525  0.00  0.00    +0.000 HD
ENDROOT
BRANCH   5   9
ATOM      9  C   UNL     1      45.297  10.240  12.202  0.00  0.00    +0.000 C 
ATOM     10  N   UNL     1      46.494  10.847  12.461  0.00  0.00    +0.000 N 
ATOM     11  O   UNL     1      44.281  10.918  12.099  0.00  0.00    +0.000 OA
ATOM     12  H   UNL     1      47.382  10.388  12.589  0.00  0.00    +0.000 HD
ATOM     13  H   UNL     1      46.474  11.855  12.560  0.00  0.00    +0.000 HD
ENDBRANCH   5   9
BRANCH   1  14
ATOM     14  C   UNL     1      44.262   4.006  10.732  0.00  0.00    +0.000 C 
ATOM     15  C   UNL     1      43.482   2.865  11.390  0.00  0.00    +0.000 C 
BRANCH  14  20
ATOM     16  C   UNL     1      47.358   2.122   6.140  0.00  0.00    +0.000 C 
ATOM     17  C   UNL     1      46.553   2.607   7.307  0.00  0.00    +0.000 A 
ATOM     18  C   UNL     1      46.344   3.973   7.519  0.00  0.00    +0.000 A 
ATOM     19  C   UNL     1      45.605   4.415   8.621  0.00  0.00    +0.000 A 
ATOM     20  C   UNL     1      45.057   3.499   9.532  0.00  0.00    +0.000 A 
ATOM     21  C   UNL     1      45.271   2.129   9.314  0.00  0.00    +0.000 A 
ATOM     22  C   UNL     1      46.008   1.689   8.212  0.00  0.00    +0.000 A 
ENDBRANCH  14  20
ENDBRANCH   1  14
TORSDOF 3
ENDMDL
MODEL 3
REMARK VINA RESULT:    -7.269      3.339      6.839
REMARK INTER + INTRA:          -8.856
REMARK INTER:                  -8.383
REMARK INTRA:                  -0.473
REMARK UNBOUND:                -0.313
REMARK  Name = 
REMARK  5 active torsions:
REMARK  status: ('A' for Active; 'I' for Inactive)
REMARK    1  A    between atoms: C_1  and  C_2
REMARK    2  A    between atoms: C_5  and  C_6
REMARK    3  A    between atoms: C_6  and  C_7
REMARK    4  A    between atoms: C_6  and  N_8
REMARK    5  A    between atoms: C_12  and  C_13
REMARK                            x       y       z     vdW  Elec       q    Type
REMARK                         _______ _______ _______ _____ _____    ______ ____
ROOT
ATOM      1  N   UNL     1      45.509   3.832  12.050  0.00  0.00    +0.000 N 
ATOM      2  C   UNL     1      45.974   5.088  12.463  0.00  0.00    +0.000 A 
ATOM      3  C   UNL     1      46.932   5.131  13.473  0.00  0.00    +0.000 A 
ATOM      4  C   UNL     1      47.422   6.362  13.915  0.00  0.00    +0.000 A 
ATOM      5  C   UNL     1      46.950   7.539  13.339  0.00  0.00    +0.000 A 
ATOM      6  C   UNL     1      45.987   7.409  12.353  0.00  0.00    +0.000 A 
ATOM      7  N   UNL     1      45.490   6.222  11.915  0.00  0.00    +0.000 NA
ATOM      8  H   UNL     1      46.309   3.267  11.777  0.00  0.00    +0.000 HD
ENDROOT
BRANCH   5   9
ATOM      9  C   UNL     1      47.487   8.842  13.806  0.00  0.00    +0.000 C 
ATOM     10  N   UNL     1      47.514   9.109  15.146  0.00  0.00    +0.000 N 
ATOM     11  O   UNL     1      47.895   9.679  13.009  0.00  0.00    +0.000 OA
ATOM     12  H   UNL     1      47.184   8.507  15.883  0.00  0.00    +0.000 HD
ATOM     13  H   UNL     1      47.879  10.016  15.415  0.00  0.00    +0.000 HD
ENDBRANCH   5   9
BRANCH   1  14
ATOM     14  C   UNL     1      44.471   3.820  11.014  0.00  0.00    +0.000 C 
ATOM     15  C   UNL     1      43.384   2.805  11.373  0.00  0.00    +0.000 C 
BRANCH  14  20
ATOM     16  C   UNL     1      47.005   2.546   5.898  0.00  0.00    +0.000 C 
ATOM     17  C   UNL     1      46.342   2.876   7.201  0.00  0.00    +0.000 A 
ATOM     18  C   UNL     1      46.149   4.204   7.594  0.00  0.00    +0.000 A 
ATOM     19  C   UNL     1      45.545   4.499   8.820  0.00  0.00    +0.000 A 
ATOM     20  C   UNL     1      45.119   3.472   9.678  0.00  0.00    +0.000 A 
ATOM     21  C   UNL     1      45.317   2.142   9.277  0.00  0.00    +0.000 A 
ATOM     22  C   UNL     1      45.920   1.848   8.051  0.00  0.00    +0.000 A 
ENDBRANCH  14  20
ENDBRANCH   1  14
TORSDOF 3
ENDMDL
MODEL 4
REMARK VINA RESULT:    -7.147      2.952      6.093
REMARK INTER + INTRA:          -8.713
REMARK INTER:                  -9.576
REMARK INTRA:                   0.863
REMARK UNBOUND:                -0.313
REMARK  Name = 
REMARK  5 active torsions:
REMARK  status: ('A' for Active; 'I' for Inactive)
REMARK    1  A    between atoms: C_1  and  C_2
REMARK    2  A    between atoms: C_5  and  C_6
REMARK    3  A    between atoms: C_6  and  C_7
REMARK    4  A    between atoms: C_6  and  N_8
REMARK    5  A    between atoms: C_12  and  C_13
REMARK                            x       y       z     vdW  Elec       q    Type
REMARK                         _______ _______ _______ _____ _____    ______ ____
ROOT
ATOM      1  N   UNL     1      44.261   5.562  10.532  0.00  0.00    +0.000 N 
ATOM      2  C   UNL     1      45.165   5.565  11.603  0.00  0.00    +0.000 A 
ATOM      3  C   UNL     1      45.703   6.788  11.999  0.00  0.00    +0.000 A 
ATOM      4  C   UNL     1      46.608   6.836  13.062  0.00  0.00    +0.000 A 
ATOM      5  C   UNL     1      46.964   5.660  13.720  0.00  0.00    +0.000 A 
ATOM      6  C   UNL     1      46.395   4.488  13.253  0.00  0.00    +0.000 A 
ATOM      7  N   UNL     1      45.520   4.417  12.215  0.00  0.00    +0.000 NA
ATOM      8  H   UNL     1      43.505   6.207  10.746  0.00  0.00    +0.000 HD
ENDROOT
BRANCH   5   9
ATOM      9  C   UNL     1      47.916   5.724  14.857  0.00  0.00    +0.000 C 
ATOM     10  N   UNL     1      47.566   5.159  16.051  0.00  0.00    +0.000 N 
ATOM     11  O   UNL     1      49.001   6.282  14.741  0.00  0.00    +0.000 OA
ATOM     12  H   UNL     1      46.695   4.699  16.263  0.00  0.00    +0.000 HD
ATOM     13  H   UNL     1      48.244   5.238  16.800  0.00  0.00    +0.000 HD
ENDBRANCH   5   9
BRANCH   1  14
ATOM     14  C   UNL     1      43.742   4.256  10.111  0.00  0.00    +0.000 C 
ATOM     15  C   UNL     1      43.440   3.391  11.337  0.00  0.00    +0.000 C 
BRANCH  14  20
ATOM     16  C   UNL     1      47.665   1.622   6.662  0.00  0.00    +0.000 C 
ATOM     17  C   UNL     1      46.669   2.295   7.558  0.00  0.00    +0.000 A 
ATOM     18  C   UNL     1      45.852   1.550   8.414  0.00  0.00    +0.000 A 
ATOM     19  C   UNL     1      44.916   2.188   9.232  0.00  0.00    +0.000 A 
ATOM     20  C   UNL     1      44.778   3.585   9.215  0.00  0.00    +0.000 A 
ATOM     21  C   UNL     1      45.601   4.326   8.353  0.00  0.00    +0.000 A 
ATOM     22  C   UNL     1      46.538   3.688   7.536  0.00  0.00    +0.000 A 
ENDBRANCH  14  20
ENDBRANCH   1  14
TORSDOF 3
ENDMDL
MODEL 5
REMARK VINA RESULT:    -6.523      4.277      6.504
REMARK INTER + INTRA:          -7.979
REMARK INTER:                  -7.519
REMARK INTRA:                  -0.460
REMARK UNBOUND:                -0.313
REMARK  Name = 
REMARK  5 active torsions:
REMARK  status: ('A' for Active; 'I' for Inactive)
REMARK    1  A    between atoms: C_1  and  C_2
REMARK    2  A    between atoms: C_5  and  C_6
REMARK    3  A    between atoms: C_6  and  C_7
REMARK    4  A    between atoms: C_6  and  N_8
REMARK    5  A    between atoms: C_12  and  C_13
REMARK                            x       y       z     vdW  Elec       q    Type
REMARK                         _______ _______ _______ _____ _____    ______ ____
ROOT
ATOM      1  N   UNL     1      47.876   5.413  15.665  0.00  0.00    +0.000 N 
ATOM      2  C   UNL     1      47.149   5.287  14.474  0.00  0.00    +0.000 A 
ATOM      3  C   UNL     1      47.289   6.288  13.514  0.00  0.00    +0.000 A 
ATOM      4  C   UNL     1      46.582   6.202  12.313  0.00  0.00    +0.000 A 
ATOM      5  C   UNL     1      45.744   5.113  12.082  0.00  0.00    +0.000 A 
ATOM      6  C   UNL     1      45.650   4.172  13.093  0.00  0.00    +0.000 A 
ATOM      7  N   UNL     1      46.322   4.242  14.273  0.00  0.00    +0.000 NA
ATOM      8  H   UNL     1      48.860   5.519  15.433  0.00  0.00    +0.000 HD
ENDROOT
BRANCH   5   9
ATOM      9  C   UNL     1      45.008   5.024  10.796  0.00  0.00    +0.000 C 
ATOM     10  N   UNL     1      45.595   5.502   9.658  0.00  0.00    +0.000 N 
ATOM     11  O   UNL     1      43.883   4.540  10.744  0.00  0.00    +0.000 OA
ATOM     12  H   UNL     1      46.499   5.940   9.590  0.00  0.00    +0.000 HD
ATOM     13  H   UNL     1      45.048   5.430   8.807  0.00  0.00    +0.000 HD
ENDBRANCH   5   9
BRANCH   1  14
ATOM     14  C   UNL     1      47.678   4.366  16.673  0.00  0.00    +0.000 C 
ATOM     15  C   UNL     1      47.049   4.964  17.934  0.00  0.00    +0.000 C 
BRANCH  14  20
ATOM     16  C   UNL     1      52.861   1.974  17.949  0.00  0.00    +0.000 C 
ATOM     17  C   UNL     1      51.539   2.593  17.609  0.00  0.00    +0.000 A 
ATOM     18  C   UNL     1      51.312   3.959  17.803  0.00  0.00    +0.000 A 
ATOM     19  C   UNL     1      50.070   4.521  17.498  0.00  0.00    +0.000 A 
ATOM     20  C   UNL     1      49.028   3.730  16.989  0.00  0.00    +0.000 A 
ATOM     21  C   UNL     1      49.262   2.360  16.797  0.00  0.00    +0.000 A 
ATOM     22  C   UNL     1      50.505   1.799  17.101  0.00  0.00    +0.000 A 
ENDBRANCH  14  20
ENDBRANCH   1  14
TORSDOF 3
ENDMDL
MODEL 6
REMARK VINA RESULT:    -5.626      5.687      8.429
REMARK INTER + INTRA:          -6.926
REMARK INTER:                  -6.422
REMARK INTRA:                  -0.504
REMARK UNBOUND:                -0.313
REMARK  Name = 
REMARK  5 active torsions:
REMARK  status: ('A' for Active; 'I' for Inactive)
REMARK    1  A    between atoms: C_1  and  C_2
REMARK    2  A    between atoms: C_5  and  C_6
REMARK    3  A    between atoms: C_6  and  C_7
REMARK    4  A    between atoms: C_6  and  N_8
REMARK    5  A    between atoms: C_12  and  C_13
REMARK                            x       y       z     vdW  Elec       q    Type
REMARK                         _______ _______ _______ _____ _____    ______ ____
ROOT
ATOM      1  N   UNL     1      48.261   7.174  14.826  0.00  0.00    +0.000 N 
ATOM      2  C   UNL     1      48.531   6.516  16.033  0.00  0.00    +0.000 A 
ATOM      3  C   UNL     1      48.572   7.279  17.198  0.00  0.00    +0.000 A 
ATOM      4  C   UNL     1      48.838   6.664  18.423  0.00  0.00    +0.000 A 
ATOM      5  C   UNL     1      49.059   5.289  18.471  0.00  0.00    +0.000 A 
ATOM      6  C   UNL     1      49.016   4.608  17.266  0.00  0.00    +0.000 A 
ATOM      7  N   UNL     1      48.768   5.189  16.063  0.00  0.00    +0.000 NA
ATOM      8  H   UNL     1      47.386   7.682  14.924  0.00  0.00    +0.000 HD
ENDROOT
BRANCH   5   9
ATOM      9  C   UNL     1      49.327   4.642  19.779  0.00  0.00    +0.000 C 
ATOM     10  N   UNL     1      48.535   3.604  20.184  0.00  0.00    +0.000 N 
ATOM     11  O   UNL     1      50.238   5.030  20.501  0.00  0.00    +0.000 OA
ATOM     12  H   UNL     1      47.748   3.221  19.685  0.00  0.00    +0.000 HD
ATOM     13  H   UNL     1      48.751   3.203  21.090  0.00  0.00    +0.000 HD
ENDBRANCH   5   9
BRANCH   1  14
ATOM     14  C   UNL     1      48.265   6.352  13.611  0.00  0.00    +0.000 C 
ATOM     15  C   UNL     1      49.069   7.047  12.510  0.00  0.00    +0.000 C 
BRANCH  14  20
ATOM     16  C   UNL     1      42.717   5.457  11.987  0.00  0.00    +0.000 C 
ATOM     17  C   UNL     1      44.143   5.676  12.392  0.00  0.00    +0.000 A 
ATOM     18  C   UNL     1      44.812   4.751  13.200  0.00  0.00    +0.000 A 
ATOM     19  C   UNL     1      46.137   4.975  13.585  0.00  0.00    +0.000 A 
ATOM     20  C   UNL     1      46.822   6.127  13.169  0.00  0.00    +0.000 A 
ATOM     21  C   UNL     1      46.145   7.051  12.359  0.00  0.00    +0.000 A 
ATOM     22  C   UNL     1      44.820   6.826  11.973  0.00  0.00    +0.000 A 
ENDBRANCH  14  20
ENDBRANCH   1  14
TORSDOF 3
ENDMDL
MODEL 7
REMARK VINA RESULT:    -5.495      3.795      5.562
REMARK INTER + INTRA:          -6.772
REMARK INTER:                  -6.285
REMARK INTRA:                  -0.487
REMARK UNBOUND:                -0.313
REMARK  Name = 
REMARK  5 active torsions:
REMARK  status: ('A' for Active; 'I' for Inactive)
REMARK    1  A    between atoms: C_1  and  C_2
REMARK    2  A    between atoms: C_5  and  C_6
REMARK    3  A    between atoms: C_6  and  C_7
REMARK    4  A    between atoms: C_6  and  N_8
REMARK    5  A    between atoms: C_12  and  C_13
REMARK                            x       y       z     vdW  Elec       q    Type
REMARK                         _______ _______ _______ _____ _____    ______ ____
ROOT
ATOM      1  N   UNL     1      47.378   7.456  11.990  0.00  0.00    +0.000 N 
ATOM      2  C   UNL     1      46.559   6.318  11.985  0.00  0.00    +0.000 A 
ATOM      3  C   UNL     1      45.760   6.093  10.866  0.00  0.00    +0.000 A 
ATOM      4  C   UNL     1      44.928   4.972  10.820  0.00  0.00    +0.000 A 
ATOM      5  C   UNL     1      44.908   4.085  11.894  0.00  0.00    +0.000 A 
ATOM      6  C   UNL     1      45.721   4.390  12.972  0.00  0.00    +0.000 A 
ATOM      7  N   UNL     1      46.529   5.480  13.041  0.00  0.00    +0.000 NA
ATOM      8  H   UNL     1      47.963   7.435  11.158  0.00  0.00    +0.000 HD
ENDROOT
BRANCH   5   9
ATOM      9  C   UNL     1      44.031   2.889  11.830  0.00  0.00    +0.000 C 
ATOM     10  N   UNL     1      43.940   2.191  10.658  0.00  0.00    +0.000 N 
ATOM     11  O   UNL     1      43.385   2.526  12.806  0.00  0.00    +0.000 OA
ATOM     12  H   UNL     1      44.405   2.413   9.792  0.00  0.00    +0.000 HD
ATOM     13  H   UNL     1      43.320   1.390  10.660  0.00  0.00    +0.000 HD
ENDBRANCH   5   9
BRANCH   1  14
ATOM     14  C   UNL     1      48.178   7.688  13.197  0.00  0.00    +0.000 C 
ATOM     15  C   UNL     1      47.618   8.881  13.975  0.00  0.00    +0.000 C 
BRANCH  14  20
ATOM     16  C   UNL     1      53.700   8.686  11.544  0.00  0.00    +0.000 C 
ATOM     17  C   UNL     1      52.288   8.415  11.968  0.00  0.00    +0.000 A 
ATOM     18  C   UNL     1      51.326   8.000  11.041  0.00  0.00    +0.000 A 
ATOM     19  C   UNL     1      50.008   7.767  11.445  0.00  0.00    +0.000 A 
ATOM     20  C   UNL     1      49.625   7.940  12.784  0.00  0.00    +0.000 A 
ATOM     21  C   UNL     1      50.595   8.357  13.708  0.00  0.00    +0.000 A 
ATOM     22  C   UNL     1      51.913   8.589  13.304  0.00  0.00    +0.000 A 
ENDBRANCH  14  20
ENDBRANCH   1  14
TORSDOF 3
ENDMDL
MODEL 8
REMARK VINA RESULT:    -5.449      5.661      8.684
REMARK INTER + INTRA:          -6.718
REMARK INTER:                  -6.504
REMARK INTRA:                  -0.214
REMARK UNBOUND:                -0.313
REMARK  Name = 
REMARK  5 active torsions:
REMARK  status: ('A' for Active; 'I' for Inactive)
REMARK    1  A    between atoms: C_1  and  C_2
REMARK    2  A    between atoms: C_5  and  C_6
REMARK    3  A    between atoms: C_6  and  C_7
REMARK    4  A    between atoms: C_6  and  N_8
REMARK    5  A    between atoms: C_12  and  C_13
REMARK                            x       y       z     vdW  Elec       q    Type
REMARK                         _______ _______ _______ _____ _____    ______ ____
ROOT
ATOM      1  N   UNL     1      47.171   5.221  15.495  0.00  0.00    +0.000 N 
ATOM      2  C   UNL     1      48.089   5.106  16.548  0.00  0.00    +0.000 A 
ATOM      3  C   UNL     1      47.602   4.749  17.803  0.00  0.00    +0.000 A 
ATOM      4  C   UNL     1      48.482   4.623  18.880  0.00  0.00    +0.000 A 
ATOM      5  C   UNL     1      49.843   4.854  18.689  0.00  0.00    +0.000 A 
ATOM      6  C   UNL     1      50.241   5.220  17.415  0.00  0.00    +0.000 A 
ATOM      7  N   UNL     1      49.400   5.357  16.356  0.00  0.00    +0.000 NA
ATOM      8  H   UNL     1      46.657   4.347  15.419  0.00  0.00    +0.000 HD
ENDROOT
BRANCH   5   9
ATOM      9  C   UNL     1      50.772   4.705  19.837  0.00  0.00    +0.000 C 
ATOM     10  N   UNL     1      51.939   4.013  19.664  0.00  0.00    +0.000 N 
ATOM     11  O   UNL     1      50.504   5.182  20.933  0.00  0.00    +0.000 OA
ATOM     12  H   UNL     1      52.246   3.561  18.818  0.00  0.00    +0.000 HD
ATOM     13  H   UNL     1      52.534   3.928  20.480  0.00  0.00    +0.000 HD
ENDBRANCH   5   9
BRANCH   1  14
ATOM     14  C   UNL     1      47.707   5.639  14.195  0.00  0.00    +0.000 C 
ATOM     15  C   UNL     1      47.904   7.157  14.172  0.00  0.00    +0.000 C 
BRANCH  14  20
ATOM     16  C   UNL     1      44.028   3.997   9.954  0.00  0.00    +0.000 C 
ATOM     17  C   UNL     1      44.959   4.426  11.047  0.00  0.00    +0.000 A 
ATOM     18  C   UNL     1      45.582   5.678  11.011  0.00  0.00    +0.000 A 
ATOM     19  C   UNL     1      46.462   6.060  12.027  0.00  0.00    +0.000 A 
ATOM     20  C   UNL     1      46.736   5.201  13.103  0.00  0.00    +0.000 A 
ATOM     21  C   UNL     1      46.107   3.947  13.132  0.00  0.00    +0.000 A 
ATOM     22  C   UNL     1      45.227   3.565  12.117  0.00  0.00    +0.000 A 
ENDBRANCH  14  20
ENDBRANCH   1  14
TORSDOF 3
ENDMDL
MODEL 9
REMARK VINA RESULT:    -5.345      3.317      5.699
REMARK INTER + INTRA:          -6.595
REMARK INTER:                  -6.301
REMARK INTRA:                  -0.294
REMARK UNBOUND:                -0.313
REMARK  Name = 
REMARK  5 active torsions:
REMARK  status: ('A' for Active; 'I' for Inactive)
REMARK    1  A    between atoms: C_1  and  C_2
REMARK    2  A    between atoms: C_5  and  C_6
REMARK    3  A    between atoms: C_6  and  C_7
REMARK    4  A    between atoms: C_6  and  N_8
REMARK    5  A    between atoms: C_12  and  C_13
REMARK                            x       y       z     vdW  Elec       q    Type
REMARK                         _______ _______ _______ _____ _____    ______ ____
ROOT
ATOM      1  N   UNL     1      47.643   6.048  14.239  0.00  0.00    +0.000 N 
ATOM      2  C   UNL     1      46.767   5.555  13.262  0.00  0.00    +0.000 A 
ATOM      3  C   UNL     1      46.271   4.263  13.423  0.00  0.00    +0.000 A 
ATOM      4  C   UNL     1      45.396   3.732  12.473  0.00  0.00    +0.000 A 
ATOM      5  C   UNL     1      45.024   4.500  11.371  0.00  0.00    +0.000 A 
ATOM      6  C   UNL     1      45.575   5.767  11.280  0.00  0.00    +0.000 A 
ATOM      7  N   UNL     1      46.435   6.299  12.188  0.00  0.00    +0.000 NA
ATOM      8  H   UNL     1      47.189   5.974  15.146  0.00  0.00    +0.000 HD
ENDROOT
BRANCH   5   9
ATOM      9  C   UNL     1      44.083   3.932  10.374  0.00  0.00    +0.000 C 
ATOM     10  N   UNL     1      44.053   4.456   9.112  0.00  0.00    +0.000 N 
ATOM     11  O   UNL     1      43.332   3.010  10.669  0.00  0.00    +0.000 OA
ATOM     12  H   UNL     1      44.606   5.227   8.771  0.00  0.00    +0.000 HD
ATOM     13  H   UNL     1      43.386   4.043   8.471  0.00  0.00    +0.000 HD
ENDBRANCH   5   9
BRANCH   1  14
ATOM     14  C   UNL     1      48.181   7.395  14.023  0.00  0.00    +0.000 C 
ATOM     15  C   UNL     1      49.445   7.323  13.161  0.00  0.00    +0.000 C 
BRANCH  14  20
ATOM     16  C   UNL     1      49.282   9.855  19.215  0.00  0.00    +0.000 C 
ATOM     17  C   UNL     1      49.013   9.230  17.879  0.00  0.00    +0.000 A 
ATOM     18  C   UNL     1      48.569  10.001  16.800  0.00  0.00    +0.000 A 
ATOM     19  C   UNL     1      48.306   9.404  15.564  0.00  0.00    +0.000 A 
ATOM     20  C   UNL     1      48.484   8.024  15.379  0.00  0.00    +0.000 A 
ATOM     21  C   UNL     1      48.930   7.257  16.466  0.00  0.00    +0.000 A 
ATOM     22  C   UNL     1      49.194   7.854  17.702  0.00  0.00    +0.000 A 
ENDBRANCH  14  20
ENDBRANCH   1  14
TORSDOF 3
ENDMDL
