MODEL 1
REMARK VINA RESULT:    -7.983      0.000      0.000
REMARK INTER + INTRA:         -13.247
REMARK INTER:                 -11.950
REMARK INTRA:                  -1.297
REMARK UNBOUND:                -1.297
REMARK  Name = 
REMARK  9 active torsions:
REMARK  status: ('A' for Active; 'I' for Inactive)
REMARK    1  A    between atoms: C_2  and  C_21
REMARK    2  A    between atoms: N_3  and  CA_4
REMARK    3  A    between atoms: CA_4  and  C_5
REMARK    4  A    between atoms: CA_4  and  C_7
REMARK    5  A    between atoms: C_5  and  O_6
REMARK    6  A    between atoms: C_10  and  C_11
REMARK    7  A    between atoms: C_11  and  N_12
REMARK    8  A    between atoms: N_12  and  C_13
REMARK    9  A    between atoms: C_13  and  C_14
REMARK                            x       y       z     vdW  Elec       q    Type
REMARK                         _______ _______ _______ _____ _____    ______ ____
ROOT
ATOM      1  CA  UNL     1      47.343   7.287  13.294  0.00  0.00    +0.000 C 
ENDROOT
BRANCH   1   2
ATOM      2  C   UNL     1      46.414   6.362  12.530  0.00  0.00    +0.000 A 
ATOM      3  C   UNL     1      45.550   5.518  13.242  0.00  0.00    +0.000 A 
ATOM      4  C   UNL     1      44.687   4.641  12.577  0.00  0.00    +0.000 A 
ATOM      5  C   UNL     1      44.643   4.600  11.176  0.00  0.00    +0.000 A 
ATOM      6  C   UNL     1      45.505   5.443  10.461  0.00  0.00    +0.000 A 
ATOM      7  C   UNL     1      46.375   6.319  11.128  0.00  0.00    +0.000 A 
BRANCH   5   8
ATOM      8  C   UNL     1      43.747   3.623  10.437  0.00  0.00    +0.000 C 
BRANCH   8   9
ATOM      9  N   UNL     1      44.298   2.268  10.419  0.00  0.00    +0.000 NA
ATOM     10  H   UNL     1      43.653   1.649  10.910  0.00  0.00    +0.000 HD
BRANCH   9  11
ATOM     11  C   UNL     1      44.456   1.755   9.051  0.00  0.00    +0.000 C 
BRANCH  11  12
ATOM     12  C   UNL     1      45.874   2.071   8.545  0.00  0.00    +0.000 C 
ATOM     13  C   UNL     1      45.913   3.104   7.432  0.00  0.00    +0.000 C 
ATOM     14  C   UNL     1      47.307   2.911   6.860  0.00  0.00    +0.000 C 
ATOM     15  C   UNL     1      47.629   1.442   7.108  0.00  0.00    +0.000 C 
ATOM     16  N   UNL     1      46.529   0.909   7.918  0.00  0.00    +0.000 NA
ATOM     17  H   UNL     1      46.889   0.290   8.643  0.00  0.00    +0.000 HD
ENDBRANCH  11  12
ENDBRANCH   9  11
ENDBRANCH   8   9
ENDBRANCH   5   8
ENDBRANCH   1   2
BRANCH   1  20
ATOM     18  O   UNL     1      49.942   7.025  14.389  0.00  0.00    +0.000 OA
ATOM     19  C   UNL     1      48.983   6.641  15.050  0.00  0.00    +0.000 C 
ATOM     20  N   UNL     1      47.695   6.711  14.584  0.00  0.00    +0.000 N 
ATOM     21  H   UNL     1      46.926   6.442  15.191  0.00  0.00    +0.000 HD
BRANCH  19  22
ATOM     22  C   UNL     1      49.164   6.090  16.396  0.00  0.00    +0.000 A 
ATOM     23  C   UNL     1      49.870   6.809  17.349  0.00  0.00    +0.000 A 
ATOM     24  S   UNL     1      49.929   6.045  18.873  0.00  0.00    +0.000 S 
ATOM     25  C   UNL     1      48.977   4.747  18.320  0.00  0.00    +0.000 A 
ATOM     26  N   UNL     1      48.602   3.746  19.161  0.00  0.00    +0.000 NA
ATOM     27  C   UNL     1      47.842   2.853  18.619  0.00  0.00    +0.000 A 
ATOM     28  N   UNL     1      47.442   2.856  17.308  0.00  0.00    +0.000 N 
ATOM     29  C   UNL     1      47.865   3.801  16.405  0.00  0.00    +0.000 A 
ATOM     30  O   UNL     1      47.611   3.702  15.208  0.00  0.00    +0.000 OA
ATOM     31  C   UNL     1      48.663   4.869  16.979  0.00  0.00    +0.000 A 
ATOM     32  H   UNL     1      46.880   2.102  16.939  0.00  0.00    +0.000 HD
ENDBRANCH  19  22
ENDBRANCH   1  20
BRANCH   1  33
ATOM     33  C   UNL     1      46.763   8.707  13.487  0.00  0.00    +0.000 C 
BRANCH  33  34
ATOM     34  O   UNL     1      47.039   9.214  14.796  0.00  0.00    +0.000 OA
ATOM     35  H   UNL     1      46.981   8.457  15.408  0.00  0.00    +0.000 HD
ENDBRANCH  33  34
ENDBRANCH   1  33
TORSDOF 9
ENDMDL
MODEL 2
REMARK VINA RESULT:    -7.875      1.930      2.667
REMARK INTER + INTRA:         -13.085
REMARK INTER:                 -11.620
REMARK INTRA:                  -1.465
REMARK UNBOUND:                -1.297
REMARK  Name = 
REMARK  9 active torsions:
REMARK  status: ('A' for Active; 'I' for Inactive)
REMARK    1  A    between atoms: C_2  and  C_21
REMARK    2  A    between atoms: N_3  and  CA_4
REMARK    3  A    between atoms: CA_4  and  C_5
REMARK    4  A    between atoms: CA_4  and  C_7
REMARK    5  A    between atoms: C_5  and  O_6
REMARK    6  A    between atoms: C_10  and  C_11
REMARK    7  A    between atoms: C_11  and  N_12
REMARK    8  A    between atoms: N_12  and  C_13
REMARK    9  A    between atoms: C_13  and  C_14
REMARK                            x       y       z     vdW  Elec       q    Type
REMARK                         _______ _______ _______ _____ _____    ______ ____
ROOT
ATOM      1  CA  UNL     1      48.113   6.824  14.045  0.00  0.00    +0.000 C 
ENDROOT
BRANCH   1   2
ATOM      2  C   UNL     1      47.101   6.039  13.231  0.00  0.00    +0.000 A 
ATOM      3  C   UNL     1      46.609   6.586  12.039  0.00  0.00    +0.000 A 
ATOM      4  C   UNL     1      45.665   5.901  11.265  0.00  0.00    +0.000 A 
ATOM      5  C   UNL     1      45.204   4.635  11.649  0.00  0.00    +0.000 A 
ATOM      6  C   UNL     1      45.695   4.084  12.842  0.00  0.00    +0.000 A 
ATOM      7  C   UNL     1      46.638   4.773  13.620  0.00  0.00    +0.000 A 
BRANCH   5   8
ATOM      8  C   UNL     1      44.148   3.896  10.849  0.00  0.00    +0.000 C 
BRANCH   8   9
ATOM      9  N   UNL     1      44.507   2.498  10.610  0.00  0.00    +0.000 NA
ATOM     10  H   UNL     1      43.831   1.903  11.091  0.00  0.00    +0.000 HD
BRANCH   9  11
ATOM     11  C   UNL     1      44.468   2.154   9.182  0.00  0.00    +0.000 C 
BRANCH  11  12
ATOM     12  C   UNL     1      45.884   2.269   8.589  0.00  0.00    +0.000 C 
ATOM     13  C   UNL     1      45.970   3.184   7.381  0.00  0.00    +0.000 C 
ATOM     14  C   UNL     1      47.306   2.791   6.772  0.00  0.00    +0.000 C 
ATOM     15  C   UNL     1      47.487   1.325   7.147  0.00  0.00    +0.000 C 
ATOM     16  N   UNL     1      46.382   0.990   8.050  0.00  0.00    +0.000 NA
ATOM     17  H   UNL     1      46.712   0.405   8.817  0.00  0.00    +0.000 HD
ENDBRANCH  11  12
ENDBRANCH   9  11
ENDBRANCH   8   9
ENDBRANCH   5   8
ENDBRANCH   1   2
BRANCH   1  20
ATOM     18  O   UNL     1      50.206   6.294  15.879  0.00  0.00    +0.000 OA
ATOM     19  C   UNL     1      49.049   6.297  16.290  0.00  0.00    +0.000 C 
ATOM     20  N   UNL     1      47.978   6.521  15.463  0.00  0.00    +0.000 N 
ATOM     21  H   UNL     1      47.043   6.579  15.857  0.00  0.00    +0.000 HD
BRANCH  19  22
ATOM     22  C   UNL     1      48.748   6.067  17.706  0.00  0.00    +0.000 A 
ATOM     23  C   UNL     1      49.011   4.831  18.277  0.00  0.00    +0.000 A 
ATOM     24  S   UNL     1      48.656   4.763  19.944  0.00  0.00    +0.000 S 
ATOM     25  C   UNL     1      48.178   6.396  19.965  0.00  0.00    +0.000 A 
ATOM     26  N   UNL     1      47.800   7.001  21.124  0.00  0.00    +0.000 NA
ATOM     27  C   UNL     1      47.510   8.253  21.001  0.00  0.00    +0.000 A 
ATOM     28  N   UNL     1      47.540   8.952  19.821  0.00  0.00    +0.000 N 
ATOM     29  C   UNL     1      47.834   8.361  18.616  0.00  0.00    +0.000 A 
ATOM     30  O   UNL     1      47.715   8.972  17.558  0.00  0.00    +0.000 OA
ATOM     31  C   UNL     1      48.239   6.970  18.709  0.00  0.00    +0.000 A 
ATOM     32  H   UNL     1      47.260   9.921  19.790  0.00  0.00    +0.000 HD
ENDBRANCH  19  22
ENDBRANCH   1  20
BRANCH   1  33
ATOM     33  C   UNL     1      48.024   8.350  13.817  0.00  0.00    +0.000 C 
BRANCH  33  34
ATOM     34  O   UNL     1      47.137   8.970  14.753  0.00  0.00    +0.000 OA
ATOM     35  H   UNL     1      46.329   8.425  14.778  0.00  0.00    +0.000 HD
ENDBRANCH  33  34
ENDBRANCH   1  33
TORSDOF 9
ENDMDL
MODEL 3
REMARK VINA RESULT:    -7.526      1.915      2.367
REMARK INTER + INTRA:         -12.563
REMARK INTER:                 -11.560
REMARK INTRA:                  -1.003
REMARK UNBOUND:                -1.297
REMARK  Name = 
REMARK  9 active torsions:
REMARK  status: ('A' for Active; 'I' for Inactive)
REMARK    1  A    between atoms: C_2  and  C_21
REMARK    2  A    between atoms: N_3  and  CA_4
REMARK    3  A    between atoms: CA_4  and  C_5
REMARK    4  A    between atoms: CA_4  and  C_7
REMARK    5  A    between atoms: C_5  and  O_6
REMARK    6  A    between atoms: C_10  and  C_11
REMARK    7  A    between atoms: C_11  and  N_12
REMARK    8  A    between atoms: N_12  and  C_13
REMARK    9  A    between atoms: C_13  and  C_14
REMARK                            x       y       z     vdW  Elec       q    Type
REMARK                         _______ _______ _______ _____ _____    ______ ____
ROOT
ATOM      1  CA  UNL     1      48.399   6.524  13.781  0.00  0.00    +0.000 C 
ENDROOT
BRANCH   1   2
ATOM      2  C   UNL     1      47.113   6.150  13.067  0.00  0.00    +0.000 A 
ATOM      3  C   UNL     1      46.877   6.646  11.778  0.00  0.00    +0.000 A 
ATOM      4  C   UNL     1      45.699   6.336  11.090  0.00  0.00    +0.000 A 
ATOM      5  C   UNL     1      44.732   5.498  11.662  0.00  0.00    +0.000 A 
ATOM      6  C   UNL     1      44.966   5.000  12.952  0.00  0.00    +0.000 A 
ATOM      7  C   UNL     1      46.144   5.315  13.644  0.00  0.00    +0.000 A 
BRANCH   5   8
ATOM      8  C   UNL     1      43.428   5.187  10.951  0.00  0.00    +0.000 C 
BRANCH   8   9
ATOM      9  N   UNL     1      43.642   4.661   9.602  0.00  0.00    +0.000 NA
ATOM     10  H   UNL     1      44.321   5.256   9.126  0.00  0.00    +0.000 HD
BRANCH   9  11
ATOM     11  C   UNL     1      44.180   3.295   9.621  0.00  0.00    +0.000 C 
BRANCH  11  12
ATOM     12  C   UNL     1      44.959   3.033   8.320  0.00  0.00    +0.000 C 
ATOM     13  C   UNL     1      45.980   1.913   8.430  0.00  0.00    +0.000 C 
ATOM     14  C   UNL     1      46.854   2.150   7.210  0.00  0.00    +0.000 C 
ATOM     15  C   UNL     1      46.784   3.653   6.969  0.00  0.00    +0.000 C 
ATOM     16  N   UNL     1      45.794   4.178   7.913  0.00  0.00    +0.000 NA
ATOM     17  H   UNL     1      45.209   4.881   7.462  0.00  0.00    +0.000 HD
ENDBRANCH  11  12
ENDBRANCH   9  11
ENDBRANCH   8   9
ENDBRANCH   5   8
ENDBRANCH   1   2
BRANCH   1  20
ATOM     18  O   UNL     1      50.280   6.211  15.876  0.00  0.00    +0.000 OA
ATOM     19  C   UNL     1      49.137   6.555  16.157  0.00  0.00    +0.000 C 
ATOM     20  N   UNL     1      48.161   6.707  15.206  0.00  0.00    +0.000 N 
ATOM     21  H   UNL     1      47.246   7.057  15.477  0.00  0.00    +0.000 HD
BRANCH  19  22
ATOM     22  C   UNL     1      48.751   6.837  17.543  0.00  0.00    +0.000 A 
ATOM     23  C   UNL     1      48.322   8.107  17.897  0.00  0.00    +0.000 A 
ATOM     24  S   UNL     1      47.856   8.237  19.533  0.00  0.00    +0.000 S 
ATOM     25  C   UNL     1      48.174   6.589  19.811  0.00  0.00    +0.000 A 
ATOM     26  N   UNL     1      47.929   6.023  21.024  0.00  0.00    +0.000 NA
ATOM     27  C   UNL     1      48.171   4.755  21.079  0.00  0.00    +0.000 A 
ATOM     28  N   UNL     1      48.658   4.005  20.039  0.00  0.00    +0.000 N 
ATOM     29  C   UNL     1      48.998   4.552  18.825  0.00  0.00    +0.000 A 
ATOM     30  O   UNL     1      49.565   3.889  17.961  0.00  0.00    +0.000 OA
ATOM     31  C   UNL     1      48.677   5.961  18.687  0.00  0.00    +0.000 A 
ATOM     32  H   UNL     1      48.864   3.025  20.164  0.00  0.00    +0.000 HD
ENDBRANCH  19  22
ENDBRANCH   1  20
BRANCH   1  33
ATOM     33  C   UNL     1      49.078   7.781  13.191  0.00  0.00    +0.000 C 
BRANCH  33  34
ATOM     34  O   UNL     1      50.344   7.467  12.602  0.00  0.00    +0.000 OA
ATOM     35  H   UNL     1      50.170   6.825  11.890  0.00  0.00    +0.000 HD
ENDBRANCH  33  34
ENDBRANCH   1  33
TORSDOF 9
ENDMDL
MODEL 4
REMARK VINA RESULT:    -6.822      2.243      4.125
REMARK INTER + INTRA:         -11.509
REMARK INTER:                 -10.472
REMARK INTRA:                  -1.037
REMARK UNBOUND:                -1.297
REMARK  Name = 
REMARK  9 active torsions:
REMARK  status: ('A' for Active; 'I' for Inactive)
REMARK    1  A    between atoms: C_2  and  C_21
REMARK    2  A    between atoms: N_3  and  CA_4
REMARK    3  A    between atoms: CA_4  and  C_5
REMARK    4  A    between atoms: CA_4  and  C_7
REMARK    5  A    between atoms: C_5  and  O_6
REMARK    6  A    between atoms: C_10  and  C_11
REMARK    7  A    between atoms: C_11  and  N_12
REMARK    8  A    between atoms: N_12  and  C_13
REMARK    9  A    between atoms: C_13  and  C_14
REMARK                            x       y       z     vdW  Elec       q    Type
REMARK                         _______ _______ _______ _____ _____    ______ ____
ROOT
ATOM      1  CA  UNL     1      46.943   4.902  15.162  0.00  0.00    +0.000 C 
ENDROOT
BRANCH   1   2
ATOM      2  C   UNL     1      46.207   4.787  13.840  0.00  0.00    +0.000 A 
ATOM      3  C   UNL     1      45.771   5.953  13.195  0.00  0.00    +0.000 A 
ATOM      4  C   UNL     1      45.078   5.890  11.982  0.00  0.00    +0.000 A 
ATOM      5  C   UNL     1      44.822   4.659  11.363  0.00  0.00    +0.000 A 
ATOM      6  C   UNL     1      45.257   3.491  12.006  0.00  0.00    +0.000 A 
ATOM      7  C   UNL     1      45.948   3.553  13.225  0.00  0.00    +0.000 A 
BRANCH   5   8
ATOM      8  C   UNL     1      44.032   4.567  10.071  0.00  0.00    +0.000 C 
BRANCH   8   9
ATOM      9  N   UNL     1      44.873   4.758   8.889  0.00  0.00    +0.000 NA
ATOM     10  H   UNL     1      45.846   4.827   9.192  0.00  0.00    +0.000 HD
BRANCH   9  11
ATOM     11  C   UNL     1      44.776   3.629   7.955  0.00  0.00    +0.000 C 
BRANCH  11  12
ATOM     12  C   UNL     1      46.184   3.083   7.661  0.00  0.00    +0.000 C 
ATOM     13  C   UNL     1      46.565   3.126   6.191  0.00  0.00    +0.000 C 
ATOM     14  C   UNL     1      47.754   2.182   6.137  0.00  0.00    +0.000 C 
ATOM     15  C   UNL     1      47.502   1.176   7.254  0.00  0.00    +0.000 C 
ATOM     16  N   UNL     1      46.319   1.650   7.978  0.00  0.00    +0.000 NA
ATOM     17  H   UNL     1      46.447   1.535   8.983  0.00  0.00    +0.000 HD
ENDBRANCH  11  12
ENDBRANCH   9  11
ENDBRANCH   8   9
ENDBRANCH   5   8
ENDBRANCH   1   2
BRANCH   1  20
ATOM     18  O   UNL     1      48.511   5.972  17.265  0.00  0.00    +0.000 OA
ATOM     19  C   UNL     1      48.815   6.242  16.107  0.00  0.00    +0.000 C 
ATOM     20  N   UNL     1      48.095   5.784  15.034  0.00  0.00    +0.000 N 
ATOM     21  H   UNL     1      48.421   5.978  14.091  0.00  0.00    +0.000 HD
BRANCH  19  22
ATOM     22  C   UNL     1      49.985   7.071  15.806  0.00  0.00    +0.000 A 
ATOM     23  C   UNL     1      51.226   6.731  16.325  0.00  0.00    +0.000 A 
ATOM     24  S   UNL     1      52.482   7.770  15.823  0.00  0.00    +0.000 S 
ATOM     25  C   UNL     1      51.416   8.684  14.862  0.00  0.00    +0.000 A 
ATOM     26  N   UNL     1      51.869   9.717  14.102  0.00  0.00    +0.000 NA
ATOM     27  C   UNL     1      50.959  10.291  13.386  0.00  0.00    +0.000 A 
ATOM     28  N   UNL     1      49.632   9.942  13.379  0.00  0.00    +0.000 N 
ATOM     29  C   UNL     1      49.119   8.961  14.193  0.00  0.00    +0.000 A 
ATOM     30  O   UNL     1      47.910   8.765  14.273  0.00  0.00    +0.000 OA
ATOM     31  C   UNL     1      50.112   8.236  14.963  0.00  0.00    +0.000 A 
ATOM     32  H   UNL     1      48.967  10.462  12.826  0.00  0.00    +0.000 HD
ENDBRANCH  19  22
ENDBRANCH   1  20
BRANCH   1  33
ATOM     33  C   UNL     1      47.383   3.534  15.734  0.00  0.00    +0.000 C 
BRANCH  33  34
ATOM     34  O   UNL     1      46.796   3.288  17.015  0.00  0.00    +0.000 OA
ATOM     35  H   UNL     1      47.530   3.211  17.651  0.00  0.00    +0.000 HD
ENDBRANCH  33  34
ENDBRANCH   1  33
TORSDOF 9
ENDMDL
MODEL 5
REMARK VINA RESULT:    -6.785      3.100      7.789
REMARK INTER + INTRA:         -11.454
REMARK INTER:                  -9.974
REMARK INTRA:                  -1.479
REMARK UNBOUND:                -1.297
REMARK  Name = 
REMARK  9 active torsions:
REMARK  status: ('A' for Active; 'I' for Inactive)
REMARK    1  A    between atoms: C_2  and  C_21
REMARK    2  A    between atoms: N_3  and  CA_4
REMARK    3  A    between atoms: CA_4  and  C_5
REMARK    4  A    between atoms: CA_4  and  C_7
REMARK    5  A    between atoms: C_5  and  O_6
REMARK    6  A    between atoms: C_10  and  C_11
REMARK    7  A    between atoms: C_11  and  N_12
REMARK    8  A    between atoms: N_12  and  C_13
REMARK    9  A    between atoms: C_13  and  C_14
REMARK                            x       y       z     vdW  Elec       q    Type
REMARK                         _______ _______ _______ _____ _____    ______ ____
ROOT
ATOM      1  CA  UNL     1      48.319   8.156  12.196  0.00  0.00    +0.000 C 
ENDROOT
BRANCH   1   2
ATOM      2  C   UNL     1      48.390   8.035  13.707  0.00  0.00    +0.000 A 
ATOM      3  C   UNL     1      48.263   9.188  14.493  0.00  0.00    +0.000 A 
ATOM      4  C   UNL     1      48.336   9.122  15.889  0.00  0.00    +0.000 A 
ATOM      5  C   UNL     1      48.513   7.895  16.542  0.00  0.00    +0.000 A 
ATOM      6  C   UNL     1      48.640   6.739  15.758  0.00  0.00    +0.000 A 
ATOM      7  C   UNL     1      48.572   6.806  14.359  0.00  0.00    +0.000 A 
BRANCH   5   8
ATOM      8  C   UNL     1      48.641   7.808  18.052  0.00  0.00    +0.000 C 
BRANCH   8   9
ATOM      9  N   UNL     1      47.705   6.846  18.635  0.00  0.00    +0.000 NA
ATOM     10  H   UNL     1      47.258   6.328  17.877  0.00  0.00    +0.000 HD
BRANCH   9  11
ATOM     11  C   UNL     1      48.382   5.873  19.502  0.00  0.00    +0.000 C 
BRANCH  11  12
ATOM     12  C   UNL     1      48.220   4.461  18.913  0.00  0.00    +0.000 C 
ATOM     13  C   UNL     1      49.338   4.058  17.967  0.00  0.00    +0.000 C 
ATOM     14  C   UNL     1      48.734   2.869  17.240  0.00  0.00    +0.000 C 
ATOM     15  C   UNL     1      47.234   3.139  17.234  0.00  0.00    +0.000 C 
ATOM     16  N   UNL     1      47.025   4.332  18.059  0.00  0.00    +0.000 NA
ATOM     17  H   UNL     1      46.199   4.221  18.645  0.00  0.00    +0.000 HD
ENDBRANCH  11  12
ENDBRANCH   9  11
ENDBRANCH   8   9
ENDBRANCH   5   8
ENDBRANCH   1   2
BRANCH   1  20
ATOM     18  O   UNL     1      45.521   8.016  11.775  0.00  0.00    +0.000 OA
ATOM     19  C   UNL     1      46.216   7.064  11.436  0.00  0.00    +0.000 C 
ATOM     20  N   UNL     1      47.574   7.042  11.626  0.00  0.00    +0.000 N 
ATOM     21  H   UNL     1      48.118   6.261  11.270  0.00  0.00    +0.000 HD
BRANCH  19  22
ATOM     22  C   UNL     1      45.625   5.887  10.792  0.00  0.00    +0.000 A 
ATOM     23  C   UNL     1      45.920   5.603   9.466  0.00  0.00    +0.000 A 
ATOM     24  S   UNL     1      45.195   4.166   8.900  0.00  0.00    +0.000 S 
ATOM     25  C   UNL     1      44.498   3.854  10.422  0.00  0.00    +0.000 A 
ATOM     26  N   UNL     1      43.776   2.723  10.642  0.00  0.00    +0.000 NA
ATOM     27  C   UNL     1      43.348   2.592  11.854  0.00  0.00    +0.000 A 
ATOM     28  N   UNL     1      43.555   3.501  12.860  0.00  0.00    +0.000 N 
ATOM     29  C   UNL     1      44.206   4.694  12.659  0.00  0.00    +0.000 A 
ATOM     30  O   UNL     1      44.254   5.553  13.536  0.00  0.00    +0.000 OA
ATOM     31  C   UNL     1      44.771   4.858  11.333  0.00  0.00    +0.000 A 
ATOM     32  H   UNL     1      43.155   3.355  13.775  0.00  0.00    +0.000 HD
ENDBRANCH  19  22
ENDBRANCH   1  20
BRANCH   1  33
ATOM     33  C   UNL     1      49.709   8.262  11.529  0.00  0.00    +0.000 C 
BRANCH  33  34
ATOM     34  O   UNL     1      50.435   7.033  11.629  0.00  0.00    +0.000 OA
ATOM     35  H   UNL     1      50.889   6.905  10.776  0.00  0.00    +0.000 HD
ENDBRANCH  33  34
ENDBRANCH   1  33
TORSDOF 9
ENDMDL
MODEL 6
REMARK VINA RESULT:    -6.741      3.105      3.924
REMARK INTER + INTRA:         -11.388
REMARK INTER:                 -10.390
REMARK INTRA:                  -0.999
REMARK UNBOUND:                -1.297
REMARK  Name = 
REMARK  9 active torsions:
REMARK  status: ('A' for Active; 'I' for Inactive)
REMARK    1  A    between atoms: C_2  and  C_21
REMARK    2  A    between atoms: N_3  and  CA_4
REMARK    3  A    between atoms: CA_4  and  C_5
REMARK    4  A    between atoms: CA_4  and  C_7
REMARK    5  A    between atoms: C_5  and  O_6
REMARK    6  A    between atoms: C_10  and  C_11
REMARK    7  A    between atoms: C_11  and  N_12
REMARK    8  A    between atoms: N_12  and  C_13
REMARK    9  A    between atoms: C_13  and  C_14
REMARK                            x       y       z     vdW  Elec       q    Type
REMARK                         _______ _______ _______ _____ _____    ______ ____
ROOT
ATOM      1  CA  UNL     1      48.118   5.319  16.882  0.00  0.00    +0.000 C 
ENDROOT
BRANCH   1   2
ATOM      2  C   UNL     1      47.586   5.350  15.461  0.00  0.00    +0.000 A 
ATOM      3  C   UNL     1      47.925   6.424  14.626  0.00  0.00    +0.000 A 
ATOM      4  C   UNL     1      47.446   6.497  13.314  0.00  0.00    +0.000 A 
ATOM      5  C   UNL     1      46.633   5.484  12.788  0.00  0.00    +0.000 A 
ATOM      6  C   UNL     1      46.292   4.409  13.620  0.00  0.00    +0.000 A 
ATOM      7  C   UNL     1      46.768   4.337  14.938  0.00  0.00    +0.000 A 
BRANCH   5   8
ATOM      8  C   UNL     1      46.066   5.568  11.383  0.00  0.00    +0.000 C 
BRANCH   8   9
ATOM      9  N   UNL     1      45.267   4.393  11.034  0.00  0.00    +0.000 NA
ATOM     10  H   UNL     1      44.693   4.140  11.839  0.00  0.00    +0.000 HD
BRANCH   9  11
ATOM     11  C   UNL     1      44.363   4.655   9.906  0.00  0.00    +0.000 C 
BRANCH  11  12
ATOM     12  C   UNL     1      44.884   3.928   8.653  0.00  0.00    +0.000 C 
ATOM     13  C   UNL     1      45.437   2.541   8.934  0.00  0.00    +0.000 C 
ATOM     14  C   UNL     1      46.232   2.249   7.673  0.00  0.00    +0.000 C 
ATOM     15  C   UNL     1      46.689   3.615   7.176  0.00  0.00    +0.000 C 
ATOM     16  N   UNL     1      46.038   4.607   8.037  0.00  0.00    +0.000 NA
ATOM     17  H   UNL     1      45.710   5.398   7.484  0.00  0.00    +0.000 HD
ENDBRANCH  11  12
ENDBRANCH   9  11
ENDBRANCH   8   9
ENDBRANCH   5   8
ENDBRANCH   1   2
BRANCH   1  20
ATOM     18  O   UNL     1      50.083   5.800  18.865  0.00  0.00    +0.000 OA
ATOM     19  C   UNL     1      50.363   5.064  17.923  0.00  0.00    +0.000 C 
ATOM     20  N   UNL     1      49.477   4.799  16.911  0.00  0.00    +0.000 N 
ATOM     21  H   UNL     1      49.729   4.133  16.185  0.00  0.00    +0.000 HD
BRANCH  19  22
ATOM     22  C   UNL     1      51.674   4.414  17.836  0.00  0.00    +0.000 A 
ATOM     23  C   UNL     1      52.830   5.159  18.020  0.00  0.00    +0.000 A 
ATOM     24  S   UNL     1      54.258   4.230  17.944  0.00  0.00    +0.000 S 
ATOM     25  C   UNL     1      53.376   2.794  17.704  0.00  0.00    +0.000 A 
ATOM     26  N   UNL     1      54.006   1.592  17.612  0.00  0.00    +0.000 NA
ATOM     27  C   UNL     1      53.211   0.582  17.479  0.00  0.00    +0.000 A 
ATOM     28  N   UNL     1      51.844   0.667  17.405  0.00  0.00    +0.000 N 
ATOM     29  C   UNL     1      51.173   1.866  17.409  0.00  0.00    +0.000 A 
ATOM     30  O   UNL     1      49.965   1.924  17.198  0.00  0.00    +0.000 OA
ATOM     31  C   UNL     1      52.015   3.027  17.630  0.00  0.00    +0.000 A 
ATOM     32  H   UNL     1      51.285  -0.160  17.258  0.00  0.00    +0.000 HD
ENDBRANCH  19  22
ENDBRANCH   1  20
BRANCH   1  33
ATOM     33  C   UNL     1      47.220   4.513  17.848  0.00  0.00    +0.000 C 
BRANCH  33  34
ATOM     34  O   UNL     1      46.394   5.373  18.638  0.00  0.00    +0.000 OA
ATOM     35  H   UNL     1      46.544   6.280  18.315  0.00  0.00    +0.000 HD
ENDBRANCH  33  34
ENDBRANCH   1  33
TORSDOF 9
ENDMDL
MODEL 7
REMARK VINA RESULT:    -6.684      3.569      9.232
REMARK INTER + INTRA:         -11.302
REMARK INTER:                  -9.420
REMARK INTRA:                  -1.882
REMARK UNBOUND:                -1.297
REMARK  Name = 
REMARK  9 active torsions:
REMARK  status: ('A' for Active; 'I' for Inactive)
REMARK    1  A    between atoms: C_2  and  C_21
REMARK    2  A    between atoms: N_3  and  CA_4
REMARK    3  A    between atoms: CA_4  and  C_5
REMARK    4  A    between atoms: CA_4  and  C_7
REMARK    5  A    between atoms: C_5  and  O_6
REMARK    6  A    between atoms: C_10  and  C_11
REMARK    7  A    between atoms: C_11  and  N_12
REMARK    8  A    between atoms: N_12  and  C_13
REMARK    9  A    between atoms: C_13  and  C_14
REMARK                            x       y       z     vdW  Elec       q    Type
REMARK                         _______ _______ _______ _____ _____    ______ ____
ROOT
ATOM      1  CA  UNL     1      48.238   4.773  16.315  0.00  0.00    +0.000 C 
ENDROOT
BRANCH   1   2
ATOM      2  C   UNL     1      48.068   5.660  17.534  0.00  0.00    +0.000 A 
ATOM      3  C   UNL     1      48.824   6.836  17.637  0.00  0.00    +0.000 A 
ATOM      4  C   UNL     1      48.707   7.675  18.750  0.00  0.00    +0.000 A 
ATOM      5  C   UNL     1      47.809   7.375  19.784  0.00  0.00    +0.000 A 
ATOM      6  C   UNL     1      47.052   6.200  19.684  0.00  0.00    +0.000 A 
ATOM      7  C   UNL     1      47.172   5.356  18.570  0.00  0.00    +0.000 A 
BRANCH   5   8
ATOM      8  C   UNL     1      47.701   8.248  21.021  0.00  0.00    +0.000 C 
BRANCH   8   9
ATOM      9  N   UNL     1      46.948   9.477  20.770  0.00  0.00    +0.000 NA
ATOM     10  H   UNL     1      46.101   9.460  21.339  0.00  0.00    +0.000 HD
BRANCH   9  11
ATOM     11  C   UNL     1      47.711  10.677  21.139  0.00  0.00    +0.000 C 
BRANCH  11  12
ATOM     12  C   UNL     1      48.182  11.398  19.863  0.00  0.00    +0.000 C 
ATOM     13  C   UNL     1      47.393  11.023  18.620  0.00  0.00    +0.000 C 
ATOM     14  C   UNL     1      48.296  11.516  17.503  0.00  0.00    +0.000 C 
ATOM     15  C   UNL     1      49.707  11.415  18.071  0.00  0.00    +0.000 C 
ATOM     16  N   UNL     1      49.559  11.039  19.480  0.00  0.00    +0.000 NA
ATOM     17  H   UNL     1      50.218  11.559  20.059  0.00  0.00    +0.000 HD
ENDBRANCH  11  12
ENDBRANCH   9  11
ENDBRANCH   8   9
ENDBRANCH   5   8
ENDBRANCH   1   2
BRANCH   1  20
ATOM     18  O   UNL     1      48.698   6.174  13.896  0.00  0.00    +0.000 OA
ATOM     19  C   UNL     1      47.565   5.772  14.137  0.00  0.00    +0.000 C 
ATOM     20  N   UNL     1      47.254   5.106  15.295  0.00  0.00    +0.000 N 
ATOM     21  H   UNL     1      46.316   4.734  15.424  0.00  0.00    +0.000 HD
BRANCH  19  22
ATOM     22  C   UNL     1      46.470   5.975  13.183  0.00  0.00    +0.000 A 
ATOM     23  C   UNL     1      46.119   7.261  12.797  0.00  0.00    +0.000 A 
ATOM     24  S   UNL     1      44.869   7.305  11.638  0.00  0.00    +0.000 S 
ATOM     25  C   UNL     1      44.785   5.606  11.583  0.00  0.00    +0.000 A 
ATOM     26  N   UNL     1      43.935   4.975  10.730  0.00  0.00    +0.000 NA
ATOM     27  C   UNL     1      44.010   3.685  10.760  0.00  0.00    +0.000 A 
ATOM     28  N   UNL     1      44.841   2.969  11.582  0.00  0.00    +0.000 N 
ATOM     29  C   UNL     1      45.654   3.564  12.517  0.00  0.00    +0.000 A 
ATOM     30  O   UNL     1      46.280   2.899  13.337  0.00  0.00    +0.000 OA
ATOM     31  C   UNL     1      45.660   5.015  12.474  0.00  0.00    +0.000 A 
ATOM     32  H   UNL     1      44.819   1.960  11.584  0.00  0.00    +0.000 HD
ENDBRANCH  19  22
ENDBRANCH   1  20
BRANCH   1  33
ATOM     33  C   UNL     1      48.170   3.265  16.646  0.00  0.00    +0.000 C 
BRANCH  33  34
ATOM     34  O   UNL     1      48.322   2.461  15.472  0.00  0.00    +0.000 OA
ATOM     35  H   UNL     1      48.961   2.922  14.898  0.00  0.00    +0.000 HD
ENDBRANCH  33  34
ENDBRANCH   1  33
TORSDOF 9
ENDMDL
MODEL 8
REMARK VINA RESULT:    -6.668      2.406      3.556
REMARK INTER + INTRA:         -11.279
REMARK INTER:                  -9.782
REMARK INTRA:                  -1.497
REMARK UNBOUND:                -1.297
REMARK  Name = 
REMARK  9 active torsions:
REMARK  status: ('A' for Active; 'I' for Inactive)
REMARK    1  A    between atoms: C_2  and  C_21
REMARK    2  A    between atoms: N_3  and  CA_4
REMARK    3  A    between atoms: CA_4  and  C_5
REMARK    4  A    between atoms: CA_4  and  C_7
REMARK    5  A    between atoms: C_5  and  O_6
REMARK    6  A    between atoms: C_10  and  C_11
REMARK    7  A    between atoms: C_11  and  N_12
REMARK    8  A    between atoms: N_12  and  C_13
REMARK    9  A    between atoms: C_13  and  C_14
REMARK                            x       y       z     vdW  Elec       q    Type
REMARK                         _______ _______ _______ _____ _____    ______ ____
ROOT
ATOM      1  CA  UNL     1      48.282   6.845  13.312  0.00  0.00    +0.000 C 
ENDROOT
BRANCH   1   2
ATOM      2  C   UNL     1      47.018   6.201  12.775  0.00  0.00    +0.000 A 
ATOM      3  C   UNL     1      46.477   5.093  13.442  0.00  0.00    +0.000 A 
ATOM      4  C   UNL     1      45.320   4.462  12.973  0.00  0.00    +0.000 A 
ATOM      5  C   UNL     1      44.654   4.937  11.835  0.00  0.00    +0.000 A 
ATOM      6  C   UNL     1      45.193   6.044  11.165  0.00  0.00    +0.000 A 
ATOM      7  C   UNL     1      46.355   6.675  11.633  0.00  0.00    +0.000 A 
BRANCH   5   8
ATOM      8  C   UNL     1      43.425   4.239  11.283  0.00  0.00    +0.000 C 
BRANCH   8   9
ATOM      9  N   UNL     1      43.582   3.862   9.878  0.00  0.00    +0.000 NA
ATOM     10  H   UNL     1      44.047   4.627   9.388  0.00  0.00    +0.000 HD
BRANCH   9  11
ATOM     11  C   UNL     1      44.410   2.660   9.718  0.00  0.00    +0.000 C 
BRANCH  11  12
ATOM     12  C   UNL     1      45.074   2.676   8.330  0.00  0.00    +0.000 C 
ATOM     13  C   UNL     1      46.246   1.718   8.200  0.00  0.00    +0.000 C 
ATOM     14  C   UNL     1      46.944   2.228   6.950  0.00  0.00    +0.000 C 
ATOM     15  C   UNL     1      46.640   3.721   6.918  0.00  0.00    +0.000 C 
ATOM     16  N   UNL     1      45.693   3.974   8.008  0.00  0.00    +0.000 NA
ATOM     17  H   UNL     1      44.971   4.629   7.708  0.00  0.00    +0.000 HD
ENDBRANCH  11  12
ENDBRANCH   9  11
ENDBRANCH   8   9
ENDBRANCH   5   8
ENDBRANCH   1   2
BRANCH   1  20
ATOM     18  O   UNL     1      49.829   6.210  15.599  0.00  0.00    +0.000 OA
ATOM     19  C   UNL     1      48.888   6.987  15.722  0.00  0.00    +0.000 C 
ATOM     20  N   UNL     1      48.076   7.328  14.670  0.00  0.00    +0.000 N 
ATOM     21  H   UNL     1      47.349   8.026  14.804  0.00  0.00    +0.000 HD
BRANCH  19  22
ATOM     22  C   UNL     1      48.583   7.608  17.014  0.00  0.00    +0.000 A 
ATOM     23  C   UNL     1      48.366   6.812  18.130  0.00  0.00    +0.000 A 
ATOM     24  S   UNL     1      48.086   7.703  19.557  0.00  0.00    +0.000 S 
ATOM     25  C   UNL     1      48.286   9.182  18.738  0.00  0.00    +0.000 A 
ATOM     26  N   UNL     1      48.226  10.365  19.406  0.00  0.00    +0.000 NA
ATOM     27  C   UNL     1      48.445  11.404  18.669  0.00  0.00    +0.000 A 
ATOM     28  N   UNL     1      48.694  11.369  17.321  0.00  0.00    +0.000 N 
ATOM     29  C   UNL     1      48.680  10.203  16.594  0.00  0.00    +0.000 A 
ATOM     30  O   UNL     1      48.764  10.212  15.369  0.00  0.00    +0.000 OA
ATOM     31  C   UNL     1      48.512   9.000  17.387  0.00  0.00    +0.000 A 
ATOM     32  H   UNL     1      48.814  12.224  16.798  0.00  0.00    +0.000 HD
ENDBRANCH  19  22
ENDBRANCH   1  20
BRANCH   1  33
ATOM     33  C   UNL     1      48.809   7.989  12.416  0.00  0.00    +0.000 C 
BRANCH  33  34
ATOM     34  O   UNL     1      49.912   8.668  13.025  0.00  0.00    +0.000 OA
ATOM     35  H   UNL     1      50.722   8.314  12.612  0.00  0.00    +0.000 HD
ENDBRANCH  33  34
ENDBRANCH   1  33
TORSDOF 9
ENDMDL
MODEL 9
REMARK VINA RESULT:    -6.626      3.967      5.439
REMARK INTER + INTRA:         -11.215
REMARK INTER:                 -10.125
REMARK INTRA:                  -1.089
REMARK UNBOUND:                -1.297
REMARK  Name = 
REMARK  9 active torsions:
REMARK  status: ('A' for Active; 'I' for Inactive)
REMARK    1  A    between atoms: C_2  and  C_21
REMARK    2  A    between atoms: N_3  and  CA_4
REMARK    3  A    between atoms: CA_4  and  C_5
REMARK    4  A    between atoms: CA_4  and  C_7
REMARK    5  A    between atoms: C_5  and  O_6
REMARK    6  A    between atoms: C_10  and  C_11
REMARK    7  A    between atoms: C_11  and  N_12
REMARK    8  A    between atoms: N_12  and  C_13
REMARK    9  A    between atoms: C_13  and  C_14
REMARK                            x       y       z     vdW  Elec       q    Type
REMARK                         _______ _______ _______ _____ _____    ______ ____
ROOT
ATOM      1  CA  UNL     1      48.313   7.035  13.514  0.00  0.00    +0.000 C 
ENDROOT
BRANCH   1   2
ATOM      2  C   UNL     1      47.235   6.271  12.769  0.00  0.00    +0.000 A 
ATOM      3  C   UNL     1      46.641   5.156  13.377  0.00  0.00    +0.000 A 
ATOM      4  C   UNL     1      45.653   4.416  12.719  0.00  0.00    +0.000 A 
ATOM      5  C   UNL     1      45.210   4.785  11.441  0.00  0.00    +0.000 A 
ATOM      6  C   UNL     1      45.802   5.899  10.830  0.00  0.00    +0.000 A 
ATOM      7  C   UNL     1      46.797   6.638  11.487  0.00  0.00    +0.000 A 
BRANCH   5   8
ATOM      8  C   UNL     1      44.172   3.969  10.693  0.00  0.00    +0.000 C 
BRANCH   8   9
ATOM      9  N   UNL     1      44.522   2.549  10.628  0.00  0.00    +0.000 NA
ATOM     10  H   UNL     1      43.830   2.020  11.159  0.00  0.00    +0.000 HD
BRANCH   9  11
ATOM     11  C   UNL     1      44.512   2.042   9.250  0.00  0.00    +0.000 C 
BRANCH  11  12
ATOM     12  C   UNL     1      45.917   2.189   8.639  0.00  0.00    +0.000 C 
ATOM     13  C   UNL     1      45.980   3.161   7.473  0.00  0.00    +0.000 C 
ATOM     14  C   UNL     1      47.306   2.802   6.824  0.00  0.00    +0.000 C 
ATOM     15  C   UNL     1      47.498   1.321   7.127  0.00  0.00    +0.000 C 
ATOM     16  N   UNL     1      46.410   0.939   8.031  0.00  0.00    +0.000 NA
ATOM     17  H   UNL     1      46.755   0.320   8.764  0.00  0.00    +0.000 HD
ENDBRANCH  11  12
ENDBRANCH   9  11
ENDBRANCH   8   9
ENDBRANCH   5   8
ENDBRANCH   1   2
BRANCH   1  20
ATOM     18  O   UNL     1      49.571   9.254  12.282  0.00  0.00    +0.000 OA
ATOM     19  C   UNL     1      50.114   8.156  12.213  0.00  0.00    +0.000 C 
ATOM     20  N   UNL     1      49.561   7.028  12.763  0.00  0.00    +0.000 N 
ATOM     21  H   UNL     1      50.077   6.153  12.739  0.00  0.00    +0.000 HD
BRANCH  19  22
ATOM     22  C   UNL     1      51.407   7.992  11.541  0.00  0.00    +0.000 A 
ATOM     23  C   UNL     1      51.475   7.322  10.328  0.00  0.00    +0.000 A 
ATOM     24  S   UNL     1      53.045   7.279   9.662  0.00  0.00    +0.000 S 
ATOM     25  C   UNL     1      53.677   8.191  10.953  0.00  0.00    +0.000 A 
ATOM     26  N   UNL     1      54.985   8.562  10.974  0.00  0.00    +0.000 NA
ATOM     27  C   UNL     1      55.316   9.291  11.988  0.00  0.00    +0.000 A 
ATOM     28  N   UNL     1      54.464   9.663  12.996  0.00  0.00    +0.000 N 
ATOM     29  C   UNL     1      53.158   9.240  13.058  0.00  0.00    +0.000 A 
ATOM     30  O   UNL     1      52.458   9.467  14.040  0.00  0.00    +0.000 OA
ATOM     31  C   UNL     1      52.716   8.479  11.904  0.00  0.00    +0.000 A 
ATOM     32  H   UNL     1      54.800  10.199  13.782  0.00  0.00    +0.000 HD
ENDBRANCH  19  22
ENDBRANCH   1  20
BRANCH   1  33
ATOM     33  C   UNL     1      48.553   6.506  14.946  0.00  0.00    +0.000 C 
BRANCH  33  34
ATOM     34  O   UNL     1      48.208   7.483  15.932  0.00  0.00    +0.000 OA
ATOM     35  H   UNL     1      47.785   7.004  16.667  0.00  0.00    +0.000 HD
ENDBRANCH  33  34
ENDBRANCH   1  33
TORSDOF 9
ENDMDL
