MODEL 1
REMARK VINA RESULT:    -8.468      0.000      0.000
REMARK INTER + INTRA:         -14.081
REMARK INTER:                 -12.923
REMARK INTRA:                  -1.158
REMARK UNBOUND:                -1.158
REMARK  Name = 
REMARK  12 active torsions:
REMARK  status: ('A' for Active; 'I' for Inactive)
REMARK    1  A    between atoms: C_1  and  C_2
REMARK    2  A    between atoms: C_2  and  C_3
REMARK    3  A    between atoms: C_2  and  C_4
REMARK    4  A    between atoms: C_2  and  O_5
REMARK    5  A    between atoms: O_5  and  C_6
REMARK    6  A    between atoms: C_6  and  C_7
REMARK    7  A    between atoms: C_7  and  N_8
REMARK    8  A    between atoms: N_8  and  C_9
REMARK    9  A    between atoms: C_9  and  C_10
REMARK   10  A    between atoms: C_14  and  C_15
REMARK   11  A    between atoms: C_15  and  N_16
REMARK   12  A    between atoms: C_21  and  C_22
REMARK                            x       y       z     vdW  Elec       q    Type
REMARK                         _______ _______ _______ _____ _____    ______ ____
ROOT
ATOM      1  C   UNL     1      46.933   5.277  13.940  0.00  0.00    +0.000 A 
ATOM      2  C   UNL     1      48.016   5.962  13.373  0.00  0.00    +0.000 A 
ATOM      3  C   UNL     1      47.870   6.651  12.168  0.00  0.00    +0.000 A 
ATOM      4  C   UNL     1      46.646   6.646  11.502  0.00  0.00    +0.000 A 
ATOM      5  C   UNL     1      45.554   5.950  12.034  0.00  0.00    +0.000 A 
ATOM      6  C   UNL     1      45.697   5.303  13.275  0.00  0.00    +0.000 A 
ENDROOT
BRANCH   1   7
ATOM      7  C   UNL     1      47.104   4.478  15.215  0.00  0.00    +0.000 C 
BRANCH   7   8
ATOM      8  N   UNL     1      47.621   3.120  15.007  0.00  0.00    +0.000 NA
ATOM      9  H   UNL     1      46.828   2.508  14.806  0.00  0.00    +0.000 HD
BRANCH   8  10
ATOM     10  C   UNL     1      48.294   2.557  16.187  0.00  0.00    +0.000 C 
BRANCH  10  11
ATOM     11  C   UNL     1      48.810   3.569  17.213  0.00  0.00    +0.000 C 
BRANCH  11  12
ATOM     12  O   UNL     1      50.196   3.824  16.987  0.00  0.00    +0.000 OA
BRANCH  12  14
ATOM     13  C   UNL     1      50.057   6.243  16.668  0.00  0.00    +0.000 C 
ATOM     14  C   UNL     1      50.683   5.089  17.464  0.00  0.00    +0.000 C 
ATOM     15  C   UNL     1      52.214   5.162  17.439  0.00  0.00    +0.000 C 
ATOM     16  C   UNL     1      50.208   5.191  18.920  0.00  0.00    +0.000 C 
ENDBRANCH  12  14
ENDBRANCH  11  12
ENDBRANCH  10  11
ENDBRANCH   8  10
ENDBRANCH   7   8
ENDBRANCH   1   7
BRANCH   5  17
ATOM     17  C   UNL     1      44.269   5.843  11.254  0.00  0.00    +0.000 C 
BRANCH  17  18
ATOM     18  N   UNL     1      44.046   4.549  10.607  0.00  0.00    +0.000 N 
ATOM     19  C   UNL     1      43.343   3.547  11.235  0.00  0.00    +0.000 A 
ATOM     20  N   UNL     1      43.620   2.370  10.731  0.00  0.00    +0.000 NA
ATOM     21  C   UNL     1      44.482   2.624   9.698  0.00  0.00    +0.000 A 
ATOM     22  C   UNL     1      45.222   1.719   8.936  0.00  0.00    +0.000 A 
ATOM     23  C   UNL     1      46.100   2.227   7.975  0.00  0.00    +0.000 A 
ATOM     24  C   UNL     1      46.077   3.583   7.632  0.00  0.00    +0.000 A 
ATOM     25  C   UNL     1      45.341   4.508   8.388  0.00  0.00    +0.000 A 
ATOM     26  C   UNL     1      44.631   3.999   9.487  0.00  0.00    +0.000 A 
BRANCH  23  27
ATOM     27  C   UNL     1      47.165   1.364   7.404  0.00  0.00    +0.000 C 
ATOM     28  N   UNL     1      48.206   2.019   6.802  0.00  0.00    +0.000 N 
ATOM     29  O   UNL     1      47.071   0.144   7.377  0.00  0.00    +0.000 OA
ATOM     30  H   UNL     1      48.132   2.994   6.541  0.00  0.00    +0.000 HD
ATOM     31  H   UNL     1      48.834   1.450   6.246  0.00  0.00    +0.000 HD
ENDBRANCH  23  27
ENDBRANCH  17  18
ENDBRANCH   5  17
TORSDOF 9
ENDMDL
MODEL 2
REMARK VINA RESULT:    -7.903      1.364      2.289
REMARK INTER + INTRA:         -13.219
REMARK INTER:                 -12.448
REMARK INTRA:                  -0.771
REMARK UNBOUND:                -1.158
REMARK  Name = 
REMARK  12 active torsions:
REMARK  status: ('A' for Active; 'I' for Inactive)
REMARK    1  A    between atoms: C_1  and  C_2
REMARK    2  A    between atoms: C_2  and  C_3
REMARK    3  A    between atoms: C_2  and  C_4
REMARK    4  A    between atoms: C_2  and  O_5
REMARK    5  A    between atoms: O_5  and  C_6
REMARK    6  A    between atoms: C_6  and  C_7
REMARK    7  A    between atoms: C_7  and  N_8
REMARK    8  A    between atoms: N_8  and  C_9
REMARK    9  A    between atoms: C_9  and  C_10
REMARK   10  A    between atoms: C_14  and  C_15
REMARK   11  A    between atoms: C_15  and  N_16
REMARK   12  A    between atoms: C_21  and  C_22
REMARK                            x       y       z     vdW  Elec       q    Type
REMARK                         _______ _______ _______ _____ _____    ______ ____
ROOT
ATOM      1  C   UNL     1      47.881   6.441  13.494  0.00  0.00    +0.000 A 
ATOM      2  C   UNL     1      47.699   5.415  14.431  0.00  0.00    +0.000 A 
ATOM      3  C   UNL     1      46.637   4.518  14.306  0.00  0.00    +0.000 A 
ATOM      4  C   UNL     1      45.730   4.647  13.255  0.00  0.00    +0.000 A 
ATOM      5  C   UNL     1      45.875   5.678  12.319  0.00  0.00    +0.000 A 
ATOM      6  C   UNL     1      46.977   6.545  12.424  0.00  0.00    +0.000 A 
ENDROOT
BRANCH   1   7
ATOM      7  C   UNL     1      48.995   7.454  13.661  0.00  0.00    +0.000 C 
BRANCH   7   8
ATOM      8  N   UNL     1      50.126   6.975  14.464  0.00  0.00    +0.000 NA
ATOM      9  H   UNL     1      50.050   5.959  14.542  0.00  0.00    +0.000 HD
BRANCH   8  10
ATOM     10  C   UNL     1      50.139   7.500  15.838  0.00  0.00    +0.000 C 
BRANCH  10  11
ATOM     11  C   UNL     1      50.619   6.532  16.922  0.00  0.00    +0.000 C 
BRANCH  11  12
ATOM     12  O   UNL     1      50.231   5.200  16.589  0.00  0.00    +0.000 OA
BRANCH  12  14
ATOM     13  C   UNL     1      49.733   2.926  17.333  0.00  0.00    +0.000 C 
ATOM     14  C   UNL     1      49.679   4.424  17.664  0.00  0.00    +0.000 C 
ATOM     15  C   UNL     1      48.254   4.864  18.019  0.00  0.00    +0.000 C 
ATOM     16  C   UNL     1      50.591   4.686  18.871  0.00  0.00    +0.000 C 
ENDBRANCH  12  14
ENDBRANCH  11  12
ENDBRANCH  10  11
ENDBRANCH   8  10
ENDBRANCH   7   8
ENDBRANCH   1   7
BRANCH   5  17
ATOM     17  C   UNL     1      44.827   5.891  11.258  0.00  0.00    +0.000 C 
BRANCH  17  18
ATOM     18  N   UNL     1      44.409   4.679  10.551  0.00  0.00    +0.000 N 
ATOM     19  C   UNL     1      43.499   3.808  11.102  0.00  0.00    +0.000 A 
ATOM     20  N   UNL     1      43.585   2.614  10.569  0.00  0.00    +0.000 NA
ATOM     21  C   UNL     1      44.538   2.733   9.594  0.00  0.00    +0.000 A 
ATOM     22  C   UNL     1      45.143   1.728   8.838  0.00  0.00    +0.000 A 
ATOM     23  C   UNL     1      46.154   2.092   7.944  0.00  0.00    +0.000 A 
ATOM     24  C   UNL     1      46.400   3.438   7.652  0.00  0.00    +0.000 A 
ATOM     25  C   UNL     1      45.802   4.461   8.403  0.00  0.00    +0.000 A 
ATOM     26  C   UNL     1      44.948   4.062   9.443  0.00  0.00    +0.000 A 
BRANCH  23  27
ATOM     27  C   UNL     1      47.074   1.063   7.397  0.00  0.00    +0.000 C 
ATOM     28  N   UNL     1      46.780  -0.235   7.721  0.00  0.00    +0.000 N 
ATOM     29  O   UNL     1      48.091   1.357   6.784  0.00  0.00    +0.000 OA
ATOM     30  H   UNL     1      46.144  -0.456   8.476  0.00  0.00    +0.000 HD
ATOM     31  H   UNL     1      47.497  -0.922   7.520  0.00  0.00    +0.000 HD
ENDBRANCH  23  27
ENDBRANCH  17  18
ENDBRANCH   5  17
TORSDOF 9
ENDMDL
MODEL 3
REMARK VINA RESULT:    -7.379      1.783      2.651
REMARK INTER + INTRA:         -12.419
REMARK INTER:                 -11.424
REMARK INTRA:                  -0.996
REMARK UNBOUND:                -1.158
REMARK  Name = 
REMARK  12 active torsions:
REMARK  status: ('A' for Active; 'I' for Inactive)
REMARK    1  A    between atoms: C_1  and  C_2
REMARK    2  A    between atoms: C_2  and  C_3
REMARK    3  A    between atoms: C_2  and  C_4
REMARK    4  A    between atoms: C_2  and  O_5
REMARK    5  A    between atoms: O_5  and  C_6
REMARK    6  A    between atoms: C_6  and  C_7
REMARK    7  A    between atoms: C_7  and  N_8
REMARK    8  A    between atoms: N_8  and  C_9
REMARK    9  A    between atoms: C_9  and  C_10
REMARK   10  A    between atoms: C_14  and  C_15
REMARK   11  A    between atoms: C_15  and  N_16
REMARK   12  A    between atoms: C_21  and  C_22
REMARK                            x       y       z     vdW  Elec       q    Type
REMARK                         _______ _______ _______ _____ _____    ______ ____
ROOT
ATOM      1  C   UNL     1      47.694   7.432  12.724  0.00  0.00    +0.000 A 
ATOM      2  C   UNL     1      46.952   8.537  12.287  0.00  0.00    +0.000 A 
ATOM      3  C   UNL     1      45.559   8.476  12.218  0.00  0.00    +0.000 A 
ATOM      4  C   UNL     1      44.890   7.303  12.563  0.00  0.00    +0.000 A 
ATOM      5  C   UNL     1      45.610   6.177  12.981  0.00  0.00    +0.000 A 
ATOM      6  C   UNL     1      47.008   6.265  13.097  0.00  0.00    +0.000 A 
ENDROOT
BRANCH   1   7
ATOM      7  C   UNL     1      49.208   7.473  12.741  0.00  0.00    +0.000 C 
BRANCH   7   8
ATOM      8  N   UNL     1      49.812   6.847  13.923  0.00  0.00    +0.000 NA
ATOM      9  H   UNL     1      49.344   5.953  14.081  0.00  0.00    +0.000 HD
BRANCH   8  10
ATOM     10  C   UNL     1      49.645   7.630  15.156  0.00  0.00    +0.000 C 
BRANCH  10  11
ATOM     11  C   UNL     1      49.503   6.823  16.450  0.00  0.00    +0.000 C 
BRANCH  11  12
ATOM     12  O   UNL     1      49.395   5.434  16.144  0.00  0.00    +0.000 OA
BRANCH  12  14
ATOM     13  C   UNL     1      47.330   4.130  16.059  0.00  0.00    +0.000 C 
ATOM     14  C   UNL     1      48.455   4.692  16.939  0.00  0.00    +0.000 C 
ATOM     15  C   UNL     1      47.893   5.528  18.095  0.00  0.00    +0.000 C 
ATOM     16  C   UNL     1      49.248   3.514  17.522  0.00  0.00    +0.000 C 
ENDBRANCH  12  14
ENDBRANCH  11  12
ENDBRANCH  10  11
ENDBRANCH   8  10
ENDBRANCH   7   8
ENDBRANCH   1   7
BRANCH   5  17
ATOM     17  C   UNL     1      44.896   4.873  13.235  0.00  0.00    +0.000 C 
BRANCH  17  18
ATOM     18  N   UNL     1      44.308   4.250  12.049  0.00  0.00    +0.000 N 
ATOM     19  C   UNL     1      43.381   3.240  12.157  0.00  0.00    +0.000 A 
ATOM     20  N   UNL     1      43.311   2.526  11.060  0.00  0.00    +0.000 NA
ATOM     21  C   UNL     1      44.174   3.135  10.189  0.00  0.00    +0.000 A 
ATOM     22  C   UNL     1      44.613   2.689   8.942  0.00  0.00    +0.000 A 
ATOM     23  C   UNL     1      45.563   3.457   8.263  0.00  0.00    +0.000 A 
ATOM     24  C   UNL     1      45.898   4.739   8.711  0.00  0.00    +0.000 A 
ATOM     25  C   UNL     1      45.467   5.203   9.963  0.00  0.00    +0.000 A 
ATOM     26  C   UNL     1      44.683   4.322  10.725  0.00  0.00    +0.000 A 
BRANCH  23  27
ATOM     27  C   UNL     1      46.333   2.870   7.137  0.00  0.00    +0.000 C 
ATOM     28  N   UNL     1      46.883   1.637   7.369  0.00  0.00    +0.000 N 
ATOM     29  O   UNL     1      46.554   3.489   6.106  0.00  0.00    +0.000 OA
ATOM     30  H   UNL     1      46.976   1.271   8.307  0.00  0.00    +0.000 HD
ATOM     31  H   UNL     1      47.563   1.314   6.689  0.00  0.00    +0.000 HD
ENDBRANCH  23  27
ENDBRANCH  17  18
ENDBRANCH   5  17
TORSDOF 9
ENDMDL
MODEL 4
REMARK VINA RESULT:    -6.304      3.584      5.083
REMARK INTER + INTRA:         -10.779
REMARK INTER:                  -9.983
REMARK INTRA:                  -0.796
REMARK UNBOUND:                -1.158
REMARK  Name = 
REMARK  12 active torsions:
REMARK  status: ('A' for Active; 'I' for Inactive)
REMARK    1  A    between atoms: C_1  and  C_2
REMARK    2  A    between atoms: C_2  and  C_3
REMARK    3  A    between atoms: C_2  and  C_4
REMARK    4  A    between atoms: C_2  and  O_5
REMARK    5  A    between atoms: O_5  and  C_6
REMARK    6  A    between atoms: C_6  and  C_7
REMARK    7  A    between atoms: C_7  and  N_8
REMARK    8  A    between atoms: N_8  and  C_9
REMARK    9  A    between atoms: C_9  and  C_10
REMARK   10  A    between atoms: C_14  and  C_15
REMARK   11  A    between atoms: C_15  and  N_16
REMARK   12  A    between atoms: C_21  and  C_22
REMARK                            x       y       z     vdW  Elec       q    Type
REMARK                         _______ _______ _______ _____ _____    ______ ____
ROOT
ATOM      1  C   UNL     1      47.900   7.408  12.428  0.00  0.00    +0.000 A 
ATOM      2  C   UNL     1      47.196   8.580  12.119  0.00  0.00    +0.000 A 
ATOM      3  C   UNL     1      45.805   8.623  12.222  0.00  0.00    +0.000 A 
ATOM      4  C   UNL     1      45.095   7.488  12.612  0.00  0.00    +0.000 A 
ATOM      5  C   UNL     1      45.772   6.297  12.903  0.00  0.00    +0.000 A 
ATOM      6  C   UNL     1      47.177   6.280  12.847  0.00  0.00    +0.000 A 
ENDROOT
BRANCH   1   7
ATOM      7  C   UNL     1      49.403   7.340  12.259  0.00  0.00    +0.000 C 
BRANCH   7   8
ATOM      8  N   UNL     1      50.061   8.650  12.208  0.00  0.00    +0.000 NA
ATOM      9  H   UNL     1      49.460   9.286  11.682  0.00  0.00    +0.000 HD
BRANCH   8  10
ATOM     10  C   UNL     1      51.358   8.633  11.515  0.00  0.00    +0.000 C 
BRANCH  10  11
ATOM     11  C   UNL     1      51.746   7.312  10.847  0.00  0.00    +0.000 C 
BRANCH  11  12
ATOM     12  O   UNL     1      51.590   7.420   9.432  0.00  0.00    +0.000 OA
BRANCH  12  14
ATOM     13  C   UNL     1      53.846   6.481   9.446  0.00  0.00    +0.000 C 
ATOM     14  C   UNL     1      52.792   7.272   8.659  0.00  0.00    +0.000 C 
ATOM     15  C   UNL     1      53.344   8.623   8.191  0.00  0.00    +0.000 C 
ATOM     16  C   UNL     1      52.390   6.449   7.427  0.00  0.00    +0.000 C 
ENDBRANCH  12  14
ENDBRANCH  11  12
ENDBRANCH  10  11
ENDBRANCH   8  10
ENDBRANCH   7   8
ENDBRANCH   1   7
BRANCH   5  17
ATOM     17  C   UNL     1      44.997   5.040  13.204  0.00  0.00    +0.000 C 
BRANCH  17  18
ATOM     18  N   UNL     1      44.405   4.385  12.037  0.00  0.00    +0.000 N 
ATOM     19  C   UNL     1      43.465   3.391  12.174  0.00  0.00    +0.000 A 
ATOM     20  N   UNL     1      43.390   2.642  11.101  0.00  0.00    +0.000 NA
ATOM     21  C   UNL     1      44.263   3.211  10.214  0.00  0.00    +0.000 A 
ATOM     22  C   UNL     1      44.701   2.718   8.984  0.00  0.00    +0.000 A 
ATOM     23  C   UNL     1      45.663   3.452   8.284  0.00  0.00    +0.000 A 
ATOM     24  C   UNL     1      46.012   4.744   8.691  0.00  0.00    +0.000 A 
ATOM     25  C   UNL     1      45.583   5.254   9.925  0.00  0.00    +0.000 A 
ATOM     26  C   UNL     1      44.786   4.409  10.712  0.00  0.00    +0.000 A 
BRANCH  23  27
ATOM     27  C   UNL     1      46.429   2.818   7.181  0.00  0.00    +0.000 C 
ATOM     28  N   UNL     1      46.747   3.635   6.129  0.00  0.00    +0.000 N 
ATOM     29  O   UNL     1      46.672   1.620   7.160  0.00  0.00    +0.000 OA
ATOM     30  H   UNL     1      46.281   4.523   5.994  0.00  0.00    +0.000 HD
ATOM     31  H   UNL     1      47.096   3.178   5.294  0.00  0.00    +0.000 HD
ENDBRANCH  23  27
ENDBRANCH  17  18
ENDBRANCH   5  17
TORSDOF 9
ENDMDL
MODEL 5
REMARK VINA RESULT:    -6.258      2.604      3.312
REMARK INTER + INTRA:         -10.709
REMARK INTER:                 -10.027
REMARK INTRA:                  -0.682
REMARK UNBOUND:                -1.158
REMARK  Name = 
REMARK  12 active torsions:
REMARK  status: ('A' for Active; 'I' for Inactive)
REMARK    1  A    between atoms: C_1  and  C_2
REMARK    2  A    between atoms: C_2  and  C_3
REMARK    3  A    between atoms: C_2  and  C_4
REMARK    4  A    between atoms: C_2  and  O_5
REMARK    5  A    between atoms: O_5  and  C_6
REMARK    6  A    between atoms: C_6  and  C_7
REMARK    7  A    between atoms: C_7  and  N_8
REMARK    8  A    between atoms: N_8  and  C_9
REMARK    9  A    between atoms: C_9  and  C_10
REMARK   10  A    between atoms: C_14  and  C_15
REMARK   11  A    between atoms: C_15  and  N_16
REMARK   12  A    between atoms: C_21  and  C_22
REMARK                            x       y       z     vdW  Elec       q    Type
REMARK                         _______ _______ _______ _____ _____    ______ ____
ROOT
ATOM      1  C   UNL     1      47.719   7.574  12.364  0.00  0.00    +0.000 A 
ATOM      2  C   UNL     1      46.972   8.720  12.065  0.00  0.00    +0.000 A 
ATOM      3  C   UNL     1      45.580   8.711  12.175  0.00  0.00    +0.000 A 
ATOM      4  C   UNL     1      44.915   7.550  12.564  0.00  0.00    +0.000 A 
ATOM      5  C   UNL     1      45.636   6.383  12.845  0.00  0.00    +0.000 A 
ATOM      6  C   UNL     1      47.041   6.417  12.782  0.00  0.00    +0.000 A 
ENDROOT
BRANCH   1   7
ATOM      7  C   UNL     1      49.223   7.561  12.186  0.00  0.00    +0.000 C 
BRANCH   7   8
ATOM      8  N   UNL     1      49.961   7.059  13.351  0.00  0.00    +0.000 NA
ATOM      9  H   UNL     1      49.558   6.158  13.616  0.00  0.00    +0.000 HD
BRANCH   8  10
ATOM     10  C   UNL     1      49.858   7.926  14.534  0.00  0.00    +0.000 C 
BRANCH  10  11
ATOM     11  C   UNL     1      51.145   8.124  15.337  0.00  0.00    +0.000 C 
BRANCH  11  12
ATOM     12  O   UNL     1      52.278   7.959  14.485  0.00  0.00    +0.000 OA
BRANCH  12  14
ATOM     13  C   UNL     1      53.598   6.525  15.959  0.00  0.00    +0.000 C 
ATOM     14  C   UNL     1      53.545   7.827  15.149  0.00  0.00    +0.000 C 
ATOM     15  C   UNL     1      53.862   9.043  16.028  0.00  0.00    +0.000 C 
ATOM     16  C   UNL     1      54.591   7.743  14.028  0.00  0.00    +0.000 C 
ENDBRANCH  12  14
ENDBRANCH  11  12
ENDBRANCH  10  11
ENDBRANCH   8  10
ENDBRANCH   7   8
ENDBRANCH   1   7
BRANCH   5  17
ATOM     17  C   UNL     1      44.910   5.097  13.145  0.00  0.00    +0.000 C 
BRANCH  17  18
ATOM     18  N   UNL     1      44.341   4.422  11.978  0.00  0.00    +0.000 N 
ATOM     19  C   UNL     1      43.404   3.426  12.113  0.00  0.00    +0.000 A 
ATOM     20  N   UNL     1      43.351   2.662  11.049  0.00  0.00    +0.000 NA
ATOM     21  C   UNL     1      44.237   3.222  10.170  0.00  0.00    +0.000 A 
ATOM     22  C   UNL     1      44.698   2.714   8.955  0.00  0.00    +0.000 A 
ATOM     23  C   UNL     1      45.669   3.442   8.261  0.00  0.00    +0.000 A 
ATOM     24  C   UNL     1      46.005   4.741   8.655  0.00  0.00    +0.000 A 
ATOM     25  C   UNL     1      45.552   5.267   9.874  0.00  0.00    +0.000 A 
ATOM     26  C   UNL     1      44.745   4.429  10.659  0.00  0.00    +0.000 A 
BRANCH  23  27
ATOM     27  C   UNL     1      46.457   2.797   7.180  0.00  0.00    +0.000 C 
ATOM     28  N   UNL     1      46.777   3.596   6.115  0.00  0.00    +0.000 N 
ATOM     29  O   UNL     1      46.716   1.601   7.187  0.00  0.00    +0.000 OA
ATOM     30  H   UNL     1      46.300   4.474   5.956  0.00  0.00    +0.000 HD
ATOM     31  H   UNL     1      47.142   3.126   5.294  0.00  0.00    +0.000 HD
ENDBRANCH  23  27
ENDBRANCH  17  18
ENDBRANCH   5  17
TORSDOF 9
ENDMDL
MODEL 6
REMARK VINA RESULT:    -6.137      2.149      3.567
REMARK INTER + INTRA:         -10.524
REMARK INTER:                  -9.445
REMARK INTRA:                  -1.080
REMARK UNBOUND:                -1.158
REMARK  Name = 
REMARK  12 active torsions:
REMARK  status: ('A' for Active; 'I' for Inactive)
REMARK    1  A    between atoms: C_1  and  C_2
REMARK    2  A    between atoms: C_2  and  C_3
REMARK    3  A    between atoms: C_2  and  C_4
REMARK    4  A    between atoms: C_2  and  O_5
REMARK    5  A    between atoms: O_5  and  C_6
REMARK    6  A    between atoms: C_6  and  C_7
REMARK    7  A    between atoms: C_7  and  N_8
REMARK    8  A    between atoms: N_8  and  C_9
REMARK    9  A    between atoms: C_9  and  C_10
REMARK   10  A    between atoms: C_14  and  C_15
REMARK   11  A    between atoms: C_15  and  N_16
REMARK   12  A    between atoms: C_21  and  C_22
REMARK                            x       y       z     vdW  Elec       q    Type
REMARK                         _______ _______ _______ _____ _____    ______ ____
ROOT
ATOM      1  C   UNL     1      49.743   8.057  14.160  0.00  0.00    +0.000 A 
ATOM      2  C   UNL     1      50.365   7.933  12.911  0.00  0.00    +0.000 A 
ATOM      3  C   UNL     1      49.609   7.722  11.757  0.00  0.00    +0.000 A 
ATOM      4  C   UNL     1      48.222   7.610  11.838  0.00  0.00    +0.000 A 
ATOM      5  C   UNL     1      47.577   7.706  13.078  0.00  0.00    +0.000 A 
ATOM      6  C   UNL     1      48.343   7.971  14.227  0.00  0.00    +0.000 A 
ENDROOT
BRANCH   1   7
ATOM      7  C   UNL     1      50.564   8.224  15.422  0.00  0.00    +0.000 C 
BRANCH   7   8
ATOM      8  N   UNL     1      49.775   8.202  16.659  0.00  0.00    +0.000 NA
ATOM      9  H   UNL     1      50.119   8.947  17.266  0.00  0.00    +0.000 HD
BRANCH   8  10
ATOM     10  C   UNL     1      49.905   6.950  17.420  0.00  0.00    +0.000 C 
BRANCH  10  11
ATOM     11  C   UNL     1      48.866   5.868  17.115  0.00  0.00    +0.000 C 
BRANCH  11  12
ATOM     12  O   UNL     1      49.523   4.634  16.825  0.00  0.00    +0.000 OA
BRANCH  12  14
ATOM     13  C   UNL     1      49.810   2.228  17.140  0.00  0.00    +0.000 C 
ATOM     14  C   UNL     1      48.952   3.466  17.435  0.00  0.00    +0.000 C 
ATOM     15  C   UNL     1      47.495   3.248  17.009  0.00  0.00    +0.000 C 
ATOM     16  C   UNL     1      48.988   3.731  18.947  0.00  0.00    +0.000 C 
ENDBRANCH  12  14
ENDBRANCH  11  12
ENDBRANCH  10  11
ENDBRANCH   8  10
ENDBRANCH   7   8
ENDBRANCH   1   7
BRANCH   5  17
ATOM     17  C   UNL     1      46.093   7.462  13.181  0.00  0.00    +0.000 C 
BRANCH  17  18
ATOM     18  N   UNL     1      45.692   6.057  13.104  0.00  0.00    +0.000 N 
ATOM     19  C   UNL     1      46.225   5.114  13.950  0.00  0.00    +0.000 A 
ATOM     20  N   UNL     1      46.105   3.903  13.464  0.00  0.00    +0.000 NA
ATOM     21  C   UNL     1      45.412   4.060  12.294  0.00  0.00    +0.000 A 
ATOM     22  C   UNL     1      45.163   3.119  11.295  0.00  0.00    +0.000 A 
ATOM     23  C   UNL     1      44.488   3.540  10.146  0.00  0.00    +0.000 A 
ATOM     24  C   UNL     1      43.887   4.801  10.092  0.00  0.00    +0.000 A 
ATOM     25  C   UNL     1      44.128   5.761  11.087  0.00  0.00    +0.000 A 
ATOM     26  C   UNL     1      44.988   5.382  12.130  0.00  0.00    +0.000 A 
BRANCH  23  27
ATOM     27  C   UNL     1      44.519   2.710   8.915  0.00  0.00    +0.000 C 
ATOM     28  N   UNL     1      44.486   1.354   9.108  0.00  0.00    +0.000 N 
ATOM     29  O   UNL     1      44.670   3.197   7.803  0.00  0.00    +0.000 OA
ATOM     30  H   UNL     1      44.685   0.948  10.013  0.00  0.00    +0.000 HD
ATOM     31  H   UNL     1      44.699   0.780   8.299  0.00  0.00    +0.000 HD
ENDBRANCH  23  27
ENDBRANCH  17  18
ENDBRANCH   5  17
TORSDOF 9
ENDMDL
MODEL 7
REMARK VINA RESULT:    -5.991      3.866      5.629
REMARK INTER + INTRA:         -10.301
REMARK INTER:                  -8.794
REMARK INTRA:                  -1.507
REMARK UNBOUND:                -1.158
REMARK  Name = 
REMARK  12 active torsions:
REMARK  status: ('A' for Active; 'I' for Inactive)
REMARK    1  A    between atoms: C_1  and  C_2
REMARK    2  A    between atoms: C_2  and  C_3
REMARK    3  A    between atoms: C_2  and  C_4
REMARK    4  A    between atoms: C_2  and  O_5
REMARK    5  A    between atoms: O_5  and  C_6
REMARK    6  A    between atoms: C_6  and  C_7
REMARK    7  A    between atoms: C_7  and  N_8
REMARK    8  A    between atoms: N_8  and  C_9
REMARK    9  A    between atoms: C_9  and  C_10
REMARK   10  A    between atoms: C_14  and  C_15
REMARK   11  A    between atoms: C_15  and  N_16
REMARK   12  A    between atoms: C_21  and  C_22
REMARK                            x       y       z     vdW  Elec       q    Type
REMARK                         _______ _______ _______ _____ _____    ______ ____
ROOT
ATOM      1  C   UNL     1      47.856   7.366  18.329  0.00  0.00    +0.000 A 
ATOM      2  C   UNL     1      47.709   8.620  18.938  0.00  0.00    +0.000 A 
ATOM      3  C   UNL     1      47.960   9.792  18.222  0.00  0.00    +0.000 A 
ATOM      4  C   UNL     1      48.383   9.726  16.895  0.00  0.00    +0.000 A 
ATOM      5  C   UNL     1      48.561   8.485  16.271  0.00  0.00    +0.000 A 
ATOM      6  C   UNL     1      48.255   7.313  16.984  0.00  0.00    +0.000 A 
ENDROOT
BRANCH   1   7
ATOM      7  C   UNL     1      47.645   6.092  19.120  0.00  0.00    +0.000 C 
BRANCH   7   8
ATOM      8  N   UNL     1      46.698   5.154  18.505  0.00  0.00    +0.000 NA
ATOM      9  H   UNL     1      46.210   4.660  19.254  0.00  0.00    +0.000 HD
BRANCH   8  10
ATOM     10  C   UNL     1      47.343   4.122  17.678  0.00  0.00    +0.000 C 
BRANCH  10  11
ATOM     11  C   UNL     1      48.687   3.595  18.187  0.00  0.00    +0.000 C 
BRANCH  11  12
ATOM     12  O   UNL     1      49.721   3.934  17.265  0.00  0.00    +0.000 OA
BRANCH  12  14
ATOM     13  C   UNL     1      52.005   3.162  17.665  0.00  0.00    +0.000 C 
ATOM     14  C   UNL     1      50.984   4.293  17.848  0.00  0.00    +0.000 C 
ATOM     15  C   UNL     1      50.845   4.683  19.325  0.00  0.00    +0.000 C 
ATOM     16  C   UNL     1      51.470   5.517  17.059  0.00  0.00    +0.000 C 
ENDBRANCH  12  14
ENDBRANCH  11  12
ENDBRANCH  10  11
ENDBRANCH   8  10
ENDBRANCH   7   8
ENDBRANCH   1   7
BRANCH   5  17
ATOM     17  C   UNL     1      49.135   8.413  14.879  0.00  0.00    +0.000 C 
BRANCH  17  18
ATOM     18  N   UNL     1      48.147   8.249  13.812  0.00  0.00    +0.000 N 
ATOM     19  C   UNL     1      47.621   9.334  13.151  0.00  0.00    +0.000 A 
ATOM     20  N   UNL     1      46.478   9.047  12.579  0.00  0.00    +0.000 NA
ATOM     21  C   UNL     1      46.288   7.714  12.822  0.00  0.00    +0.000 A 
ATOM     22  C   UNL     1      45.152   6.938  12.588  0.00  0.00    +0.000 A 
ATOM     23  C   UNL     1      45.172   5.600  12.992  0.00  0.00    +0.000 A 
ATOM     24  C   UNL     1      46.362   4.998  13.414  0.00  0.00    +0.000 A 
ATOM     25  C   UNL     1      47.513   5.763  13.656  0.00  0.00    +0.000 A 
ATOM     26  C   UNL     1      47.404   7.147  13.445  0.00  0.00    +0.000 A 
BRANCH  23  27
ATOM     27  C   UNL     1      43.904   4.837  13.114  0.00  0.00    +0.000 C 
ATOM     28  N   UNL     1      42.753   5.578  13.060  0.00  0.00    +0.000 N 
ATOM     29  O   UNL     1      43.885   3.637  13.352  0.00  0.00    +0.000 OA
ATOM     30  H   UNL     1      42.769   6.582  13.187  0.00  0.00    +0.000 HD
ATOM     31  H   UNL     1      41.900   5.103  13.331  0.00  0.00    +0.000 HD
ENDBRANCH  23  27
ENDBRANCH  17  18
ENDBRANCH   5  17
TORSDOF 9
ENDMDL
MODEL 8
REMARK VINA RESULT:    -5.765      3.232      5.404
REMARK INTER + INTRA:          -9.956
REMARK INTER:                  -8.245
REMARK INTRA:                  -1.711
REMARK UNBOUND:                -1.158
REMARK  Name = 
REMARK  12 active torsions:
REMARK  status: ('A' for Active; 'I' for Inactive)
REMARK    1  A    between atoms: C_1  and  C_2
REMARK    2  A    between atoms: C_2  and  C_3
REMARK    3  A    between atoms: C_2  and  C_4
REMARK    4  A    between atoms: C_2  and  O_5
REMARK    5  A    between atoms: O_5  and  C_6
REMARK    6  A    between atoms: C_6  and  C_7
REMARK    7  A    between atoms: C_7  and  N_8
REMARK    8  A    between atoms: N_8  and  C_9
REMARK    9  A    between atoms: C_9  and  C_10
REMARK   10  A    between atoms: C_14  and  C_15
REMARK   11  A    between atoms: C_15  and  N_16
REMARK   12  A    between atoms: C_21  and  C_22
REMARK                            x       y       z     vdW  Elec       q    Type
REMARK                         _______ _______ _______ _____ _____    ______ ____
ROOT
ATOM      1  C   UNL     1      49.793   4.753  17.367  0.00  0.00    +0.000 A 
ATOM      2  C   UNL     1      51.158   5.061  17.298  0.00  0.00    +0.000 A 
ATOM      3  C   UNL     1      51.600   6.179  16.587  0.00  0.00    +0.000 A 
ATOM      4  C   UNL     1      50.685   6.990  15.918  0.00  0.00    +0.000 A 
ATOM      5  C   UNL     1      49.317   6.690  15.951  0.00  0.00    +0.000 A 
ATOM      6  C   UNL     1      48.878   5.593  16.712  0.00  0.00    +0.000 A 
ENDROOT
BRANCH   1   7
ATOM      7  C   UNL     1      49.316   3.507  18.085  0.00  0.00    +0.000 C 
BRANCH   7   8
ATOM      8  N   UNL     1      48.249   3.749  19.062  0.00  0.00    +0.000 NA
ATOM      9  H   UNL     1      47.534   4.324  18.613  0.00  0.00    +0.000 HD
BRANCH   8  10
ATOM     10  C   UNL     1      48.694   4.490  20.251  0.00  0.00    +0.000 C 
BRANCH  10  11
ATOM     11  C   UNL     1      47.923   5.773  20.572  0.00  0.00    +0.000 C 
BRANCH  11  12
ATOM     12  O   UNL     1      48.838   6.825  20.875  0.00  0.00    +0.000 OA
BRANCH  12  14
ATOM     13  C   UNL     1      48.479   9.234  21.073  0.00  0.00    +0.000 C 
ATOM     14  C   UNL     1      48.662   8.040  20.127  0.00  0.00    +0.000 C 
ATOM     15  C   UNL     1      47.502   7.937  19.130  0.00  0.00    +0.000 C 
ATOM     16  C   UNL     1      49.968   8.236  19.345  0.00  0.00    +0.000 C 
ENDBRANCH  12  14
ENDBRANCH  11  12
ENDBRANCH  10  11
ENDBRANCH   8  10
ENDBRANCH   7   8
ENDBRANCH   1   7
BRANCH   5  17
ATOM     17  C   UNL     1      48.345   7.495  15.128  0.00  0.00    +0.000 C 
BRANCH  17  18
ATOM     18  N   UNL     1      48.133   7.002  13.766  0.00  0.00    +0.000 N 
ATOM     19  C   UNL     1      48.727   7.608  12.685  0.00  0.00    +0.000 A 
ATOM     20  N   UNL     1      48.096   7.336  11.569  0.00  0.00    +0.000 NA
ATOM     21  C   UNL     1      47.098   6.472  11.930  0.00  0.00    +0.000 A 
ATOM     22  C   UNL     1      46.029   6.005  11.165  0.00  0.00    +0.000 A 
ATOM     23  C   UNL     1      45.087   5.178  11.783  0.00  0.00    +0.000 A 
ATOM     24  C   UNL     1      45.322   4.654  13.058  0.00  0.00    +0.000 A 
ATOM     25  C   UNL     1      46.391   5.113  13.842  0.00  0.00    +0.000 A 
ATOM     26  C   UNL     1      47.205   6.108  13.276  0.00  0.00    +0.000 A 
BRANCH  23  27
ATOM     27  C   UNL     1      43.760   4.956  11.153  0.00  0.00    +0.000 C 
ATOM     28  N   UNL     1      43.018   6.082  10.910  0.00  0.00    +0.000 N 
ATOM     29  O   UNL     1      43.310   3.835  10.959  0.00  0.00    +0.000 OA
ATOM     30  H   UNL     1      43.241   6.963  11.353  0.00  0.00    +0.000 HD
ATOM     31  H   UNL     1      42.047   5.934  10.662  0.00  0.00    +0.000 HD
ENDBRANCH  23  27
ENDBRANCH  17  18
ENDBRANCH   5  17
TORSDOF 9
ENDMDL
MODEL 9
REMARK VINA RESULT:    -5.692      2.491      4.350
REMARK INTER + INTRA:          -9.845
REMARK INTER:                  -8.790
REMARK INTRA:                  -1.054
REMARK UNBOUND:                -1.158
REMARK  Name = 
REMARK  12 active torsions:
REMARK  status: ('A' for Active; 'I' for Inactive)
REMARK    1  A    between atoms: C_1  and  C_2
REMARK    2  A    between atoms: C_2  and  C_3
REMARK    3  A    between atoms: C_2  and  C_4
REMARK    4  A    between atoms: C_2  and  O_5
REMARK    5  A    between atoms: O_5  and  C_6
REMARK    6  A    between atoms: C_6  and  C_7
REMARK    7  A    between atoms: C_7  and  N_8
REMARK    8  A    between atoms: N_8  and  C_9
REMARK    9  A    between atoms: C_9  and  C_10
REMARK   10  A    between atoms: C_14  and  C_15
REMARK   11  A    between atoms: C_15  and  N_16
REMARK   12  A    between atoms: C_21  and  C_22
REMARK                            x       y       z     vdW  Elec       q    Type
REMARK                         _______ _______ _______ _____ _____    ______ ____
ROOT
ATOM      1  C   UNL     1      49.692   8.193  16.817  0.00  0.00    +0.000 A 
ATOM      2  C   UNL     1      49.154   9.479  16.674  0.00  0.00    +0.000 A 
ATOM      3  C   UNL     1      48.395   9.811  15.550  0.00  0.00    +0.000 A 
ATOM      4  C   UNL     1      48.184   8.870  14.544  0.00  0.00    +0.000 A 
ATOM      5  C   UNL     1      48.732   7.586  14.650  0.00  0.00    +0.000 A 
ATOM      6  C   UNL     1      49.450   7.245  15.810  0.00  0.00    +0.000 A 
ENDROOT
BRANCH   1   7
ATOM      7  C   UNL     1      50.567   7.848  18.005  0.00  0.00    +0.000 C 
BRANCH   7   8
ATOM      8  N   UNL     1      49.863   7.148  19.085  0.00  0.00    +0.000 NA
ATOM      9  H   UNL     1      50.024   6.146  18.971  0.00  0.00    +0.000 HD
BRANCH   8  10
ATOM     10  C   UNL     1      48.405   7.341  19.061  0.00  0.00    +0.000 C 
BRANCH  10  11
ATOM     11  C   UNL     1      47.557   6.074  19.191  0.00  0.00    +0.000 C 
BRANCH  11  12
ATOM     12  O   UNL     1      47.694   5.277  18.016  0.00  0.00    +0.000 OA
BRANCH  12  14
ATOM     13  C   UNL     1      48.565   3.717  19.683  0.00  0.00    +0.000 C 
ATOM     14  C   UNL     1      48.356   4.014  18.192  0.00  0.00    +0.000 C 
ATOM     15  C   UNL     1      49.680   3.946  17.421  0.00  0.00    +0.000 C 
ATOM     16  C   UNL     1      47.397   2.962  17.619  0.00  0.00    +0.000 C 
ENDBRANCH  12  14
ENDBRANCH  11  12
ENDBRANCH  10  11
ENDBRANCH   8  10
ENDBRANCH   7   8
ENDBRANCH   1   7
BRANCH   5  17
ATOM     17  C   UNL     1      48.607   6.611  13.507  0.00  0.00    +0.000 C 
BRANCH  17  18
ATOM     18  N   UNL     1      47.380   5.814  13.508  0.00  0.00    +0.000 N 
ATOM     19  C   UNL     1      47.121   4.901  14.503  0.00  0.00    +0.000 A 
ATOM     20  N   UNL     1      46.250   3.999  14.120  0.00  0.00    +0.000 NA
ATOM     21  C   UNL     1      45.883   4.379  12.858  0.00  0.00    +0.000 A 
ATOM     22  C   UNL     1      45.115   3.680  11.925  0.00  0.00    +0.000 A 
ATOM     23  C   UNL     1      44.935   4.248  10.661  0.00  0.00    +0.000 A 
ATOM     24  C   UNL     1      45.321   5.568  10.408  0.00  0.00    +0.000 A 
ATOM     25  C   UNL     1      46.095   6.285  11.333  0.00  0.00    +0.000 A 
ATOM     26  C   UNL     1      46.446   5.612  12.514  0.00  0.00    +0.000 A 
BRANCH  23  27
ATOM     27  C   UNL     1      44.459   3.414   9.528  0.00  0.00    +0.000 C 
ATOM     28  N   UNL     1      44.162   4.088   8.374  0.00  0.00    +0.000 N 
ATOM     29  O   UNL     1      44.244   2.215   9.646  0.00  0.00    +0.000 OA
ATOM     30  H   UNL     1      44.031   5.091   8.371  0.00  0.00    +0.000 HD
ATOM     31  H   UNL     1      43.660   3.565   7.665  0.00  0.00    +0.000 HD
ENDBRANCH  23  27
ENDBRANCH  17  18
ENDBRANCH   5  17
TORSDOF 9
ENDMDL
