MODEL 1
REMARK VINA RESULT:    -7.350      0.000      0.000
REMARK INTER + INTRA:         -13.554
REMARK INTER:                 -11.861
REMARK INTRA:                  -1.693
REMARK UNBOUND:                -1.693
REMARK  Name = 
REMARK  11 active torsions:
REMARK  status: ('A' for Active; 'I' for Inactive)
REMARK    1  A    between atoms: N_1  and  C_2
REMARK    2  A    between atoms: C_2  and  C_3
REMARK    3  A    between atoms: C_3  and  N_4
REMARK    4  A    between atoms: N_4  and  C_5
REMARK    5  A    between atoms: C_5  and  C_6
REMARK    6  A    between atoms: C_5  and  C_21
REMARK    7  A    between atoms: C_6  and  C_7
REMARK    8  A    between atoms: C_10  and  C_11
REMARK    9  A    between atoms: C_11  and  O_12
REMARK   10  A    between atoms: O_12  and  C_13
REMARK   11  A    between atoms: C_21  and  C_23
REMARK                            x       y       z     vdW  Elec       q    Type
REMARK                         _______ _______ _______ _____ _____    ______ ____
ROOT
ATOM      1  C   UNL     1      47.496   8.115  13.369  0.00  0.00    +0.000 C 
ENDROOT
BRANCH   1   2
ATOM      2  N   UNL     1      48.162   8.774  12.204  0.00  0.00    +0.000 NA
ATOM      3  H   UNL     1      48.176   8.097  11.437  0.00  0.00    +0.000 HD
BRANCH   2   4
ATOM      4  C   UNL     1      49.538   9.215  12.455  0.00  0.00    +0.000 C 
BRANCH   4   5
ATOM      5  C   UNL     1      50.567   8.793  11.390  0.00  0.00    +0.000 C 
BRANCH   5   6
ATOM      6  N   UNL     1      51.280   7.572  11.775  0.00  0.00    +0.000 NA
ATOM      7  H   UNL     1      52.274   7.695  11.579  0.00  0.00    +0.000 HD
ATOM      8  H   UNL     1      50.969   6.805  11.177  0.00  0.00    +0.000 HD
ENDBRANCH   5   6
ENDBRANCH   4   5
ENDBRANCH   2   4
ENDBRANCH   1   2
BRANCH   1   9
ATOM      9  C   UNL     1      48.262   6.828  13.766  0.00  0.00    +0.000 C 
ATOM     10  O   UNL     1      48.736   6.090  12.894  0.00  0.00    +0.000 OA
BRANCH   9  11
ATOM     11  C   UNL     1      48.492   6.448  15.183  0.00  0.00    +0.000 A 
ATOM     12  C   UNL     1      49.058   7.387  16.036  0.00  0.00    +0.000 A 
ATOM     13  S   UNL     1      49.094   6.906  17.669  0.00  0.00    +0.000 S 
ATOM     14  C   UNL     1      48.316   5.440  17.302  0.00  0.00    +0.000 A 
ATOM     15  N   UNL     1      47.931   4.595  18.298  0.00  0.00    +0.000 NA
ATOM     16  C   UNL     1      47.277   3.558  17.894  0.00  0.00    +0.000 A 
ATOM     17  N   UNL     1      47.027   3.261  16.581  0.00  0.00    +0.000 N 
ATOM     18  C   UNL     1      47.563   3.988  15.545  0.00  0.00    +0.000 A 
ATOM     19  O   UNL     1      47.598   3.522  14.413  0.00  0.00    +0.000 OA
ATOM     20  C   UNL     1      48.140   5.263  15.937  0.00  0.00    +0.000 A 
ATOM     21  H   UNL     1      46.607   2.378  16.329  0.00  0.00    +0.000 HD
ENDBRANCH   9  11
ENDBRANCH   1   9
BRANCH   1  22
ATOM     22  C   UNL     1      45.990   7.807  13.187  0.00  0.00    +0.000 C 
BRANCH  22  23
ATOM     23  C   UNL     1      45.586   6.573  12.401  0.00  0.00    +0.000 A 
ATOM     24  C   UNL     1      45.027   5.486  13.091  0.00  0.00    +0.000 A 
ATOM     25  C   UNL     1      44.674   4.312  12.421  0.00  0.00    +0.000 A 
ATOM     26  C   UNL     1      44.869   4.202  11.043  0.00  0.00    +0.000 A 
ATOM     27  C   UNL     1      45.340   5.311  10.336  0.00  0.00    +0.000 A 
ATOM     28  C   UNL     1      45.694   6.481  11.008  0.00  0.00    +0.000 A 
BRANCH  26  29
ATOM     29  C   UNL     1      44.645   2.892  10.328  0.00  0.00    +0.000 C 
BRANCH  29  30
ATOM     30  O   UNL     1      44.547   3.094   8.918  0.00  0.00    +0.000 OA
BRANCH  30  31
ATOM     31  C   UNL     1      45.617   2.517   8.260  0.00  0.00    +0.000 A 
ATOM     32  C   UNL     1      46.412   3.326   7.461  0.00  0.00    +0.000 A 
ATOM     33  N   UNL     1      47.486   2.850   6.781  0.00  0.00    +0.000 NA
ATOM     34  C   UNL     1      47.724   1.528   6.937  0.00  0.00    +0.000 A 
ATOM     35  C   UNL     1      46.930   0.718   7.731  0.00  0.00    +0.000 A 
ATOM     36  N   UNL     1      45.859   1.192   8.403  0.00  0.00    +0.000 NA
ENDBRANCH  30  31
ENDBRANCH  29  30
ENDBRANCH  26  29
ENDBRANCH  22  23
ENDBRANCH   1  22
TORSDOF 11
ENDMDL
MODEL 2
REMARK VINA RESULT:    -7.054      2.230      3.432
REMARK INTER + INTRA:         -13.076
REMARK INTER:                 -12.088
REMARK INTRA:                  -0.987
REMARK UNBOUND:                -1.693
REMARK  Name = 
REMARK  11 active torsions:
REMARK  status: ('A' for Active; 'I' for Inactive)
REMARK    1  A    between atoms: N_1  and  C_2
REMARK    2  A    between atoms: C_2  and  C_3
REMARK    3  A    between atoms: C_3  and  N_4
REMARK    4  A    between atoms: N_4  and  C_5
REMARK    5  A    between atoms: C_5  and  C_6
REMARK    6  A    between atoms: C_5  and  C_21
REMARK    7  A    between atoms: C_6  and  C_7
REMARK    8  A    between atoms: C_10  and  C_11
REMARK    9  A    between atoms: C_11  and  O_12
REMARK   10  A    between atoms: O_12  and  C_13
REMARK   11  A    between atoms: C_21  and  C_23
REMARK                            x       y       z     vdW  Elec       q    Type
REMARK                         _______ _______ _______ _____ _____    ______ ____
ROOT
ATOM      1  C   UNL     1      48.106   5.953  14.698  0.00  0.00    +0.000 C 
ENDROOT
BRANCH   1   2
ATOM      2  N   UNL     1      47.397   5.156  15.746  0.00  0.00    +0.000 NA
ATOM      3  H   UNL     1      47.767   5.449  16.655  0.00  0.00    +0.000 HD
BRANCH   2   4
ATOM      4  C   UNL     1      47.563   3.704  15.628  0.00  0.00    +0.000 C 
BRANCH   4   5
ATOM      5  C   UNL     1      47.800   2.959  16.956  0.00  0.00    +0.000 C 
BRANCH   5   6
ATOM      6  N   UNL     1      46.583   2.898  17.770  0.00  0.00    +0.000 NA
ATOM      7  H   UNL     1      46.787   3.278  18.695  0.00  0.00    +0.000 HD
ATOM      8  H   UNL     1      46.333   1.919  17.918  0.00  0.00    +0.000 HD
ENDBRANCH   5   6
ENDBRANCH   4   5
ENDBRANCH   2   4
ENDBRANCH   1   2
BRANCH   1   9
ATOM      9  C   UNL     1      49.222   6.813  15.343  0.00  0.00    +0.000 C 
ATOM     10  O   UNL     1      50.094   7.335  14.637  0.00  0.00    +0.000 OA
BRANCH   9  11
ATOM     11  C   UNL     1      49.275   7.077  16.803  0.00  0.00    +0.000 A 
ATOM     12  C   UNL     1      48.715   8.254  17.283  0.00  0.00    +0.000 A 
ATOM     13  S   UNL     1      48.665   8.354  18.982  0.00  0.00    +0.000 S 
ATOM     14  C   UNL     1      49.353   6.808  19.140  0.00  0.00    +0.000 A 
ATOM     15  N   UNL     1      49.475   6.228  20.366  0.00  0.00    +0.000 NA
ATOM     16  C   UNL     1      49.934   5.022  20.342  0.00  0.00    +0.000 A 
ATOM     17  N   UNL     1      50.339   4.368  19.210  0.00  0.00    +0.000 N 
ATOM     18  C   UNL     1      50.409   4.988  17.985  0.00  0.00    +0.000 A 
ATOM     19  O   UNL     1      51.069   4.496  17.078  0.00  0.00    +0.000 OA
ATOM     20  C   UNL     1      49.730   6.271  17.917  0.00  0.00    +0.000 A 
ATOM     21  H   UNL     1      50.792   3.469  19.276  0.00  0.00    +0.000 HD
ENDBRANCH   9  11
ENDBRANCH   1   9
BRANCH   1  22
ATOM     22  C   UNL     1      47.198   6.833  13.806  0.00  0.00    +0.000 C 
BRANCH  22  23
ATOM     23  C   UNL     1      46.429   6.178  12.674  0.00  0.00    +0.000 A 
ATOM     24  C   UNL     1      45.532   5.141  12.978  0.00  0.00    +0.000 A 
ATOM     25  C   UNL     1      44.829   4.478  11.969  0.00  0.00    +0.000 A 
ATOM     26  C   UNL     1      45.004   4.843  10.633  0.00  0.00    +0.000 A 
ATOM     27  C   UNL     1      45.825   5.931  10.330  0.00  0.00    +0.000 A 
ATOM     28  C   UNL     1      46.529   6.589  11.340  0.00  0.00    +0.000 A 
BRANCH  26  29
ATOM     29  C   UNL     1      44.379   4.038   9.520  0.00  0.00    +0.000 C 
BRANCH  29  30
ATOM     30  O   UNL     1      44.994   4.342   8.268  0.00  0.00    +0.000 OA
BRANCH  30  31
ATOM     31  C   UNL     1      45.769   3.285   7.828  0.00  0.00    +0.000 A 
ATOM     32  C   UNL     1      45.669   2.073   8.495  0.00  0.00    +0.000 A 
ATOM     33  N   UNL     1      46.386   0.979   8.132  0.00  0.00    +0.000 NA
ATOM     34  C   UNL     1      47.209   1.157   7.073  0.00  0.00    +0.000 A 
ATOM     35  C   UNL     1      47.313   2.367   6.409  0.00  0.00    +0.000 A 
ATOM     36  N   UNL     1      46.603   3.455   6.773  0.00  0.00    +0.000 NA
ENDBRANCH  30  31
ENDBRANCH  29  30
ENDBRANCH  26  29
ENDBRANCH  22  23
ENDBRANCH   1  22
TORSDOF 11
ENDMDL
MODEL 3
REMARK VINA RESULT:    -6.916      2.881      4.322
REMARK INTER + INTRA:         -12.854
REMARK INTER:                 -11.449
REMARK INTRA:                  -1.405
REMARK UNBOUND:                -1.693
REMARK  Name = 
REMARK  11 active torsions:
REMARK  status: ('A' for Active; 'I' for Inactive)
REMARK    1  A    between atoms: N_1  and  C_2
REMARK    2  A    between atoms: C_2  and  C_3
REMARK    3  A    between atoms: C_3  and  N_4
REMARK    4  A    between atoms: N_4  and  C_5
REMARK    5  A    between atoms: C_5  and  C_6
REMARK    6  A    between atoms: C_5  and  C_21
REMARK    7  A    between atoms: C_6  and  C_7
REMARK    8  A    between atoms: C_10  and  C_11
REMARK    9  A    between atoms: C_11  and  O_12
REMARK   10  A    between atoms: O_12  and  C_13
REMARK   11  A    between atoms: C_21  and  C_23
REMARK                            x       y       z     vdW  Elec       q    Type
REMARK                         _______ _______ _______ _____ _____    ______ ____
ROOT
ATOM      1  C   UNL     1      47.854   5.428  17.290  0.00  0.00    +0.000 C 
ENDROOT
BRANCH   1   2
ATOM      2  N   UNL     1      47.696   6.694  18.071  0.00  0.00    +0.000 NA
ATOM      3  H   UNL     1      46.749   7.041  17.899  0.00  0.00    +0.000 HD
BRANCH   2   4
ATOM      4  C   UNL     1      48.646   7.753  17.719  0.00  0.00    +0.000 C 
BRANCH   4   5
ATOM      5  C   UNL     1      48.016   9.124  17.407  0.00  0.00    +0.000 C 
BRANCH   5   6
ATOM      6  N   UNL     1      47.602   9.227  16.004  0.00  0.00    +0.000 NA
ATOM      7  H   UNL     1      47.521  10.213  15.757  0.00  0.00    +0.000 HD
ATOM      8  H   UNL     1      46.664   8.834  15.907  0.00  0.00    +0.000 HD
ENDBRANCH   5   6
ENDBRANCH   4   5
ENDBRANCH   2   4
ENDBRANCH   1   2
BRANCH   1   9
ATOM      9  C   UNL     1      48.525   4.340  18.165  0.00  0.00    +0.000 C 
ATOM     10  O   UNL     1      47.833   3.585  18.860  0.00  0.00    +0.000 OA
BRANCH   9  11
ATOM     11  C   UNL     1      49.994   4.131  18.182  0.00  0.00    +0.000 A 
ATOM     12  C   UNL     1      50.787   5.064  18.837  0.00  0.00    +0.000 A 
ATOM     13  S   UNL     1      52.427   4.620  18.954  0.00  0.00    +0.000 S 
ATOM     14  C   UNL     1      52.130   3.142  18.169  0.00  0.00    +0.000 A 
ATOM     15  N   UNL     1      53.117   2.212  18.052  0.00  0.00    +0.000 NA
ATOM     16  C   UNL     1      52.743   1.101  17.512  0.00  0.00    +0.000 A 
ATOM     17  N   UNL     1      51.487   0.861  17.023  0.00  0.00    +0.000 N 
ATOM     18  C   UNL     1      50.523   1.839  16.951  0.00  0.00    +0.000 A 
ATOM     19  O   UNL     1      49.546   1.695  16.227  0.00  0.00    +0.000 OA
ATOM     20  C   UNL     1      50.823   3.040  17.713  0.00  0.00    +0.000 A 
ATOM     21  H   UNL     1      51.292   0.012  16.513  0.00  0.00    +0.000 HD
ENDBRANCH   9  11
ENDBRANCH   1   9
BRANCH   1  22
ATOM     22  C   UNL     1      48.602   5.568  15.942  0.00  0.00    +0.000 C 
BRANCH  22  23
ATOM     23  C   UNL     1      47.794   5.601  14.658  0.00  0.00    +0.000 A 
ATOM     24  C   UNL     1      48.131   6.541  13.671  0.00  0.00    +0.000 A 
ATOM     25  C   UNL     1      47.395   6.639  12.488  0.00  0.00    +0.000 A 
ATOM     26  C   UNL     1      46.306   5.795  12.264  0.00  0.00    +0.000 A 
ATOM     27  C   UNL     1      46.019   4.798  13.200  0.00  0.00    +0.000 A 
ATOM     28  C   UNL     1      46.755   4.704  14.382  0.00  0.00    +0.000 A 
BRANCH  26  29
ATOM     29  C   UNL     1      45.403   5.990  11.071  0.00  0.00    +0.000 C 
BRANCH  29  30
ATOM     30  O   UNL     1      44.607   4.827  10.842  0.00  0.00    +0.000 OA
BRANCH  30  31
ATOM     31  C   UNL     1      45.100   4.090   9.782  0.00  0.00    +0.000 A 
ATOM     32  C   UNL     1      45.026   2.706   9.851  0.00  0.00    +0.000 A 
ATOM     33  N   UNL     1      45.479   1.901   8.857  0.00  0.00    +0.000 NA
ATOM     34  C   UNL     1      46.012   2.545   7.793  0.00  0.00    +0.000 A 
ATOM     35  C   UNL     1      46.090   3.926   7.725  0.00  0.00    +0.000 A 
ATOM     36  N   UNL     1      45.644   4.726   8.716  0.00  0.00    +0.000 NA
ENDBRANCH  30  31
ENDBRANCH  29  30
ENDBRANCH  26  29
ENDBRANCH  22  23
ENDBRANCH   1  22
TORSDOF 11
ENDMDL
MODEL 4
REMARK VINA RESULT:    -6.851      2.210      4.288
REMARK INTER + INTRA:         -12.748
REMARK INTER:                 -11.620
REMARK INTRA:                  -1.128
REMARK UNBOUND:                -1.693
REMARK  Name = 
REMARK  11 active torsions:
REMARK  status: ('A' for Active; 'I' for Inactive)
REMARK    1  A    between atoms: N_1  and  C_2
REMARK    2  A    between atoms: C_2  and  C_3
REMARK    3  A    between atoms: C_3  and  N_4
REMARK    4  A    between atoms: N_4  and  C_5
REMARK    5  A    between atoms: C_5  and  C_6
REMARK    6  A    between atoms: C_5  and  C_21
REMARK    7  A    between atoms: C_6  and  C_7
REMARK    8  A    between atoms: C_10  and  C_11
REMARK    9  A    between atoms: C_11  and  O_12
REMARK   10  A    between atoms: O_12  and  C_13
REMARK   11  A    between atoms: C_21  and  C_23
REMARK                            x       y       z     vdW  Elec       q    Type
REMARK                         _______ _______ _______ _____ _____    ______ ____
ROOT
ATOM      1  C   UNL     1      47.256   6.401  13.518  0.00  0.00    +0.000 C 
ENDROOT
BRANCH   1   2
ATOM      2  N   UNL     1      47.579   5.836  14.864  0.00  0.00    +0.000 NA
ATOM      3  H   UNL     1      48.596   5.867  14.972  0.00  0.00    +0.000 HD
BRANCH   2   4
ATOM      4  C   UNL     1      47.137   4.452  15.069  0.00  0.00    +0.000 C 
BRANCH   4   5
ATOM      5  C   UNL     1      47.702   3.761  16.324  0.00  0.00    +0.000 C 
BRANCH   5   6
ATOM      6  N   UNL     1      48.484   2.569  15.984  0.00  0.00    +0.000 NA
ATOM      7  H   UNL     1      49.379   2.613  16.471  0.00  0.00    +0.000 HD
ATOM      8  H   UNL     1      48.705   2.592  14.987  0.00  0.00    +0.000 HD
ENDBRANCH   5   6
ENDBRANCH   4   5
ENDBRANCH   2   4
ENDBRANCH   1   2
BRANCH   1   9
ATOM      9  C   UNL     1      47.742   7.869  13.424  0.00  0.00    +0.000 C 
ATOM     10  O   UNL     1      47.000   8.796  13.773  0.00  0.00    +0.000 OA
BRANCH   9  11
ATOM     11  C   UNL     1      49.105   8.224  12.955  0.00  0.00    +0.000 A 
ATOM     12  C   UNL     1      49.238   8.861  11.728  0.00  0.00    +0.000 A 
ATOM     13  S   UNL     1      50.821   9.387  11.388  0.00  0.00    +0.000 S 
ATOM     14  C   UNL     1      51.382   8.818  12.889  0.00  0.00    +0.000 A 
ATOM     15  N   UNL     1      52.660   9.066  13.287  0.00  0.00    +0.000 NA
ATOM     16  C   UNL     1      52.935   8.655  14.479  0.00  0.00    +0.000 A 
ATOM     17  N   UNL     1      52.068   7.966  15.283  0.00  0.00    +0.000 N 
ATOM     18  C   UNL     1      50.839   7.534  14.842  0.00  0.00    +0.000 A 
ATOM     19  O   UNL     1      50.235   6.659  15.451  0.00  0.00    +0.000 OA
ATOM     20  C   UNL     1      50.403   8.127  13.590  0.00  0.00    +0.000 A 
ATOM     21  H   UNL     1      52.384   7.578  16.159  0.00  0.00    +0.000 HD
ENDBRANCH   9  11
ENDBRANCH   1   9
BRANCH   1  22
ATOM     22  C   UNL     1      45.771   6.300  13.094  0.00  0.00    +0.000 C 
BRANCH  22  23
ATOM     23  C   UNL     1      45.396   5.359  11.964  0.00  0.00    +0.000 A 
ATOM     24  C   UNL     1      44.789   4.133  12.280  0.00  0.00    +0.000 A 
ATOM     25  C   UNL     1      44.460   3.213  11.281  0.00  0.00    +0.000 A 
ATOM     26  C   UNL     1      44.726   3.504   9.942  0.00  0.00    +0.000 A 
ATOM     27  C   UNL     1      45.247   4.757   9.611  0.00  0.00    +0.000 A 
ATOM     28  C   UNL     1      45.577   5.672  10.612  0.00  0.00    +0.000 A 
BRANCH  26  29
ATOM     29  C   UNL     1      44.527   2.464   8.866  0.00  0.00    +0.000 C 
BRANCH  29  30
ATOM     30  O   UNL     1      45.691   1.649   8.728  0.00  0.00    +0.000 OA
BRANCH  30  31
ATOM     31  C   UNL     1      46.397   1.985   7.587  0.00  0.00    +0.000 A 
ATOM     32  C   UNL     1      47.498   1.214   7.244  0.00  0.00    +0.000 A 
ATOM     33  N   UNL     1      48.248   1.464   6.141  0.00  0.00    +0.000 NA
ATOM     34  C   UNL     1      47.847   2.523   5.401  0.00  0.00    +0.000 A 
ATOM     35  C   UNL     1      46.751   3.296   5.745  0.00  0.00    +0.000 A 
ATOM     36  N   UNL     1      46.008   3.049   6.845  0.00  0.00    +0.000 NA
ENDBRANCH  30  31
ENDBRANCH  29  30
ENDBRANCH  26  29
ENDBRANCH  22  23
ENDBRANCH   1  22
TORSDOF 11
ENDMDL
MODEL 5
REMARK VINA RESULT:    -6.541      3.437      7.279
REMARK INTER + INTRA:         -12.249
REMARK INTER:                 -10.555
REMARK INTRA:                  -1.693
REMARK UNBOUND:                -1.693
REMARK  Name = 
REMARK  11 active torsions:
REMARK  status: ('A' for Active; 'I' for Inactive)
REMARK    1  A    between atoms: N_1  and  C_2
REMARK    2  A    between atoms: C_2  and  C_3
REMARK    3  A    between atoms: C_3  and  N_4
REMARK    4  A    between atoms: N_4  and  C_5
REMARK    5  A    between atoms: C_5  and  C_6
REMARK    6  A    between atoms: C_5  and  C_21
REMARK    7  A    between atoms: C_6  and  C_7
REMARK    8  A    between atoms: C_10  and  C_11
REMARK    9  A    between atoms: C_11  and  O_12
REMARK   10  A    between atoms: O_12  and  C_13
REMARK   11  A    between atoms: C_21  and  C_23
REMARK                            x       y       z     vdW  Elec       q    Type
REMARK                         _______ _______ _______ _____ _____    ______ ____
ROOT
ATOM      1  C   UNL     1      47.524   6.829  12.116  0.00  0.00    +0.000 C 
ENDROOT
BRANCH   1   2
ATOM      2  N   UNL     1      48.527   7.578  11.297  0.00  0.00    +0.000 NA
ATOM      3  H   UNL     1      49.236   6.905  10.994  0.00  0.00    +0.000 HD
BRANCH   2   4
ATOM      4  C   UNL     1      49.201   8.671  12.004  0.00  0.00    +0.000 C 
BRANCH   4   5
ATOM      5  C   UNL     1      48.853  10.087  11.508  0.00  0.00    +0.000 C 
BRANCH   5   6
ATOM      6  N   UNL     1      47.431  10.392  11.686  0.00  0.00    +0.000 NA
ATOM      7  H   UNL     1      46.999   9.645  12.229  0.00  0.00    +0.000 HD
ATOM      8  H   UNL     1      46.973  10.377  10.773  0.00  0.00    +0.000 HD
ENDBRANCH   5   6
ENDBRANCH   4   5
ENDBRANCH   2   4
ENDBRANCH   1   2
BRANCH   1   9
ATOM      9  C   UNL     1      46.117   6.945  11.478  0.00  0.00    +0.000 C 
ATOM     10  O   UNL     1      45.522   8.030  11.474  0.00  0.00    +0.000 OA
BRANCH   9  11
ATOM     11  C   UNL     1      45.447   5.795  10.822  0.00  0.00    +0.000 A 
ATOM     12  C   UNL     1      45.751   5.522   9.495  0.00  0.00    +0.000 A 
ATOM     13  S   UNL     1      45.072   4.072   8.913  0.00  0.00    +0.000 S 
ATOM     14  C   UNL     1      44.379   3.735  10.428  0.00  0.00    +0.000 A 
ATOM     15  N   UNL     1      43.745   2.550  10.649  0.00  0.00    +0.000 NA
ATOM     16  C   UNL     1      43.338   2.381  11.862  0.00  0.00    +0.000 A 
ATOM     17  N   UNL     1      43.454   3.315  12.857  0.00  0.00    +0.000 N 
ATOM     18  C   UNL     1      43.914   4.589  12.622  0.00  0.00    +0.000 A 
ATOM     19  O   UNL     1      43.702   5.484  13.432  0.00  0.00    +0.000 OA
ATOM     20  C   UNL     1      44.559   4.772  11.333  0.00  0.00    +0.000 A 
ATOM     21  H   UNL     1      43.015   3.163  13.752  0.00  0.00    +0.000 HD
ENDBRANCH   9  11
ENDBRANCH   1   9
BRANCH   1  22
ATOM     22  C   UNL     1      47.468   7.216  13.614  0.00  0.00    +0.000 C 
BRANCH  22  23
ATOM     23  C   UNL     1      47.764   6.154  14.655  0.00  0.00    +0.000 A 
ATOM     24  C   UNL     1      48.655   6.458  15.696  0.00  0.00    +0.000 A 
ATOM     25  C   UNL     1      48.993   5.502  16.658  0.00  0.00    +0.000 A 
ATOM     26  C   UNL     1      48.439   4.221  16.602  0.00  0.00    +0.000 A 
ATOM     27  C   UNL     1      47.484   3.939  15.623  0.00  0.00    +0.000 A 
ATOM     28  C   UNL     1      47.152   4.895  14.662  0.00  0.00    +0.000 A 
BRANCH  26  29
ATOM     29  C   UNL     1      48.910   3.130  17.533  0.00  0.00    +0.000 C 
BRANCH  29  30
ATOM     30  O   UNL     1      49.669   2.151  16.823  0.00  0.00    +0.000 OA
BRANCH  30  31
ATOM     31  C   UNL     1      50.954   2.061  17.327  0.00  0.00    +0.000 A 
ATOM     32  C   UNL     1      51.539   3.207  17.845  0.00  0.00    +0.000 A 
ATOM     33  N   UNL     1      52.793   3.214  18.366  0.00  0.00    +0.000 NA
ATOM     34  C   UNL     1      53.432   2.022  18.340  0.00  0.00    +0.000 A 
ATOM     35  C   UNL     1      52.850   0.879  17.820  0.00  0.00    +0.000 A 
ATOM     36  N   UNL     1      51.606   0.874  17.298  0.00  0.00    +0.000 NA
ENDBRANCH  30  31
ENDBRANCH  29  30
ENDBRANCH  26  29
ENDBRANCH  22  23
ENDBRANCH   1  22
TORSDOF 11
ENDMDL
MODEL 6
REMARK VINA RESULT:    -6.337      1.851      2.559
REMARK INTER + INTRA:         -11.920
REMARK INTER:                 -10.516
REMARK INTRA:                  -1.404
REMARK UNBOUND:                -1.693
REMARK  Name = 
REMARK  11 active torsions:
REMARK  status: ('A' for Active; 'I' for Inactive)
REMARK    1  A    between atoms: N_1  and  C_2
REMARK    2  A    between atoms: C_2  and  C_3
REMARK    3  A    between atoms: C_3  and  N_4
REMARK    4  A    between atoms: N_4  and  C_5
REMARK    5  A    between atoms: C_5  and  C_6
REMARK    6  A    between atoms: C_5  and  C_21
REMARK    7  A    between atoms: C_6  and  C_7
REMARK    8  A    between atoms: C_10  and  C_11
REMARK    9  A    between atoms: C_11  and  O_12
REMARK   10  A    between atoms: O_12  and  C_13
REMARK   11  A    between atoms: C_21  and  C_23
REMARK                            x       y       z     vdW  Elec       q    Type
REMARK                         _______ _______ _______ _____ _____    ______ ____
ROOT
ATOM      1  C   UNL     1      48.639   8.251  13.824  0.00  0.00    +0.000 C 
ENDROOT
BRANCH   1   2
ATOM      2  N   UNL     1      48.954   9.296  12.802  0.00  0.00    +0.000 NA
ATOM      3  H   UNL     1      49.927   9.580  12.946  0.00  0.00    +0.000 HD
BRANCH   2   4
ATOM      4  C   UNL     1      48.110  10.494  12.870  0.00  0.00    +0.000 C 
BRANCH   4   5
ATOM      5  C   UNL     1      47.072  10.630  11.740  0.00  0.00    +0.000 C 
BRANCH   5   6
ATOM      6  N   UNL     1      45.701  10.500  12.242  0.00  0.00    +0.000 NA
ATOM      7  H   UNL     1      45.524   9.521  12.466  0.00  0.00    +0.000 HD
ATOM      8  H   UNL     1      45.051  10.738  11.491  0.00  0.00    +0.000 HD
ENDBRANCH   5   6
ENDBRANCH   4   5
ENDBRANCH   2   4
ENDBRANCH   1   2
BRANCH   1   9
ATOM      9  C   UNL     1      49.567   8.409  15.055  0.00  0.00    +0.000 C 
ATOM     10  O   UNL     1      50.768   8.664  14.902  0.00  0.00    +0.000 OA
BRANCH   9  11
ATOM     11  C   UNL     1      49.062   8.301  16.447  0.00  0.00    +0.000 A 
ATOM     12  C   UNL     1      48.756   9.470  17.131  0.00  0.00    +0.000 A 
ATOM     13  S   UNL     1      48.009   9.214  18.640  0.00  0.00    +0.000 S 
ATOM     14  C   UNL     1      48.030   7.529  18.416  0.00  0.00    +0.000 A 
ATOM     15  N   UNL     1      47.417   6.706  19.310  0.00  0.00    +0.000 NA
ATOM     16  C   UNL     1      47.431   5.458  18.983  0.00  0.00    +0.000 A 
ATOM     17  N   UNL     1      48.056   4.953  17.875  0.00  0.00    +0.000 N 
ATOM     18  C   UNL     1      48.843   5.727  17.055  0.00  0.00    +0.000 A 
ATOM     19  O   UNL     1      49.637   5.204  16.283  0.00  0.00    +0.000 OA
ATOM     20  C   UNL     1      48.708   7.159  17.263  0.00  0.00    +0.000 A 
ATOM     21  H   UNL     1      48.123   3.956  17.737  0.00  0.00    +0.000 HD
ENDBRANCH   9  11
ENDBRANCH   1   9
BRANCH   1  22
ATOM     22  C   UNL     1      48.670   6.791  13.313  0.00  0.00    +0.000 C 
BRANCH  22  23
ATOM     23  C   UNL     1      47.402   6.192  12.734  0.00  0.00    +0.000 A 
ATOM     24  C   UNL     1      46.928   4.978  13.254  0.00  0.00    +0.000 A 
ATOM     25  C   UNL     1      45.789   4.364  12.729  0.00  0.00    +0.000 A 
ATOM     26  C   UNL     1      45.093   4.957  11.674  0.00  0.00    +0.000 A 
ATOM     27  C   UNL     1      45.504   6.209  11.210  0.00  0.00    +0.000 A 
ATOM     28  C   UNL     1      46.646   6.817  11.735  0.00  0.00    +0.000 A 
BRANCH  26  29
ATOM     29  C   UNL     1      43.957   4.236  10.989  0.00  0.00    +0.000 C 
BRANCH  29  30
ATOM     30  O   UNL     1      43.951   4.516   9.589  0.00  0.00    +0.000 OA
BRANCH  30  31
ATOM     31  C   UNL     1      44.824   3.682   8.914  0.00  0.00    +0.000 A 
ATOM     32  C   UNL     1      44.832   2.334   9.242  0.00  0.00    +0.000 A 
ATOM     33  N   UNL     1      45.650   1.440   8.630  0.00  0.00    +0.000 NA
ATOM     34  C   UNL     1      46.459   1.959   7.678  0.00  0.00    +0.000 A 
ATOM     35  C   UNL     1      46.454   3.305   7.353  0.00  0.00    +0.000 A 
ATOM     36  N   UNL     1      45.644   4.194   7.965  0.00  0.00    +0.000 NA
ENDBRANCH  30  31
ENDBRANCH  29  30
ENDBRANCH  26  29
ENDBRANCH  22  23
ENDBRANCH   1  22
TORSDOF 11
ENDMDL
MODEL 7
REMARK VINA RESULT:    -6.294      2.429      4.123
REMARK INTER + INTRA:         -11.850
REMARK INTER:                 -10.647
REMARK INTRA:                  -1.203
REMARK UNBOUND:                -1.693
REMARK  Name = 
REMARK  11 active torsions:
REMARK  status: ('A' for Active; 'I' for Inactive)
REMARK    1  A    between atoms: N_1  and  C_2
REMARK    2  A    between atoms: C_2  and  C_3
REMARK    3  A    between atoms: C_3  and  N_4
REMARK    4  A    between atoms: N_4  and  C_5
REMARK    5  A    between atoms: C_5  and  C_6
REMARK    6  A    between atoms: C_5  and  C_21
REMARK    7  A    between atoms: C_6  and  C_7
REMARK    8  A    between atoms: C_10  and  C_11
REMARK    9  A    between atoms: C_11  and  O_12
REMARK   10  A    between atoms: O_12  and  C_13
REMARK   11  A    between atoms: C_21  and  C_23
REMARK                            x       y       z     vdW  Elec       q    Type
REMARK                         _______ _______ _______ _____ _____    ______ ____
ROOT
ATOM      1  C   UNL     1      48.384   6.261  14.832  0.00  0.00    +0.000 C 
ENDROOT
BRANCH   1   2
ATOM      2  N   UNL     1      47.943   6.114  16.253  0.00  0.00    +0.000 NA
ATOM      3  H   UNL     1      48.412   6.845  16.795  0.00  0.00    +0.000 HD
BRANCH   2   4
ATOM      4  C   UNL     1      48.256   4.817  16.860  0.00  0.00    +0.000 C 
BRANCH   4   5
ATOM      5  C   UNL     1      47.285   3.675  16.508  0.00  0.00    +0.000 C 
BRANCH   5   6
ATOM      6  N   UNL     1      46.732   3.040  17.707  0.00  0.00    +0.000 NA
ATOM      7  H   UNL     1      47.036   2.066  17.734  0.00  0.00    +0.000 HD
ATOM      8  H   UNL     1      45.714   3.015  17.629  0.00  0.00    +0.000 HD
ENDBRANCH   5   6
ENDBRANCH   4   5
ENDBRANCH   2   4
ENDBRANCH   1   2
BRANCH   1   9
ATOM      9  C   UNL     1      49.672   7.119  14.757  0.00  0.00    +0.000 C 
ATOM     10  O   UNL     1      50.074   7.546  13.667  0.00  0.00    +0.000 OA
BRANCH   9  11
ATOM     11  C   UNL     1      50.448   7.490  15.966  0.00  0.00    +0.000 A 
ATOM     12  C   UNL     1      51.666   6.860  16.189  0.00  0.00    +0.000 A 
ATOM     13  S   UNL     1      52.549   7.503  17.495  0.00  0.00    +0.000 S 
ATOM     14  C   UNL     1      51.353   8.675  17.787  0.00  0.00    +0.000 A 
ATOM     15  N   UNL     1      51.551   9.646  18.720  0.00  0.00    +0.000 NA
ATOM     16  C   UNL     1      50.606  10.523  18.786  0.00  0.00    +0.000 A 
ATOM     17  N   UNL     1      49.455  10.480  18.047  0.00  0.00    +0.000 N 
ATOM     18  C   UNL     1      49.137   9.416  17.237  0.00  0.00    +0.000 A 
ATOM     19  O   UNL     1      47.985   9.250  16.855  0.00  0.00    +0.000 OA
ATOM     20  C   UNL     1      50.238   8.503  16.979  0.00  0.00    +0.000 A 
ATOM     21  H   UNL     1      48.708  11.135  18.228  0.00  0.00    +0.000 HD
ENDBRANCH   9  11
ENDBRANCH   1   9
BRANCH   1  22
ATOM     22  C   UNL     1      47.315   6.814  13.858  0.00  0.00    +0.000 C 
BRANCH  22  23
ATOM     23  C   UNL     1      46.565   5.841  12.967  0.00  0.00    +0.000 A 
ATOM     24  C   UNL     1      46.149   6.271  11.697  0.00  0.00    +0.000 A 
ATOM     25  C   UNL     1      45.421   5.428  10.854  0.00  0.00    +0.000 A 
ATOM     26  C   UNL     1      45.097   4.133  11.262  0.00  0.00    +0.000 A 
ATOM     27  C   UNL     1      45.584   3.667  12.486  0.00  0.00    +0.000 A 
ATOM     28  C   UNL     1      46.308   4.513  13.327  0.00  0.00    +0.000 A 
BRANCH  26  29
ATOM     29  C   UNL     1      44.179   3.264  10.437  0.00  0.00    +0.000 C 
BRANCH  29  30
ATOM     30  O   UNL     1      44.256   3.615   9.056  0.00  0.00    +0.000 OA
BRANCH  30  31
ATOM     31  C   UNL     1      45.277   2.926   8.427  0.00  0.00    +0.000 A 
ATOM     32  C   UNL     1      46.125   3.630   7.584  0.00  0.00    +0.000 A 
ATOM     33  N   UNL     1      47.157   3.041   6.929  0.00  0.00    +0.000 NA
ATOM     34  C   UNL     1      47.298   1.714   7.154  0.00  0.00    +0.000 A 
ATOM     35  C   UNL     1      46.451   1.009   7.992  0.00  0.00    +0.000 A 
ATOM     36  N   UNL     1      45.422   1.595   8.639  0.00  0.00    +0.000 NA
ENDBRANCH  30  31
ENDBRANCH  29  30
ENDBRANCH  26  29
ENDBRANCH  22  23
ENDBRANCH   1  22
TORSDOF 11
ENDMDL
MODEL 8
REMARK VINA RESULT:    -6.000      3.146      7.116
REMARK INTER + INTRA:         -11.376
REMARK INTER:                  -9.362
REMARK INTRA:                  -2.014
REMARK UNBOUND:                -1.693
REMARK  Name = 
REMARK  11 active torsions:
REMARK  status: ('A' for Active; 'I' for Inactive)
REMARK    1  A    between atoms: N_1  and  C_2
REMARK    2  A    between atoms: C_2  and  C_3
REMARK    3  A    between atoms: C_3  and  N_4
REMARK    4  A    between atoms: N_4  and  C_5
REMARK    5  A    between atoms: C_5  and  C_6
REMARK    6  A    between atoms: C_5  and  C_21
REMARK    7  A    between atoms: C_6  and  C_7
REMARK    8  A    between atoms: C_10  and  C_11
REMARK    9  A    between atoms: C_11  and  O_12
REMARK   10  A    between atoms: O_12  and  C_13
REMARK   11  A    between atoms: C_21  and  C_23
REMARK                            x       y       z     vdW  Elec       q    Type
REMARK                         _______ _______ _______ _____ _____    ______ ____
ROOT
ATOM      1  C   UNL     1      47.141   8.926  12.219  0.00  0.00    +0.000 C 
ENDROOT
BRANCH   1   2
ATOM      2  N   UNL     1      45.764   8.811  12.790  0.00  0.00    +0.000 NA
ATOM      3  H   UNL     1      45.428   7.865  12.588  0.00  0.00    +0.000 HD
BRANCH   2   4
ATOM      4  C   UNL     1      44.795   9.769  12.249  0.00  0.00    +0.000 C 
BRANCH   4   5
ATOM      5  C   UNL     1      44.064   9.314  10.971  0.00  0.00    +0.000 C 
BRANCH   5   6
ATOM      6  N   UNL     1      43.476   7.980  11.126  0.00  0.00    +0.000 NA
ATOM      7  H   UNL     1      44.190   7.280  10.927  0.00  0.00    +0.000 HD
ATOM      8  H   UNL     1      42.752   7.854  10.416  0.00  0.00    +0.000 HD
ENDBRANCH   5   6
ENDBRANCH   4   5
ENDBRANCH   2   4
ENDBRANCH   1   2
BRANCH   1   9
ATOM      9  C   UNL     1      47.737   7.518  11.970  0.00  0.00    +0.000 C 
ATOM     10  O   UNL     1      48.738   7.382  11.255  0.00  0.00    +0.000 OA
BRANCH   9  11
ATOM     11  C   UNL     1      47.170   6.296  12.594  0.00  0.00    +0.000 A 
ATOM     12  C   UNL     1      47.652   5.904  13.836  0.00  0.00    +0.000 A 
ATOM     13  S   UNL     1      46.796   4.607  14.533  0.00  0.00    +0.000 S 
ATOM     14  C   UNL     1      45.722   4.548  13.217  0.00  0.00    +0.000 A 
ATOM     15  N   UNL     1      44.646   3.715  13.241  0.00  0.00    +0.000 NA
ATOM     16  C   UNL     1      43.863   3.826  12.220  0.00  0.00    +0.000 A 
ATOM     17  N   UNL     1      44.093   4.649  11.152  0.00  0.00    +0.000 N 
ATOM     18  C   UNL     1      45.261   5.360  11.005  0.00  0.00    +0.000 A 
ATOM     19  O   UNL     1      45.576   5.817   9.914  0.00  0.00    +0.000 OA
ATOM     20  C   UNL     1      46.084   5.423  12.201  0.00  0.00    +0.000 A 
ATOM     21  H   UNL     1      43.499   4.605  10.337  0.00  0.00    +0.000 HD
ENDBRANCH   9  11
ENDBRANCH   1   9
BRANCH   1  22
ATOM     22  C   UNL     1      48.130   9.790  13.038  0.00  0.00    +0.000 C 
BRANCH  22  23
ATOM     23  C   UNL     1      48.763   9.196  14.283  0.00  0.00    +0.000 A 
ATOM     24  C   UNL     1      50.094   8.756  14.220  0.00  0.00    +0.000 A 
ATOM     25  C   UNL     1      50.711   8.165  15.325  0.00  0.00    +0.000 A 
ATOM     26  C   UNL     1      50.009   8.007  16.521  0.00  0.00    +0.000 A 
ATOM     27  C   UNL     1      48.715   8.522  16.620  0.00  0.00    +0.000 A 
ATOM     28  C   UNL     1      48.100   9.109  15.513  0.00  0.00    +0.000 A 
BRANCH  26  29
ATOM     29  C   UNL     1      50.600   7.230  17.673  0.00  0.00    +0.000 C 
BRANCH  29  30
ATOM     30  O   UNL     1      49.577   6.571  18.418  0.00  0.00    +0.000 OA
BRANCH  30  31
ATOM     31  C   UNL     1      49.471   5.243  18.046  0.00  0.00    +0.000 A 
ATOM     32  C   UNL     1      50.597   4.610  17.541  0.00  0.00    +0.000 A 
ATOM     33  N   UNL     1      50.590   3.309  17.155  0.00  0.00    +0.000 NA
ATOM     34  C   UNL     1      49.404   2.674  17.296  0.00  0.00    +0.000 A 
ATOM     35  C   UNL     1      48.279   3.306  17.796  0.00  0.00    +0.000 A 
ATOM     36  N   UNL     1      48.285   4.601  18.175  0.00  0.00    +0.000 NA
ENDBRANCH  30  31
ENDBRANCH  29  30
ENDBRANCH  26  29
ENDBRANCH  22  23
ENDBRANCH   1  22
TORSDOF 11
ENDMDL
MODEL 9
REMARK VINA RESULT:    -5.967      2.638      3.996
REMARK INTER + INTRA:         -11.322
REMARK INTER:                 -10.844
REMARK INTRA:                  -0.478
REMARK UNBOUND:                -1.693
REMARK  Name = 
REMARK  11 active torsions:
REMARK  status: ('A' for Active; 'I' for Inactive)
REMARK    1  A    between atoms: N_1  and  C_2
REMARK    2  A    between atoms: C_2  and  C_3
REMARK    3  A    between atoms: C_3  and  N_4
REMARK    4  A    between atoms: N_4  and  C_5
REMARK    5  A    between atoms: C_5  and  C_6
REMARK    6  A    between atoms: C_5  and  C_21
REMARK    7  A    between atoms: C_6  and  C_7
REMARK    8  A    between atoms: C_10  and  C_11
REMARK    9  A    between atoms: C_11  and  O_12
REMARK   10  A    between atoms: O_12  and  C_13
REMARK   11  A    between atoms: C_21  and  C_23
REMARK                            x       y       z     vdW  Elec       q    Type
REMARK                         _______ _______ _______ _____ _____    ______ ____
ROOT
ATOM      1  C   UNL     1      48.861   6.229  15.320  0.00  0.00    +0.000 C 
ENDROOT
BRANCH   1   2
ATOM      2  N   UNL     1      47.885   5.918  16.409  0.00  0.00    +0.000 NA
ATOM      3  H   UNL     1      46.947   6.078  16.034  0.00  0.00    +0.000 HD
BRANCH   2   4
ATOM      4  C   UNL     1      48.041   6.729  17.621  0.00  0.00    +0.000 C 
BRANCH   4   5
ATOM      5  C   UNL     1      47.699   6.012  18.940  0.00  0.00    +0.000 C 
BRANCH   5   6
ATOM      6  N   UNL     1      46.342   5.460  18.924  0.00  0.00    +0.000 NA
ATOM      7  H   UNL     1      45.957   5.560  17.984  0.00  0.00    +0.000 HD
ATOM      8  H   UNL     1      45.747   6.024  19.533  0.00  0.00    +0.000 HD
ENDBRANCH   5   6
ENDBRANCH   4   5
ENDBRANCH   2   4
ENDBRANCH   1   2
BRANCH   1   9
ATOM      9  C   UNL     1      50.013   7.108  15.867  0.00  0.00    +0.000 C 
ATOM     10  O   UNL     1      49.864   8.332  15.978  0.00  0.00    +0.000 OA
BRANCH   9  11
ATOM     11  C   UNL     1      51.308   6.533  16.309  0.00  0.00    +0.000 A 
ATOM     12  C   UNL     1      52.467   7.262  16.080  0.00  0.00    +0.000 A 
ATOM     13  S   UNL     1      53.859   6.593  16.799  0.00  0.00    +0.000 S 
ATOM     14  C   UNL     1      52.954   5.325  17.479  0.00  0.00    +0.000 A 
ATOM     15  N   UNL     1      53.539   4.442  18.334  0.00  0.00    +0.000 NA
ATOM     16  C   UNL     1      52.727   3.579  18.846  0.00  0.00    +0.000 A 
ATOM     17  N   UNL     1      51.398   3.482  18.532  0.00  0.00    +0.000 N 
ATOM     18  C   UNL     1      50.819   4.230  17.535  0.00  0.00    +0.000 A 
ATOM     19  O   UNL     1      49.740   3.900  17.059  0.00  0.00    +0.000 OA
ATOM     20  C   UNL     1      51.630   5.340  17.064  0.00  0.00    +0.000 A 
ATOM     21  H   UNL     1      50.846   2.714  18.885  0.00  0.00    +0.000 HD
ENDBRANCH   9  11
ENDBRANCH   1   9
BRANCH   1  22
ATOM     22  C   UNL     1      48.255   6.869  14.048  0.00  0.00    +0.000 C 
BRANCH  22  23
ATOM     23  C   UNL     1      47.069   6.195  13.383  0.00  0.00    +0.000 A 
ATOM     24  C   UNL     1      46.934   4.802  13.496  0.00  0.00    +0.000 A 
ATOM     25  C   UNL     1      45.883   4.127  12.869  0.00  0.00    +0.000 A 
ATOM     26  C   UNL     1      44.940   4.834  12.121  0.00  0.00    +0.000 A 
ATOM     27  C   UNL     1      45.016   6.228  12.079  0.00  0.00    +0.000 A 
ATOM     28  C   UNL     1      46.069   6.899  12.703  0.00  0.00    +0.000 A 
BRANCH  26  29
ATOM     29  C   UNL     1      43.893   4.112  11.308  0.00  0.00    +0.000 C 
BRANCH  29  30
ATOM     30  O   UNL     1      43.874   4.593   9.964  0.00  0.00    +0.000 OA
BRANCH  30  31
ATOM     31  C   UNL     1      44.753   3.879   9.171  0.00  0.00    +0.000 A 
ATOM     32  C   UNL     1      44.824   2.504   9.339  0.00  0.00    +0.000 A 
ATOM     33  N   UNL     1      45.653   1.721   8.603  0.00  0.00    +0.000 NA
ATOM     34  C   UNL     1      46.409   2.380   7.694  0.00  0.00    +0.000 A 
ATOM     35  C   UNL     1      46.342   3.752   7.528  0.00  0.00    +0.000 A 
ATOM     36  N   UNL     1      45.521   4.531   8.264  0.00  0.00    +0.000 NA
ENDBRANCH  30  31
ENDBRANCH  29  30
ENDBRANCH  26  29
ENDBRANCH  22  23
ENDBRANCH   1  22
TORSDOF 11
ENDMDL
