MODEL 1
REMARK VINA RESULT:    -8.649      0.000      0.000
REMARK INTER + INTRA:         -11.901
REMARK INTER:                 -11.177
REMARK INTRA:                  -0.724
REMARK UNBOUND:                -0.724
REMARK  Name = 
REMARK  5 active torsions:
REMARK  status: ('A' for Active; 'I' for Inactive)
REMARK    1  A    between atoms: C_2  and  C_18
REMARK    2  A    between atoms: N_3  and  C_4
REMARK    3  A    between atoms: C_4  and  C_5
REMARK    4  A    between atoms: C_8  and  C_9
REMARK    5  A    between atoms: C_9  and  C_10
REMARK                            x       y       z     vdW  Elec       q    Type
REMARK                         _______ _______ _______ _____ _____    ______ ____
ROOT
ATOM      1  O   UNL     1      48.697   7.176  12.826  0.00  0.00    +0.000 OA
ATOM      2  C   UNL     1      47.964   6.833  13.749  0.00  0.00    +0.000 C 
ATOM      3  N   UNL     1      46.597   6.855  13.647  0.00  0.00    +0.000 N 
ATOM      4  H   UNL     1      46.038   6.743  14.487  0.00  0.00    +0.000 HD
ENDROOT
BRANCH   2   5
ATOM      5  C   UNL     1      48.512   6.324  15.015  0.00  0.00    +0.000 A 
ATOM      6  C   UNL     1      49.557   6.993  15.631  0.00  0.00    +0.000 A 
ATOM      7  S   UNL     1      50.067   6.263  17.088  0.00  0.00    +0.000 S 
ATOM      8  C   UNL     1      48.876   5.053  16.962  0.00  0.00    +0.000 A 
ATOM      9  N   UNL     1      48.738   4.104  17.925  0.00  0.00    +0.000 NA
ATOM     10  C   UNL     1      47.768   3.277  17.724  0.00  0.00    +0.000 A 
ATOM     11  N   UNL     1      46.936   3.299  16.635  0.00  0.00    +0.000 N 
ATOM     12  C   UNL     1      47.093   4.184  15.597  0.00  0.00    +0.000 A 
ATOM     13  O   UNL     1      46.433   4.081  14.567  0.00  0.00    +0.000 OA
ATOM     14  C   UNL     1      48.128   5.180  15.807  0.00  0.00    +0.000 A 
ATOM     15  H   UNL     1      46.220   2.598  16.519  0.00  0.00    +0.000 HD
ENDBRANCH   2   5
BRANCH   3  16
ATOM     16  C   UNL     1      45.917   7.395  12.498  0.00  0.00    +0.000 C 
BRANCH  16  17
ATOM     17  C   UNL     1      45.564   6.317  11.517  0.00  0.00    +0.000 A 
ATOM     18  C   UNL     1      44.653   5.304  11.829  0.00  0.00    +0.000 A 
ATOM     19  C   UNL     1      44.341   4.338  10.875  0.00  0.00    +0.000 A 
ATOM     20  C   UNL     1      44.948   4.406   9.623  0.00  0.00    +0.000 A 
ATOM     21  N   UNL     1      45.828   5.386   9.297  0.00  0.00    +0.000 NA
ATOM     22  C   UNL     1      46.104   6.317  10.238  0.00  0.00    +0.000 A 
BRANCH  20  23
ATOM     23  C   UNL     1      44.586   3.421   8.534  0.00  0.00    +0.000 C 
BRANCH  23  24
ATOM     24  C   UNL     1      45.792   2.728   7.942  0.00  0.00    +0.000 A 
ATOM     25  C   UNL     1      46.650   3.416   7.075  0.00  0.00    +0.000 A 
ATOM     26  C   UNL     1      47.711   2.733   6.505  0.00  0.00    +0.000 A 
ATOM     27  N   UNL     1      47.985   1.435   6.748  0.00  0.00    +0.000 NA
ATOM     28  C   UNL     1      47.164   0.796   7.608  0.00  0.00    +0.000 A 
ATOM     29  C   UNL     1      46.072   1.389   8.225  0.00  0.00    +0.000 A 
ENDBRANCH  23  24
ENDBRANCH  20  23
ENDBRANCH  16  17
ENDBRANCH   3  16
TORSDOF 5
ENDMDL
MODEL 2
REMARK VINA RESULT:    -8.519      1.757      2.378
REMARK INTER + INTRA:         -11.733
REMARK INTER:                 -10.975
REMARK INTRA:                  -0.758
REMARK UNBOUND:                -0.724
REMARK  Name = 
REMARK  5 active torsions:
REMARK  status: ('A' for Active; 'I' for Inactive)
REMARK    1  A    between atoms: C_2  and  C_18
REMARK    2  A    between atoms: N_3  and  C_4
REMARK    3  A    between atoms: C_4  and  C_5
REMARK    4  A    between atoms: C_8  and  C_9
REMARK    5  A    between atoms: C_9  and  C_10
REMARK                            x       y       z     vdW  Elec       q    Type
REMARK                         _______ _______ _______ _____ _____    ______ ____
ROOT
ATOM      1  O   UNL     1      46.990   3.445  13.974  0.00  0.00    +0.000 OA
ATOM      2  C   UNL     1      46.771   4.649  14.073  0.00  0.00    +0.000 C 
ATOM      3  N   UNL     1      45.535   5.192  13.834  0.00  0.00    +0.000 N 
ATOM      4  H   UNL     1      45.448   6.199  13.747  0.00  0.00    +0.000 HD
ENDROOT
BRANCH   2   5
ATOM      5  C   UNL     1      47.818   5.585  14.508  0.00  0.00    +0.000 A 
ATOM      6  C   UNL     1      48.401   6.442  13.589  0.00  0.00    +0.000 A 
ATOM      7  S   UNL     1      49.596   7.457  14.266  0.00  0.00    +0.000 S 
ATOM      8  C   UNL     1      49.339   6.812  15.820  0.00  0.00    +0.000 A 
ATOM      9  N   UNL     1      50.030   7.278  16.894  0.00  0.00    +0.000 NA
ATOM     10  C   UNL     1      49.704   6.731  18.017  0.00  0.00    +0.000 A 
ATOM     11  N   UNL     1      48.765   5.744  18.161  0.00  0.00    +0.000 N 
ATOM     12  C   UNL     1      48.105   5.183  17.094  0.00  0.00    +0.000 A 
ATOM     13  O   UNL     1      47.386   4.198  17.237  0.00  0.00    +0.000 OA
ATOM     14  C   UNL     1      48.387   5.810  15.815  0.00  0.00    +0.000 A 
ATOM     15  H   UNL     1      48.584   5.331  19.063  0.00  0.00    +0.000 HD
ENDBRANCH   2   5
BRANCH   3  16
ATOM     16  C   UNL     1      44.433   4.412  13.333  0.00  0.00    +0.000 C 
BRANCH  16  17
ATOM     17  C   UNL     1      44.495   4.277  11.840  0.00  0.00    +0.000 A 
ATOM     18  C   UNL     1      45.204   5.181  11.045  0.00  0.00    +0.000 A 
ATOM     19  C   UNL     1      45.249   5.001   9.665  0.00  0.00    +0.000 A 
ATOM     20  C   UNL     1      44.581   3.914   9.106  0.00  0.00    +0.000 A 
ATOM     21  N   UNL     1      43.894   3.019   9.861  0.00  0.00    +0.000 NA
ATOM     22  C   UNL     1      43.876   3.213  11.199  0.00  0.00    +0.000 A 
BRANCH  20  23
ATOM     23  C   UNL     1      44.661   3.638   7.620  0.00  0.00    +0.000 C 
BRANCH  23  24
ATOM     24  C   UNL     1      45.897   2.858   7.232  0.00  0.00    +0.000 A 
ATOM     25  C   UNL     1      46.682   3.268   6.148  0.00  0.00    +0.000 A 
ATOM     26  C   UNL     1      47.773   2.497   5.784  0.00  0.00    +0.000 A 
ATOM     27  N   UNL     1      48.144   1.371   6.428  0.00  0.00    +0.000 NA
ATOM     28  C   UNL     1      47.391   1.007   7.488  0.00  0.00    +0.000 A 
ATOM     29  C   UNL     1      46.277   1.707   7.926  0.00  0.00    +0.000 A 
ENDBRANCH  23  24
ENDBRANCH  20  23
ENDBRANCH  16  17
ENDBRANCH   3  16
TORSDOF 5
ENDMDL
MODEL 3
REMARK VINA RESULT:    -8.500      1.423      2.016
REMARK INTER + INTRA:         -11.709
REMARK INTER:                 -10.860
REMARK INTRA:                  -0.849
REMARK UNBOUND:                -0.724
REMARK  Name = 
REMARK  5 active torsions:
REMARK  status: ('A' for Active; 'I' for Inactive)
REMARK    1  A    between atoms: C_2  and  C_18
REMARK    2  A    between atoms: N_3  and  C_4
REMARK    3  A    between atoms: C_4  and  C_5
REMARK    4  A    between atoms: C_8  and  C_9
REMARK    5  A    between atoms: C_9  and  C_10
REMARK                            x       y       z     vdW  Elec       q    Type
REMARK                         _______ _______ _______ _____ _____    ______ ____
ROOT
ATOM      1  O   UNL     1      48.381   6.118  13.430  0.00  0.00    +0.000 OA
ATOM      2  C   UNL     1      47.490   5.711  14.170  0.00  0.00    +0.000 C 
ATOM      3  N   UNL     1      46.161   5.898  13.891  0.00  0.00    +0.000 N 
ATOM      4  H   UNL     1      45.474   5.713  14.614  0.00  0.00    +0.000 HD
ENDROOT
BRANCH   2   5
ATOM      5  C   UNL     1      47.794   4.945  15.387  0.00  0.00    +0.000 A 
ATOM      6  C   UNL     1      47.463   3.601  15.456  0.00  0.00    +0.000 A 
ATOM      7  S   UNL     1      47.888   2.871  16.940  0.00  0.00    +0.000 S 
ATOM      8  C   UNL     1      48.568   4.319  17.520  0.00  0.00    +0.000 A 
ATOM      9  N   UNL     1      49.155   4.375  18.745  0.00  0.00    +0.000 NA
ATOM     10  C   UNL     1      49.668   5.522  19.039  0.00  0.00    +0.000 A 
ATOM     11  N   UNL     1      49.629   6.626  18.227  0.00  0.00    +0.000 N 
ATOM     12  C   UNL     1      48.974   6.639  17.020  0.00  0.00    +0.000 A 
ATOM     13  O   UNL     1      48.824   7.682  16.389  0.00  0.00    +0.000 OA
ATOM     14  C   UNL     1      48.437   5.353  16.613  0.00  0.00    +0.000 A 
ATOM     15  H   UNL     1      50.017   7.506  18.533  0.00  0.00    +0.000 HD
ENDBRANCH   2   5
BRANCH   3  16
ATOM     16  C   UNL     1      45.711   6.690  12.775  0.00  0.00    +0.000 C 
BRANCH  16  17
ATOM     17  C   UNL     1      45.426   5.833  11.578  0.00  0.00    +0.000 A 
ATOM     18  C   UNL     1      44.492   4.795  11.618  0.00  0.00    +0.000 A 
ATOM     19  C   UNL     1      44.246   4.040  10.473  0.00  0.00    +0.000 A 
ATOM     20  C   UNL     1      44.942   4.343   9.305  0.00  0.00    +0.000 A 
ATOM     21  N   UNL     1      45.846   5.354   9.242  0.00  0.00    +0.000 NA
ATOM     22  C   UNL     1      46.057   6.076  10.365  0.00  0.00    +0.000 A 
BRANCH  20  23
ATOM     23  C   UNL     1      44.656   3.599   8.019  0.00  0.00    +0.000 C 
BRANCH  23  24
ATOM     24  C   UNL     1      45.850   2.823   7.511  0.00  0.00    +0.000 A 
ATOM     25  C   UNL     1      46.615   3.317   6.448  0.00  0.00    +0.000 A 
ATOM     26  C   UNL     1      47.665   2.551   5.969  0.00  0.00    +0.000 A 
ATOM     27  N   UNL     1      48.014   1.352   6.480  0.00  0.00    +0.000 NA
ATOM     28  C   UNL     1      47.282   0.906   7.523  0.00  0.00    +0.000 A 
ATOM     29  C   UNL     1      46.208   1.594   8.069  0.00  0.00    +0.000 A 
ENDBRANCH  23  24
ENDBRANCH  20  23
ENDBRANCH  16  17
ENDBRANCH   3  16
TORSDOF 5
ENDMDL
MODEL 4
REMARK VINA RESULT:    -8.270      1.833      3.313
REMARK INTER + INTRA:         -11.411
REMARK INTER:                 -10.834
REMARK INTRA:                  -0.577
REMARK UNBOUND:                -0.724
REMARK  Name = 
REMARK  5 active torsions:
REMARK  status: ('A' for Active; 'I' for Inactive)
REMARK    1  A    between atoms: C_2  and  C_18
REMARK    2  A    between atoms: N_3  and  C_4
REMARK    3  A    between atoms: C_4  and  C_5
REMARK    4  A    between atoms: C_8  and  C_9
REMARK    5  A    between atoms: C_9  and  C_10
REMARK                            x       y       z     vdW  Elec       q    Type
REMARK                         _______ _______ _______ _____ _____    ______ ____
ROOT
ATOM      1  O   UNL     1      46.885   3.862  14.376  0.00  0.00    +0.000 OA
ATOM      2  C   UNL     1      46.838   5.069  14.155  0.00  0.00    +0.000 C 
ATOM      3  N   UNL     1      45.707   5.684  13.683  0.00  0.00    +0.000 N 
ATOM      4  H   UNL     1      45.771   6.637  13.342  0.00  0.00    +0.000 HD
ENDROOT
BRANCH   2   5
ATOM      5  C   UNL     1      47.985   5.945  14.432  0.00  0.00    +0.000 A 
ATOM      6  C   UNL     1      48.566   5.942  15.690  0.00  0.00    +0.000 A 
ATOM      7  S   UNL     1      49.883   7.020  15.834  0.00  0.00    +0.000 S 
ATOM      8  C   UNL     1      49.746   7.491  14.204  0.00  0.00    +0.000 A 
ATOM      9  N   UNL     1      50.614   8.383  13.658  0.00  0.00    +0.000 NA
ATOM     10  C   UNL     1      50.421   8.616  12.403  0.00  0.00    +0.000 A 
ATOM     11  N   UNL     1      49.424   8.054  11.649  0.00  0.00    +0.000 N 
ATOM     12  C   UNL     1      48.474   7.214  12.178  0.00  0.00    +0.000 A 
ATOM     13  O   UNL     1      47.507   6.851  11.515  0.00  0.00    +0.000 OA
ATOM     14  C   UNL     1      48.687   6.868  13.571  0.00  0.00    +0.000 A 
ATOM     15  H   UNL     1      49.305   8.308  10.680  0.00  0.00    +0.000 HD
ENDBRANCH   2   5
BRANCH   3  16
ATOM     16  C   UNL     1      44.531   4.947  13.299  0.00  0.00    +0.000 C 
BRANCH  16  17
ATOM     17  C   UNL     1      44.586   4.546  11.855  0.00  0.00    +0.000 A 
ATOM     18  C   UNL     1      44.062   3.331  11.406  0.00  0.00    +0.000 A 
ATOM     19  C   UNL     1      44.119   3.013  10.051  0.00  0.00    +0.000 A 
ATOM     20  C   UNL     1      44.699   3.922   9.169  0.00  0.00    +0.000 A 
ATOM     21  N   UNL     1      45.205   5.111   9.584  0.00  0.00    +0.000 NA
ATOM     22  C   UNL     1      45.128   5.398  10.903  0.00  0.00    +0.000 A 
BRANCH  20  23
ATOM     23  C   UNL     1      44.718   3.651   7.680  0.00  0.00    +0.000 C 
BRANCH  23  24
ATOM     24  C   UNL     1      45.914   2.836   7.246  0.00  0.00    +0.000 A 
ATOM     25  C   UNL     1      46.261   1.666   7.932  0.00  0.00    +0.000 A 
ATOM     26  C   UNL     1      47.398   0.976   7.543  0.00  0.00    +0.000 A 
ATOM     27  N   UNL     1      48.192   1.355   6.521  0.00  0.00    +0.000 NA
ATOM     28  C   UNL     1      47.825   2.470   5.853  0.00  0.00    +0.000 A 
ATOM     29  C   UNL     1      46.711   3.233   6.169  0.00  0.00    +0.000 A 
ENDBRANCH  23  24
ENDBRANCH  20  23
ENDBRANCH  16  17
ENDBRANCH   3  16
TORSDOF 5
ENDMDL
MODEL 5
REMARK VINA RESULT:    -7.911      2.212      3.069
REMARK INTER + INTRA:         -10.947
REMARK INTER:                  -9.983
REMARK INTRA:                  -0.965
REMARK UNBOUND:                -0.724
REMARK  Name = 
REMARK  5 active torsions:
REMARK  status: ('A' for Active; 'I' for Inactive)
REMARK    1  A    between atoms: C_2  and  C_18
REMARK    2  A    between atoms: N_3  and  C_4
REMARK    3  A    between atoms: C_4  and  C_5
REMARK    4  A    between atoms: C_8  and  C_9
REMARK    5  A    between atoms: C_9  and  C_10
REMARK                            x       y       z     vdW  Elec       q    Type
REMARK                         _______ _______ _______ _____ _____    ______ ____
ROOT
ATOM      1  O   UNL     1      46.548   8.301  13.518  0.00  0.00    +0.000 OA
ATOM      2  C   UNL     1      47.450   7.475  13.620  0.00  0.00    +0.000 C 
ATOM      3  N   UNL     1      47.215   6.124  13.596  0.00  0.00    +0.000 N 
ATOM      4  H   UNL     1      47.957   5.489  13.868  0.00  0.00    +0.000 HD
ENDROOT
BRANCH   2   5
ATOM      5  C   UNL     1      48.858   7.885  13.724  0.00  0.00    +0.000 A 
ATOM      6  C   UNL     1      49.370   8.821  12.839  0.00  0.00    +0.000 A 
ATOM      7  S   UNL     1      51.019   9.178  13.105  0.00  0.00    +0.000 S 
ATOM      8  C   UNL     1      51.087   8.125  14.440  0.00  0.00    +0.000 A 
ATOM      9  N   UNL     1      52.230   7.985  15.163  0.00  0.00    +0.000 NA
ATOM     10  C   UNL     1      52.128   7.189  16.174  0.00  0.00    +0.000 A 
ATOM     11  N   UNL     1      50.993   6.502  16.515  0.00  0.00    +0.000 N 
ATOM     12  C   UNL     1      49.843   6.546  15.766  0.00  0.00    +0.000 A 
ATOM     13  O   UNL     1      48.896   5.803  16.008  0.00  0.00    +0.000 OA
ATOM     14  C   UNL     1      49.884   7.480  14.655  0.00  0.00    +0.000 A 
ATOM     15  H   UNL     1      50.991   5.865  17.297  0.00  0.00    +0.000 HD
ENDBRANCH   2   5
BRANCH   3  16
ATOM     16  C   UNL     1      45.884   5.574  13.571  0.00  0.00    +0.000 C 
BRANCH  16  17
ATOM     17  C   UNL     1      45.535   5.052  12.209  0.00  0.00    +0.000 A 
ATOM     18  C   UNL     1      45.589   5.861  11.071  0.00  0.00    +0.000 A 
ATOM     19  C   UNL     1      45.276   5.323   9.825  0.00  0.00    +0.000 A 
ATOM     20  C   UNL     1      44.915   3.980   9.742  0.00  0.00    +0.000 A 
ATOM     21  N   UNL     1      44.865   3.175  10.833  0.00  0.00    +0.000 NA
ATOM     22  C   UNL     1      45.184   3.721  12.029  0.00  0.00    +0.000 A 
BRANCH  20  23
ATOM     23  C   UNL     1      44.636   3.336   8.402  0.00  0.00    +0.000 C 
BRANCH  23  24
ATOM     24  C   UNL     1      45.849   2.648   7.816  0.00  0.00    +0.000 A 
ATOM     25  C   UNL     1      46.079   1.289   8.059  0.00  0.00    +0.000 A 
ATOM     26  C   UNL     1      47.230   0.706   7.557  0.00  0.00    +0.000 A 
ATOM     27  N   UNL     1      48.147   1.369   6.822  0.00  0.00    +0.000 NA
ATOM     28  C   UNL     1      47.894   2.672   6.574  0.00  0.00    +0.000 A 
ATOM     29  C   UNL     1      46.775   3.347   7.039  0.00  0.00    +0.000 A 
ENDBRANCH  23  24
ENDBRANCH  20  23
ENDBRANCH  16  17
ENDBRANCH   3  16
TORSDOF 5
ENDMDL
MODEL 6
REMARK VINA RESULT:    -7.811      1.244      1.900
REMARK INTER + INTRA:         -10.819
REMARK INTER:                  -9.860
REMARK INTRA:                  -0.959
REMARK UNBOUND:                -0.724
REMARK  Name = 
REMARK  5 active torsions:
REMARK  status: ('A' for Active; 'I' for Inactive)
REMARK    1  A    between atoms: C_2  and  C_18
REMARK    2  A    between atoms: N_3  and  C_4
REMARK    3  A    between atoms: C_4  and  C_5
REMARK    4  A    between atoms: C_8  and  C_9
REMARK    5  A    between atoms: C_9  and  C_10
REMARK                            x       y       z     vdW  Elec       q    Type
REMARK                         _______ _______ _______ _____ _____    ______ ____
ROOT
ATOM      1  O   UNL     1      49.739   6.953  14.155  0.00  0.00    +0.000 OA
ATOM      2  C   UNL     1      48.816   6.837  14.957  0.00  0.00    +0.000 C 
ATOM      3  N   UNL     1      47.531   7.206  14.655  0.00  0.00    +0.000 N 
ATOM      4  H   UNL     1      46.847   7.266  15.402  0.00  0.00    +0.000 HD
ENDROOT
BRANCH   2   5
ATOM      5  C   UNL     1      49.025   6.244  16.286  0.00  0.00    +0.000 A 
ATOM      6  C   UNL     1      49.797   6.910  17.224  0.00  0.00    +0.000 A 
ATOM      7  S   UNL     1      49.934   6.076  18.708  0.00  0.00    +0.000 S 
ATOM      8  C   UNL     1      48.927   4.819  18.157  0.00  0.00    +0.000 A 
ATOM      9  N   UNL     1      48.600   3.778  18.968  0.00  0.00    +0.000 NA
ATOM     10  C   UNL     1      47.795   2.921  18.437  0.00  0.00    +0.000 A 
ATOM     11  N   UNL     1      47.305   2.998  17.159  0.00  0.00    +0.000 N 
ATOM     12  C   UNL     1      47.675   3.984  16.278  0.00  0.00    +0.000 A 
ATOM     13  O   UNL     1      47.342   3.940  15.097  0.00  0.00    +0.000 OA
ATOM     14  C   UNL     1      48.527   5.011  16.849  0.00  0.00    +0.000 A 
ATOM     15  H   UNL     1      46.708   2.272  16.791  0.00  0.00    +0.000 HD
ENDBRANCH   2   5
BRANCH   3  16
ATOM     16  C   UNL     1      47.187   7.866  13.422  0.00  0.00    +0.000 C 
BRANCH  16  17
ATOM     17  C   UNL     1      46.298   7.008  12.572  0.00  0.00    +0.000 A 
ATOM     18  C   UNL     1      45.322   7.557  11.737  0.00  0.00    +0.000 A 
ATOM     19  C   UNL     1      44.534   6.719  10.950  0.00  0.00    +0.000 A 
ATOM     20  C   UNL     1      44.743   5.343  11.015  0.00  0.00    +0.000 A 
ATOM     21  N   UNL     1      45.692   4.791  11.812  0.00  0.00    +0.000 NA
ATOM     22  C   UNL     1      46.449   5.629  12.557  0.00  0.00    +0.000 A 
BRANCH  20  23
ATOM     23  C   UNL     1      43.962   4.400  10.126  0.00  0.00    +0.000 C 
BRANCH  23  24
ATOM     24  C   UNL     1      44.843   3.621   9.176  0.00  0.00    +0.000 A 
ATOM     25  C   UNL     1      44.912   2.225   9.259  0.00  0.00    +0.000 A 
ATOM     26  C   UNL     1      45.775   1.549   8.412  0.00  0.00    +0.000 A 
ATOM     27  N   UNL     1      46.550   2.155   7.489  0.00  0.00    +0.000 NA
ATOM     28  C   UNL     1      46.447   3.499   7.406  0.00  0.00    +0.000 A 
ATOM     29  C   UNL     1      45.620   4.267   8.212  0.00  0.00    +0.000 A 
ENDBRANCH  23  24
ENDBRANCH  20  23
ENDBRANCH  16  17
ENDBRANCH   3  16
TORSDOF 5
ENDMDL
MODEL 7
REMARK VINA RESULT:    -7.209      3.962      9.049
REMARK INTER + INTRA:         -10.041
REMARK INTER:                  -9.527
REMARK INTRA:                  -0.515
REMARK UNBOUND:                -0.724
REMARK  Name = 
REMARK  5 active torsions:
REMARK  status: ('A' for Active; 'I' for Inactive)
REMARK    1  A    between atoms: C_2  and  C_18
REMARK    2  A    between atoms: N_3  and  C_4
REMARK    3  A    between atoms: C_4  and  C_5
REMARK    4  A    between atoms: C_8  and  C_9
REMARK    5  A    between atoms: C_9  and  C_10
REMARK                            x       y       z     vdW  Elec       q    Type
REMARK                         _______ _______ _______ _____ _____    ______ ____
ROOT
ATOM      1  O   UNL     1      47.250   3.183  13.971  0.00  0.00    +0.000 OA
ATOM      2  C   UNL     1      46.732   4.202  14.420  0.00  0.00    +0.000 C 
ATOM      3  N   UNL     1      46.698   4.477  15.763  0.00  0.00    +0.000 N 
ATOM      4  H   UNL     1      46.103   5.228  16.097  0.00  0.00    +0.000 HD
ENDROOT
BRANCH   2   5
ATOM      5  C   UNL     1      46.156   5.224  13.534  0.00  0.00    +0.000 A 
ATOM      6  C   UNL     1      46.890   6.358  13.222  0.00  0.00    +0.000 A 
ATOM      7  S   UNL     1      46.068   7.437  12.185  0.00  0.00    +0.000 S 
ATOM      8  C   UNL     1      44.722   6.399  12.084  0.00  0.00    +0.000 A 
ATOM      9  N   UNL     1      43.652   6.716  11.308  0.00  0.00    +0.000 NA
ATOM     10  C   UNL     1      42.723   5.820  11.290  0.00  0.00    +0.000 A 
ATOM     11  N   UNL     1      42.757   4.645  11.995  0.00  0.00    +0.000 N 
ATOM     12  C   UNL     1      43.777   4.324  12.857  0.00  0.00    +0.000 A 
ATOM     13  O   UNL     1      43.706   3.341  13.589  0.00  0.00    +0.000 OA
ATOM     14  C   UNL     1      44.880   5.268  12.862  0.00  0.00    +0.000 A 
ATOM     15  H   UNL     1      41.979   4.004  11.967  0.00  0.00    +0.000 HD
ENDBRANCH   2   5
BRANCH   3  16
ATOM     16  C   UNL     1      47.157   3.539  16.754  0.00  0.00    +0.000 C 
BRANCH  16  17
ATOM     17  C   UNL     1      48.612   3.737  17.061  0.00  0.00    +0.000 A 
ATOM     18  C   UNL     1      49.477   2.659  17.265  0.00  0.00    +0.000 A 
ATOM     19  C   UNL     1      50.825   2.894  17.526  0.00  0.00    +0.000 A 
ATOM     20  C   UNL     1      51.282   4.209  17.576  0.00  0.00    +0.000 A 
ATOM     21  N   UNL     1      50.460   5.269  17.371  0.00  0.00    +0.000 NA
ATOM     22  C   UNL     1      49.159   5.011  17.109  0.00  0.00    +0.000 A 
BRANCH  20  23
ATOM     23  C   UNL     1      52.750   4.510  17.785  0.00  0.00    +0.000 C 
BRANCH  23  24
ATOM     24  C   UNL     1      53.459   3.449  18.595  0.00  0.00    +0.000 A 
ATOM     25  C   UNL     1      53.727   3.656  19.953  0.00  0.00    +0.000 A 
ATOM     26  C   UNL     1      54.431   2.688  20.650  0.00  0.00    +0.000 A 
ATOM     27  N   UNL     1      54.865   1.535  20.100  0.00  0.00    +0.000 NA
ATOM     28  C   UNL     1      54.572   1.341  18.796  0.00  0.00    +0.000 A 
ATOM     29  C   UNL     1      53.880   2.251  18.012  0.00  0.00    +0.000 A 
ENDBRANCH  23  24
ENDBRANCH  20  23
ENDBRANCH  16  17
ENDBRANCH   3  16
TORSDOF 5
ENDMDL
MODEL 8
REMARK VINA RESULT:    -7.079      3.966      8.497
REMARK INTER + INTRA:          -9.873
REMARK INTER:                  -8.997
REMARK INTRA:                  -0.876
REMARK UNBOUND:                -0.724
REMARK  Name = 
REMARK  5 active torsions:
REMARK  status: ('A' for Active; 'I' for Inactive)
REMARK    1  A    between atoms: C_2  and  C_18
REMARK    2  A    between atoms: N_3  and  C_4
REMARK    3  A    between atoms: C_4  and  C_5
REMARK    4  A    between atoms: C_8  and  C_9
REMARK    5  A    between atoms: C_9  and  C_10
REMARK                            x       y       z     vdW  Elec       q    Type
REMARK                         _______ _______ _______ _____ _____    ______ ____
ROOT
ATOM      1  O   UNL     1      47.310   3.106  14.059  0.00  0.00    +0.000 OA
ATOM      2  C   UNL     1      46.855   4.148  14.520  0.00  0.00    +0.000 C 
ATOM      3  N   UNL     1      46.786   4.386  15.869  0.00  0.00    +0.000 N 
ATOM      4  H   UNL     1      46.238   5.170  16.204  0.00  0.00    +0.000 HD
ENDROOT
BRANCH   2   5
ATOM      5  C   UNL     1      46.397   5.238  13.646  0.00  0.00    +0.000 A 
ATOM      6  C   UNL     1      47.237   6.309  13.383  0.00  0.00    +0.000 A 
ATOM      7  S   UNL     1      46.543   7.481  12.352  0.00  0.00    +0.000 S 
ATOM      8  C   UNL     1      45.115   6.570  12.190  0.00  0.00    +0.000 A 
ATOM      9  N   UNL     1      44.099   6.999  11.395  0.00  0.00    +0.000 NA
ATOM     10  C   UNL     1      43.095   6.190  11.329  0.00  0.00    +0.000 A 
ATOM     11  N   UNL     1      43.005   5.001  12.004  0.00  0.00    +0.000 N 
ATOM     12  C   UNL     1      43.968   4.570  12.884  0.00  0.00    +0.000 A 
ATOM     13  O   UNL     1      43.789   3.580  13.589  0.00  0.00    +0.000 OA
ATOM     14  C   UNL     1      45.149   5.412  12.942  0.00  0.00    +0.000 A 
ATOM     15  H   UNL     1      42.174   4.432  11.939  0.00  0.00    +0.000 HD
ENDBRANCH   2   5
BRANCH   3  16
ATOM     16  C   UNL     1      47.130   3.385  16.846  0.00  0.00    +0.000 C 
BRANCH  16  17
ATOM     17  C   UNL     1      48.540   3.554  17.328  0.00  0.00    +0.000 A 
ATOM     18  C   UNL     1      49.539   2.625  17.028  0.00  0.00    +0.000 A 
ATOM     19  C   UNL     1      50.840   2.837  17.481  0.00  0.00    +0.000 A 
ATOM     20  C   UNL     1      51.115   3.982  18.225  0.00  0.00    +0.000 A 
ATOM     21  N   UNL     1      50.161   4.902  18.519  0.00  0.00    +0.000 NA
ATOM     22  C   UNL     1      48.910   4.675  18.059  0.00  0.00    +0.000 A 
BRANCH  20  23
ATOM     23  C   UNL     1      52.526   4.290  18.676  0.00  0.00    +0.000 C 
BRANCH  23  24
ATOM     24  C   UNL     1      53.366   4.921  17.590  0.00  0.00    +0.000 A 
ATOM     25  C   UNL     1      52.874   6.004  16.852  0.00  0.00    +0.000 A 
ATOM     26  C   UNL     1      53.647   6.519  15.825  0.00  0.00    +0.000 A 
ATOM     27  N   UNL     1      54.868   6.048  15.496  0.00  0.00    +0.000 NA
ATOM     28  C   UNL     1      55.338   5.021  16.237  0.00  0.00    +0.000 A 
ATOM     29  C   UNL     1      54.638   4.433  17.281  0.00  0.00    +0.000 A 
ENDBRANCH  23  24
ENDBRANCH  20  23
ENDBRANCH  16  17
ENDBRANCH   3  16
TORSDOF 5
ENDMDL
MODEL 9
REMARK VINA RESULT:    -6.861      2.211      2.844
REMARK INTER + INTRA:          -9.591
REMARK INTER:                  -8.723
REMARK INTRA:                  -0.867
REMARK UNBOUND:                -0.724
REMARK  Name = 
REMARK  5 active torsions:
REMARK  status: ('A' for Active; 'I' for Inactive)
REMARK    1  A    between atoms: C_2  and  C_18
REMARK    2  A    between atoms: N_3  and  C_4
REMARK    3  A    between atoms: C_4  and  C_5
REMARK    4  A    between atoms: C_8  and  C_9
REMARK    5  A    between atoms: C_9  and  C_10
REMARK                            x       y       z     vdW  Elec       q    Type
REMARK                         _______ _______ _______ _____ _____    ______ ____
ROOT
ATOM      1  O   UNL     1      49.914   8.506  16.119  0.00  0.00    +0.000 OA
ATOM      2  C   UNL     1      49.008   7.717  16.377  0.00  0.00    +0.000 C 
ATOM      3  N   UNL     1      48.294   7.075  15.399  0.00  0.00    +0.000 N 
ATOM      4  H   UNL     1      47.444   6.584  15.651  0.00  0.00    +0.000 HD
ENDROOT
BRANCH   2   5
ATOM      5  C   UNL     1      48.665   7.371  17.763  0.00  0.00    +0.000 A 
ATOM      6  C   UNL     1      48.116   8.333  18.598  0.00  0.00    +0.000 A 
ATOM      7  S   UNL     1      47.781   7.758  20.170  0.00  0.00    +0.000 S 
ATOM      8  C   UNL     1      48.318   6.193  19.771  0.00  0.00    +0.000 A 
ATOM      9  N   UNL     1      48.266   5.182  20.679  0.00  0.00    +0.000 NA
ATOM     10  C   UNL     1      48.663   4.040  20.229  0.00  0.00    +0.000 A 
ATOM     11  N   UNL     1      49.129   3.820  18.959  0.00  0.00    +0.000 N 
ATOM     12  C   UNL     1      49.280   4.827  18.037  0.00  0.00    +0.000 A 
ATOM     13  O   UNL     1      49.844   4.628  16.965  0.00  0.00    +0.000 OA
ATOM     14  C   UNL     1      48.784   6.120  18.472  0.00  0.00    +0.000 A 
ATOM     15  H   UNL     1      49.461   2.908  18.682  0.00  0.00    +0.000 HD
ENDBRANCH   2   5
BRANCH   3  16
ATOM     16  C   UNL     1      48.469   7.366  13.999  0.00  0.00    +0.000 C 
BRANCH  16  17
ATOM     17  C   UNL     1      47.468   6.630  13.159  0.00  0.00    +0.000 A 
ATOM     18  C   UNL     1      46.915   5.413  13.566  0.00  0.00    +0.000 A 
ATOM     19  C   UNL     1      45.973   4.778  12.761  0.00  0.00    +0.000 A 
ATOM     20  C   UNL     1      45.600   5.377  11.559  0.00  0.00    +0.000 A 
ATOM     21  N   UNL     1      46.118   6.563  11.150  0.00  0.00    +0.000 NA
ATOM     22  C   UNL     1      47.023   7.162  11.957  0.00  0.00    +0.000 A 
BRANCH  20  23
ATOM     23  C   UNL     1      44.529   4.760  10.687  0.00  0.00    +0.000 C 
BRANCH  23  24
ATOM     24  C   UNL     1      45.092   3.865   9.607  0.00  0.00    +0.000 A 
ATOM     25  C   UNL     1      45.708   4.419   8.478  0.00  0.00    +0.000 A 
ATOM     26  C   UNL     1      46.159   3.571   7.480  0.00  0.00    +0.000 A 
ATOM     27  N   UNL     1      46.058   2.227   7.536  0.00  0.00    +0.000 NA
ATOM     28  C   UNL     1      45.487   1.711   8.645  0.00  0.00    +0.000 A 
ATOM     29  C   UNL     1      44.998   2.475   9.694  0.00  0.00    +0.000 A 
ENDBRANCH  23  24
ENDBRANCH  20  23
ENDBRANCH  16  17
ENDBRANCH   3  16
TORSDOF 5
ENDMDL
