MODEL 1
REMARK VINA RESULT:    -7.530      0.000      0.000
REMARK INTER + INTRA:         -10.659
REMARK INTER:                 -10.392
REMARK INTRA:                  -0.268
REMARK UNBOUND:                -0.268
REMARK  Name = 
REMARK  10 active torsions:
REMARK  status: ('A' for Active; 'I' for Inactive)
REMARK    1  A    between atoms: C_1  and  C_2
REMARK    2  A    between atoms: C_2  and  C_3
REMARK    3  A    between atoms: C_2  and  C_4
REMARK    4  A    between atoms: C_2  and  C_5
REMARK    5  A    between atoms: C_7  and  C_8
REMARK    6  A    between atoms: C_13  and  O_14
REMARK    7  A    between atoms: O_14  and  C_15
REMARK    8  A    between atoms: C_15  and  C_16
REMARK    9  A    between atoms: C_19  and  C_20
REMARK   10  A    between atoms: C_20  and  N_21
REMARK                            x       y       z     vdW  Elec       q    Type
REMARK                         _______ _______ _______ _____ _____    ______ ____
ROOT
ATOM      1  C   UNL     1      46.455   6.032  12.825  0.00  0.00    +0.000 A 
ATOM      2  N   UNL     1      47.028   5.678  14.019  0.00  0.00    +0.000 NA
ATOM      3  C   UNL     1      46.900   4.390  14.443  0.00  0.00    +0.000 A 
ATOM      4  C   UNL     1      46.229   3.415  13.730  0.00  0.00    +0.000 A 
ATOM      5  C   UNL     1      45.645   3.776  12.523  0.00  0.00    +0.000 A 
ATOM      6  C   UNL     1      45.724   5.097  12.067  0.00  0.00    +0.000 A 
ENDROOT
BRANCH   3   7
ATOM      7  C   UNL     1      47.542   4.033  15.748  0.00  0.00    +0.000 C 
ATOM      8  N   UNL     1      47.259   4.866  16.797  0.00  0.00    +0.000 N 
ATOM      9  O   UNL     1      48.274   3.060  15.880  0.00  0.00    +0.000 OA
ATOM     10  H   UNL     1      46.654   5.665  16.649  0.00  0.00    +0.000 HD
ATOM     11  H   UNL     1      47.668   4.687  17.699  0.00  0.00    +0.000 HD
ENDBRANCH   3   7
BRANCH   1  13
ATOM     12  C   UNL     1      47.877   7.526  11.410  0.00  0.00    +0.000 C 
ATOM     13  C   UNL     1      46.705   7.499  12.415  0.00  0.00    +0.000 C 
ATOM     14  C   UNL     1      47.100   8.302  13.675  0.00  0.00    +0.000 C 
ATOM     15  C   UNL     1      45.540   8.263  11.749  0.00  0.00    +0.000 C 
ENDBRANCH   1  13
BRANCH   6  16
ATOM     16  O   UNL     1      45.185   5.491  10.881  0.00  0.00    +0.000 OA
BRANCH  16  17
ATOM     17  C   UNL     1      44.307   4.618  10.171  0.00  0.00    +0.000 C 
BRANCH  17  18
ATOM     18  C   UNL     1      45.088   3.754   9.219  0.00  0.00    +0.000 A 
ATOM     19  C   UNL     1      45.838   4.316   8.185  0.00  0.00    +0.000 A 
ATOM     20  C   UNL     1      46.577   3.492   7.335  0.00  0.00    +0.000 A 
ATOM     21  C   UNL     1      46.564   2.115   7.547  0.00  0.00    +0.000 A 
ATOM     22  N   UNL     1      45.856   1.549   8.554  0.00  0.00    +0.000 NA
ATOM     23  C   UNL     1      45.146   2.371   9.360  0.00  0.00    +0.000 A 
BRANCH  21  24
ATOM     24  C   UNL     1      47.389   1.184   6.684  0.00  0.00    +0.000 C 
BRANCH  24  25
ATOM     25  N   UNL     1      48.496   1.842   5.982  0.00  0.00    +0.000 NA
ATOM     26  H   UNL     1      49.259   1.962   6.648  0.00  0.00    +0.000 HD
ATOM     27  H   UNL     1      48.198   2.784   5.736  0.00  0.00    +0.000 HD
ENDBRANCH  24  25
ENDBRANCH  21  24
ENDBRANCH  17  18
ENDBRANCH  16  17
ENDBRANCH   6  16
TORSDOF 7
ENDMDL
MODEL 2
REMARK VINA RESULT:    -7.002      0.727      1.377
REMARK INTER + INTRA:          -9.930
REMARK INTER:                  -9.662
REMARK INTRA:                  -0.268
REMARK UNBOUND:                -0.268
REMARK  Name = 
REMARK  10 active torsions:
REMARK  status: ('A' for Active; 'I' for Inactive)
REMARK    1  A    between atoms: C_1  and  C_2
REMARK    2  A    between atoms: C_2  and  C_3
REMARK    3  A    between atoms: C_2  and  C_4
REMARK    4  A    between atoms: C_2  and  C_5
REMARK    5  A    between atoms: C_7  and  C_8
REMARK    6  A    between atoms: C_13  and  O_14
REMARK    7  A    between atoms: O_14  and  C_15
REMARK    8  A    between atoms: C_15  and  C_16
REMARK    9  A    between atoms: C_19  and  C_20
REMARK   10  A    between atoms: C_20  and  N_21
REMARK                            x       y       z     vdW  Elec       q    Type
REMARK                         _______ _______ _______ _____ _____    ______ ____
ROOT
ATOM      1  C   UNL     1      46.573   6.098  12.897  0.00  0.00    +0.000 A 
ATOM      2  N   UNL     1      47.121   5.692  14.086  0.00  0.00    +0.000 NA
ATOM      3  C   UNL     1      46.911   4.409  14.492  0.00  0.00    +0.000 A 
ATOM      4  C   UNL     1      46.178   3.489  13.766  0.00  0.00    +0.000 A 
ATOM      5  C   UNL     1      45.619   3.903  12.565  0.00  0.00    +0.000 A 
ATOM      6  C   UNL     1      45.783   5.222  12.127  0.00  0.00    +0.000 A 
ENDROOT
BRANCH   3   7
ATOM      7  C   UNL     1      47.527   3.993  15.792  0.00  0.00    +0.000 C 
ATOM      8  N   UNL     1      47.235   4.787  16.869  0.00  0.00    +0.000 N 
ATOM      9  O   UNL     1      48.247   3.008  15.898  0.00  0.00    +0.000 OA
ATOM     10  H   UNL     1      46.642   5.599  16.743  0.00  0.00    +0.000 HD
ATOM     11  H   UNL     1      47.627   4.569  17.769  0.00  0.00    +0.000 HD
ENDBRANCH   3   7
BRANCH   1  13
ATOM     12  C   UNL     1      47.428   8.281  13.770  0.00  0.00    +0.000 C 
ATOM     13  C   UNL     1      46.917   7.552  12.508  0.00  0.00    +0.000 C 
ATOM     14  C   UNL     1      45.630   8.246  12.009  0.00  0.00    +0.000 C 
ATOM     15  C   UNL     1      47.988   7.765  11.417  0.00  0.00    +0.000 C 
ENDBRANCH   1  13
BRANCH   6  16
ATOM     16  O   UNL     1      45.272   5.666  10.946  0.00  0.00    +0.000 OA
BRANCH  16  17
ATOM     17  C   UNL     1      44.414   4.824  10.177  0.00  0.00    +0.000 C 
BRANCH  17  18
ATOM     18  C   UNL     1      45.218   4.019   9.194  0.00  0.00    +0.000 A 
ATOM     19  C   UNL     1      45.185   2.623   9.206  0.00  0.00    +0.000 A 
ATOM     20  C   UNL     1      45.918   1.903   8.263  0.00  0.00    +0.000 A 
ATOM     21  C   UNL     1      46.663   2.595   7.311  0.00  0.00    +0.000 A 
ATOM     22  N   UNL     1      46.699   3.949   7.271  0.00  0.00    +0.000 NA
ATOM     23  C   UNL     1      45.981   4.622   8.200  0.00  0.00    +0.000 A 
BRANCH  21  24
ATOM     24  C   UNL     1      47.435   1.858   6.236  0.00  0.00    +0.000 C 
BRANCH  24  25
ATOM     25  N   UNL     1      48.192   2.734   5.336  0.00  0.00    +0.000 NA
ATOM     26  H   UNL     1      47.626   2.885   4.501  0.00  0.00    +0.000 HD
ATOM     27  H   UNL     1      49.016   2.226   5.019  0.00  0.00    +0.000 HD
ENDBRANCH  24  25
ENDBRANCH  21  24
ENDBRANCH  17  18
ENDBRANCH  16  17
ENDBRANCH   6  16
TORSDOF 7
ENDMDL
MODEL 3
REMARK VINA RESULT:    -6.429      2.764      6.998
REMARK INTER + INTRA:          -9.140
REMARK INTER:                  -8.990
REMARK INTRA:                  -0.150
REMARK UNBOUND:                -0.268
REMARK  Name = 
REMARK  10 active torsions:
REMARK  status: ('A' for Active; 'I' for Inactive)
REMARK    1  A    between atoms: C_1  and  C_2
REMARK    2  A    between atoms: C_2  and  C_3
REMARK    3  A    between atoms: C_2  and  C_4
REMARK    4  A    between atoms: C_2  and  C_5
REMARK    5  A    between atoms: C_7  and  C_8
REMARK    6  A    between atoms: C_13  and  O_14
REMARK    7  A    between atoms: O_14  and  C_15
REMARK    8  A    between atoms: C_15  and  C_16
REMARK    9  A    between atoms: C_19  and  C_20
REMARK   10  A    between atoms: C_20  and  N_21
REMARK                            x       y       z     vdW  Elec       q    Type
REMARK                         _______ _______ _______ _____ _____    ______ ____
ROOT
ATOM      1  C   UNL     1      46.827   5.989  12.923  0.00  0.00    +0.000 A 
ATOM      2  N   UNL     1      46.162   5.803  11.739  0.00  0.00    +0.000 NA
ATOM      3  C   UNL     1      45.523   4.619  11.532  0.00  0.00    +0.000 A 
ATOM      4  C   UNL     1      45.501   3.591  12.457  0.00  0.00    +0.000 A 
ATOM      5  C   UNL     1      46.180   3.779  13.654  0.00  0.00    +0.000 A 
ATOM      6  C   UNL     1      46.877   4.968  13.892  0.00  0.00    +0.000 A 
ENDROOT
BRANCH   3   7
ATOM      7  C   UNL     1      44.801   4.448  10.231  0.00  0.00    +0.000 C 
ATOM      8  N   UNL     1      45.301   5.163   9.176  0.00  0.00    +0.000 N 
ATOM      9  O   UNL     1      43.825   3.718  10.107  0.00  0.00    +0.000 OA
ATOM     10  H   UNL     1      46.105   5.763   9.317  0.00  0.00    +0.000 HD
ATOM     11  H   UNL     1      44.854   5.102   8.277  0.00  0.00    +0.000 HD
ENDBRANCH   3   7
BRANCH   1  13
ATOM     12  C   UNL     1      46.338   8.422  13.236  0.00  0.00    +0.000 C 
ATOM     13  C   UNL     1      47.470   7.383  13.074  0.00  0.00    +0.000 C 
ATOM     14  C   UNL     1      48.267   7.701  11.789  0.00  0.00    +0.000 C 
ATOM     15  C   UNL     1      48.435   7.600  14.260  0.00  0.00    +0.000 C 
ENDBRANCH   1  13
BRANCH   6  16
ATOM     16  O   UNL     1      47.537   5.203  15.059  0.00  0.00    +0.000 OA
BRANCH  16  17
ATOM     17  C   UNL     1      47.312   4.361  16.190  0.00  0.00    +0.000 C 
BRANCH  17  18
ATOM     18  C   UNL     1      48.583   3.659  16.578  0.00  0.00    +0.000 A 
ATOM     19  C   UNL     1      49.553   4.298  17.352  0.00  0.00    +0.000 A 
ATOM     20  C   UNL     1      50.710   3.612  17.722  0.00  0.00    +0.000 A 
ATOM     21  C   UNL     1      50.870   2.287  17.322  0.00  0.00    +0.000 A 
ATOM     22  N   UNL     1      49.935   1.642  16.583  0.00  0.00    +0.000 NA
ATOM     23  C   UNL     1      48.825   2.332  16.235  0.00  0.00    +0.000 A 
BRANCH  21  24
ATOM     24  C   UNL     1      52.084   1.485  17.741  0.00  0.00    +0.000 C 
BRANCH  24  25
ATOM     25  N   UNL     1      51.781   0.109  18.147  0.00  0.00    +0.000 NA
ATOM     26  H   UNL     1      52.659  -0.410  18.161  0.00  0.00    +0.000 HD
ATOM     27  H   UNL     1      51.221  -0.321  17.414  0.00  0.00    +0.000 HD
ENDBRANCH  24  25
ENDBRANCH  21  24
ENDBRANCH  17  18
ENDBRANCH  16  17
ENDBRANCH   6  16
TORSDOF 7
ENDMDL
MODEL 4
REMARK VINA RESULT:    -6.094      3.523      7.146
REMARK INTER + INTRA:          -8.677
REMARK INTER:                  -8.347
REMARK INTRA:                  -0.329
REMARK UNBOUND:                -0.268
REMARK  Name = 
REMARK  10 active torsions:
REMARK  status: ('A' for Active; 'I' for Inactive)
REMARK    1  A    between atoms: C_1  and  C_2
REMARK    2  A    between atoms: C_2  and  C_3
REMARK    3  A    between atoms: C_2  and  C_4
REMARK    4  A    between atoms: C_2  and  C_5
REMARK    5  A    between atoms: C_7  and  C_8
REMARK    6  A    between atoms: C_13  and  O_14
REMARK    7  A    between atoms: O_14  and  C_15
REMARK    8  A    between atoms: C_15  and  C_16
REMARK    9  A    between atoms: C_19  and  C_20
REMARK   10  A    between atoms: C_20  and  N_21
REMARK                            x       y       z     vdW  Elec       q    Type
REMARK                         _______ _______ _______ _____ _____    ______ ____
ROOT
ATOM      1  C   UNL     1      46.201   5.738  13.063  0.00  0.00    +0.000 A 
ATOM      2  N   UNL     1      46.301   6.963  12.457  0.00  0.00    +0.000 NA
ATOM      3  C   UNL     1      47.226   7.845  12.926  0.00  0.00    +0.000 A 
ATOM      4  C   UNL     1      48.078   7.571  13.979  0.00  0.00    +0.000 A 
ATOM      5  C   UNL     1      47.972   6.331  14.595  0.00  0.00    +0.000 A 
ATOM      6  C   UNL     1      47.012   5.408  14.166  0.00  0.00    +0.000 A 
ENDROOT
BRANCH   3   7
ATOM      7  C   UNL     1      47.315   9.173  12.239  0.00  0.00    +0.000 C 
ATOM      8  N   UNL     1      46.223   9.987  12.375  0.00  0.00    +0.000 N 
ATOM      9  O   UNL     1      48.297   9.520  11.594  0.00  0.00    +0.000 OA
ATOM     10  H   UNL     1      45.425   9.665  12.910  0.00  0.00    +0.000 HD
ATOM     11  H   UNL     1      46.215  10.889  11.928  0.00  0.00    +0.000 HD
ENDBRANCH   3   7
BRANCH   1  13
ATOM     12  C   UNL     1      44.988   5.208  10.941  0.00  0.00    +0.000 C 
ATOM     13  C   UNL     1      45.158   4.799  12.420  0.00  0.00    +0.000 C 
ATOM     14  C   UNL     1      43.811   4.982  13.154  0.00  0.00    +0.000 C 
ATOM     15  C   UNL     1      45.463   3.285  12.422  0.00  0.00    +0.000 C 
ENDBRANCH   1  13
BRANCH   6  16
ATOM     16  O   UNL     1      46.887   4.174  14.727  0.00  0.00    +0.000 OA
BRANCH  16  17
ATOM     17  C   UNL     1      46.969   4.021  16.144  0.00  0.00    +0.000 C 
BRANCH  17  18
ATOM     18  C   UNL     1      48.297   3.427  16.527  0.00  0.00    +0.000 A 
ATOM     19  C   UNL     1      49.186   4.118  17.351  0.00  0.00    +0.000 A 
ATOM     20  C   UNL     1      50.397   3.530  17.714  0.00  0.00    +0.000 A 
ATOM     21  C   UNL     1      50.692   2.247  17.256  0.00  0.00    +0.000 A 
ATOM     22  N   UNL     1      49.838   1.551  16.468  0.00  0.00    +0.000 NA
ATOM     23  C   UNL     1      48.672   2.148  16.128  0.00  0.00    +0.000 A 
BRANCH  21  24
ATOM     24  C   UNL     1      51.972   1.546  17.664  0.00  0.00    +0.000 C 
BRANCH  24  25
ATOM     25  N   UNL     1      51.774   0.180  18.158  0.00  0.00    +0.000 NA
ATOM     26  H   UNL     1      52.329  -0.444  17.573  0.00  0.00    +0.000 HD
ATOM     27  H   UNL     1      50.804  -0.079  17.990  0.00  0.00    +0.000 HD
ENDBRANCH  24  25
ENDBRANCH  21  24
ENDBRANCH  17  18
ENDBRANCH  16  17
ENDBRANCH   6  16
TORSDOF 7
ENDMDL
MODEL 5
REMARK VINA RESULT:    -5.927      2.348      3.655
REMARK INTER + INTRA:          -8.447
REMARK INTER:                  -7.975
REMARK INTRA:                  -0.472
REMARK UNBOUND:                -0.268
REMARK  Name = 
REMARK  10 active torsions:
REMARK  status: ('A' for Active; 'I' for Inactive)
REMARK    1  A    between atoms: C_1  and  C_2
REMARK    2  A    between atoms: C_2  and  C_3
REMARK    3  A    between atoms: C_2  and  C_4
REMARK    4  A    between atoms: C_2  and  C_5
REMARK    5  A    between atoms: C_7  and  C_8
REMARK    6  A    between atoms: C_13  and  O_14
REMARK    7  A    between atoms: O_14  and  C_15
REMARK    8  A    between atoms: C_15  and  C_16
REMARK    9  A    between atoms: C_19  and  C_20
REMARK   10  A    between atoms: C_20  and  N_21
REMARK                            x       y       z     vdW  Elec       q    Type
REMARK                         _______ _______ _______ _____ _____    ______ ____
ROOT
ATOM      1  C   UNL     1      48.545   6.319  15.675  0.00  0.00    +0.000 A 
ATOM      2  N   UNL     1      48.803   5.960  16.972  0.00  0.00    +0.000 NA
ATOM      3  C   UNL     1      48.222   4.829  17.460  0.00  0.00    +0.000 A 
ATOM      4  C   UNL     1      47.388   4.017  16.715  0.00  0.00    +0.000 A 
ATOM      5  C   UNL     1      47.123   4.385  15.403  0.00  0.00    +0.000 A 
ATOM      6  C   UNL     1      47.673   5.557  14.872  0.00  0.00    +0.000 A 
ENDROOT
BRANCH   3   7
ATOM      7  C   UNL     1      48.529   4.460  18.878  0.00  0.00    +0.000 C 
ATOM      8  N   UNL     1      48.438   3.127  19.179  0.00  0.00    +0.000 N 
ATOM      9  O   UNL     1      48.843   5.288  19.725  0.00  0.00    +0.000 OA
ATOM     10  H   UNL     1      48.169   2.471  18.455  0.00  0.00    +0.000 HD
ATOM     11  H   UNL     1      48.621   2.814  20.117  0.00  0.00    +0.000 HD
ENDBRANCH   3   7
BRANCH   1  13
ATOM     12  C   UNL     1      50.411   7.888  16.232  0.00  0.00    +0.000 C 
ATOM     13  C   UNL     1      49.294   7.586  15.209  0.00  0.00    +0.000 C 
ATOM     14  C   UNL     1      48.298   8.767  15.184  0.00  0.00    +0.000 C 
ATOM     15  C   UNL     1      49.972   7.546  13.822  0.00  0.00    +0.000 C 
ENDBRANCH   1  13
BRANCH   6  16
ATOM     16  O   UNL     1      47.458   5.945  13.586  0.00  0.00    +0.000 OA
BRANCH  16  17
ATOM     17  C   UNL     1      46.142   6.293  13.155  0.00  0.00    +0.000 C 
BRANCH  17  18
ATOM     18  C   UNL     1      45.719   5.413  12.012  0.00  0.00    +0.000 A 
ATOM     19  C   UNL     1      45.762   5.871  10.694  0.00  0.00    +0.000 A 
ATOM     20  C   UNL     1      45.392   5.024   9.650  0.00  0.00    +0.000 A 
ATOM     21  C   UNL     1      44.997   3.720   9.944  0.00  0.00    +0.000 A 
ATOM     22  N   UNL     1      44.962   3.248  11.213  0.00  0.00    +0.000 NA
ATOM     23  C   UNL     1      45.323   4.093  12.206  0.00  0.00    +0.000 A 
BRANCH  21  24
ATOM     24  C   UNL     1      44.635   2.746   8.842  0.00  0.00    +0.000 C 
BRANCH  24  25
ATOM     25  N   UNL     1      45.166   1.394   9.039  0.00  0.00    +0.000 NA
ATOM     26  H   UNL     1      44.385   0.741   8.970  0.00  0.00    +0.000 HD
ATOM     27  H   UNL     1      45.498   1.322  10.000  0.00  0.00    +0.000 HD
ENDBRANCH  24  25
ENDBRANCH  21  24
ENDBRANCH  17  18
ENDBRANCH  16  17
ENDBRANCH   6  16
TORSDOF 7
ENDMDL
MODEL 6
REMARK VINA RESULT:    -5.802      3.707      7.315
REMARK INTER + INTRA:          -8.274
REMARK INTER:                  -7.938
REMARK INTRA:                  -0.336
REMARK UNBOUND:                -0.268
REMARK  Name = 
REMARK  10 active torsions:
REMARK  status: ('A' for Active; 'I' for Inactive)
REMARK    1  A    between atoms: C_1  and  C_2
REMARK    2  A    between atoms: C_2  and  C_3
REMARK    3  A    between atoms: C_2  and  C_4
REMARK    4  A    between atoms: C_2  and  C_5
REMARK    5  A    between atoms: C_7  and  C_8
REMARK    6  A    between atoms: C_13  and  O_14
REMARK    7  A    between atoms: O_14  and  C_15
REMARK    8  A    between atoms: C_15  and  C_16
REMARK    9  A    between atoms: C_19  and  C_20
REMARK   10  A    between atoms: C_20  and  N_21
REMARK                            x       y       z     vdW  Elec       q    Type
REMARK                         _______ _______ _______ _____ _____    ______ ____
ROOT
ATOM      1  C   UNL     1      44.928   7.590  11.753  0.00  0.00    +0.000 A 
ATOM      2  N   UNL     1      43.949   8.491  11.423  0.00  0.00    +0.000 NA
ATOM      3  C   UNL     1      44.248   9.819  11.465  0.00  0.00    +0.000 A 
ATOM      4  C   UNL     1      45.492  10.311  11.816  0.00  0.00    +0.000 A 
ATOM      5  C   UNL     1      46.481   9.397  12.155  0.00  0.00    +0.000 A 
ATOM      6  C   UNL     1      46.205   8.025  12.158  0.00  0.00    +0.000 A 
ENDROOT
BRANCH   3   7
ATOM      7  C   UNL     1      43.160  10.778  11.094  0.00  0.00    +0.000 C 
ATOM      8  N   UNL     1      42.301  11.123  12.103  0.00  0.00    +0.000 N 
ATOM      9  O   UNL     1      43.036  11.233   9.963  0.00  0.00    +0.000 OA
ATOM     10  H   UNL     1      42.430  10.722  13.025  0.00  0.00    +0.000 HD
ATOM     11  H   UNL     1      41.541  11.755  11.916  0.00  0.00    +0.000 HD
ENDBRANCH   3   7
BRANCH   1  13
ATOM     12  C   UNL     1      45.384   5.447  10.548  0.00  0.00    +0.000 C 
ATOM     13  C   UNL     1      44.497   6.114  11.622  0.00  0.00    +0.000 C 
ATOM     14  C   UNL     1      43.023   6.069  11.159  0.00  0.00    +0.000 C 
ATOM     15  C   UNL     1      44.595   5.227  12.882  0.00  0.00    +0.000 C 
ENDBRANCH   1  13
BRANCH   6  16
ATOM     16  O   UNL     1      47.149   7.093  12.462  0.00  0.00    +0.000 OA
BRANCH  16  17
ATOM     17  C   UNL     1      48.159   7.388  13.426  0.00  0.00    +0.000 C 
BRANCH  17  18
ATOM     18  C   UNL     1      48.159   6.350  14.514  0.00  0.00    +0.000 A 
ATOM     19  C   UNL     1      48.769   6.595  15.746  0.00  0.00    +0.000 A 
ATOM     20  C   UNL     1      48.728   5.625  16.747  0.00  0.00    +0.000 A 
ATOM     21  C   UNL     1      48.060   4.426  16.503  0.00  0.00    +0.000 A 
ATOM     22  N   UNL     1      47.449   4.172  15.321  0.00  0.00    +0.000 NA
ATOM     23  C   UNL     1      47.507   5.129  14.366  0.00  0.00    +0.000 A 
BRANCH  21  24
ATOM     24  C   UNL     1      47.945   3.363  17.575  0.00  0.00    +0.000 C 
BRANCH  24  25
ATOM     25  N   UNL     1      46.590   2.829  17.745  0.00  0.00    +0.000 NA
ATOM     26  H   UNL     1      45.940   3.615  17.713  0.00  0.00    +0.000 HD
ATOM     27  H   UNL     1      46.515   2.451  18.687  0.00  0.00    +0.000 HD
ENDBRANCH  24  25
ENDBRANCH  21  24
ENDBRANCH  17  18
ENDBRANCH  16  17
ENDBRANCH   6  16
TORSDOF 7
ENDMDL
MODEL 7
REMARK VINA RESULT:    -5.655      3.488      5.982
REMARK INTER + INTRA:          -8.071
REMARK INTER:                  -7.706
REMARK INTRA:                  -0.365
REMARK UNBOUND:                -0.268
REMARK  Name = 
REMARK  10 active torsions:
REMARK  status: ('A' for Active; 'I' for Inactive)
REMARK    1  A    between atoms: C_1  and  C_2
REMARK    2  A    between atoms: C_2  and  C_3
REMARK    3  A    between atoms: C_2  and  C_4
REMARK    4  A    between atoms: C_2  and  C_5
REMARK    5  A    between atoms: C_7  and  C_8
REMARK    6  A    between atoms: C_13  and  O_14
REMARK    7  A    between atoms: O_14  and  C_15
REMARK    8  A    between atoms: C_15  and  C_16
REMARK    9  A    between atoms: C_19  and  C_20
REMARK   10  A    between atoms: C_20  and  N_21
REMARK                            x       y       z     vdW  Elec       q    Type
REMARK                         _______ _______ _______ _____ _____    ______ ____
ROOT
ATOM      1  C   UNL     1      49.214   5.383  17.304  0.00  0.00    +0.000 A 
ATOM      2  N   UNL     1      50.004   5.947  18.272  0.00  0.00    +0.000 NA
ATOM      3  C   UNL     1      50.568   7.161  18.022  0.00  0.00    +0.000 A 
ATOM      4  C   UNL     1      50.382   7.862  16.846  0.00  0.00    +0.000 A 
ATOM      5  C   UNL     1      49.586   7.287  15.864  0.00  0.00    +0.000 A 
ATOM      6  C   UNL     1      49.014   6.026  16.067  0.00  0.00    +0.000 A 
ENDROOT
BRANCH   3   7
ATOM      7  C   UNL     1      51.421   7.754  19.101  0.00  0.00    +0.000 C 
ATOM      8  N   UNL     1      50.746   8.293  20.164  0.00  0.00    +0.000 N 
ATOM      9  O   UNL     1      52.645   7.761  19.048  0.00  0.00    +0.000 OA
ATOM     10  H   UNL     1      49.733   8.275  20.171  0.00  0.00    +0.000 HD
ATOM     11  H   UNL     1      51.260   8.717  20.917  0.00  0.00    +0.000 HD
ENDBRANCH   3   7
BRANCH   1  13
ATOM     12  C   UNL     1      48.605   3.937  19.252  0.00  0.00    +0.000 C 
ATOM     13  C   UNL     1      48.583   4.034  17.711  0.00  0.00    +0.000 C 
ATOM     14  C   UNL     1      49.440   2.892  17.120  0.00  0.00    +0.000 C 
ATOM     15  C   UNL     1      47.126   3.767  17.276  0.00  0.00    +0.000 C 
ENDBRANCH   1  13
BRANCH   6  16
ATOM     16  O   UNL     1      48.210   5.434  15.142  0.00  0.00    +0.000 OA
BRANCH  16  17
ATOM     17  C   UNL     1      47.758   6.176  14.009  0.00  0.00    +0.000 C 
BRANCH  17  18
ATOM     18  C   UNL     1      46.781   5.360  13.208  0.00  0.00    +0.000 A 
ATOM     19  C   UNL     1      46.154   5.888  12.079  0.00  0.00    +0.000 A 
ATOM     20  C   UNL     1      45.275   5.099  11.339  0.00  0.00    +0.000 A 
ATOM     21  C   UNL     1      45.049   3.782  11.734  0.00  0.00    +0.000 A 
ATOM     22  N   UNL     1      45.658   3.242  12.818  0.00  0.00    +0.000 NA
ATOM     23  C   UNL     1      46.504   4.032  13.520  0.00  0.00    +0.000 A 
BRANCH  21  24
ATOM     24  C   UNL     1      44.143   2.869  10.934  0.00  0.00    +0.000 C 
BRANCH  24  25
ATOM     25  N   UNL     1      43.053   2.274  11.714  0.00  0.00    +0.000 NA
ATOM     26  H   UNL     1      42.894   2.869  12.527  0.00  0.00    +0.000 HD
ATOM     27  H   UNL     1      43.381   1.385  12.086  0.00  0.00    +0.000 HD
ENDBRANCH  24  25
ENDBRANCH  21  24
ENDBRANCH  17  18
ENDBRANCH  16  17
ENDBRANCH   6  16
TORSDOF 7
ENDMDL
MODEL 8
REMARK VINA RESULT:    -5.521      2.705      7.753
REMARK INTER + INTRA:          -7.886
REMARK INTER:                  -7.432
REMARK INTRA:                  -0.454
REMARK UNBOUND:                -0.268
REMARK  Name = 
REMARK  10 active torsions:
REMARK  status: ('A' for Active; 'I' for Inactive)
REMARK    1  A    between atoms: C_1  and  C_2
REMARK    2  A    between atoms: C_2  and  C_3
REMARK    3  A    between atoms: C_2  and  C_4
REMARK    4  A    between atoms: C_2  and  C_5
REMARK    5  A    between atoms: C_7  and  C_8
REMARK    6  A    between atoms: C_13  and  O_14
REMARK    7  A    between atoms: O_14  and  C_15
REMARK    8  A    between atoms: C_15  and  C_16
REMARK    9  A    between atoms: C_19  and  C_20
REMARK   10  A    between atoms: C_20  and  N_21
REMARK                            x       y       z     vdW  Elec       q    Type
REMARK                         _______ _______ _______ _____ _____    ______ ____
ROOT
ATOM      1  C   UNL     1      46.723   6.077  12.687  0.00  0.00    +0.000 A 
ATOM      2  N   UNL     1      45.861   5.994  11.624  0.00  0.00    +0.000 NA
ATOM      3  C   UNL     1      45.186   4.829  11.425  0.00  0.00    +0.000 A 
ATOM      4  C   UNL     1      45.316   3.721  12.243  0.00  0.00    +0.000 A 
ATOM      5  C   UNL     1      46.194   3.805  13.316  0.00  0.00    +0.000 A 
ATOM      6  C   UNL     1      46.933   4.973  13.536  0.00  0.00    +0.000 A 
ENDROOT
BRANCH   3   7
ATOM      7  C   UNL     1      44.247   4.772  10.260  0.00  0.00    +0.000 C 
ATOM      8  N   UNL     1      44.792   4.348   9.078  0.00  0.00    +0.000 N 
ATOM      9  O   UNL     1      43.065   5.081  10.347  0.00  0.00    +0.000 OA
ATOM     10  H   UNL     1      45.775   4.106   9.041  0.00  0.00    +0.000 HD
ATOM     11  H   UNL     1      44.217   4.297   8.254  0.00  0.00    +0.000 HD
ENDBRANCH   3   7
BRANCH   1  13
ATOM     12  C   UNL     1      46.511   8.509  12.144  0.00  0.00    +0.000 C 
ATOM     13  C   UNL     1      47.395   7.457  12.849  0.00  0.00    +0.000 C 
ATOM     14  C   UNL     1      48.778   7.416  12.162  0.00  0.00    +0.000 C 
ATOM     15  C   UNL     1      47.627   7.974  14.285  0.00  0.00    +0.000 C 
ENDBRANCH   1  13
BRANCH   6  16
ATOM     16  O   UNL     1      47.787   5.106  14.586  0.00  0.00    +0.000 OA
BRANCH  16  17
ATOM     17  C   UNL     1      47.458   4.535  15.852  0.00  0.00    +0.000 C 
BRANCH  17  18
ATOM     18  C   UNL     1      48.552   4.808  16.847  0.00  0.00    +0.000 A 
ATOM     19  C   UNL     1      49.441   5.869  16.669  0.00  0.00    +0.000 A 
ATOM     20  C   UNL     1      50.428   6.118  17.622  0.00  0.00    +0.000 A 
ATOM     21  C   UNL     1      50.498   5.306  18.753  0.00  0.00    +0.000 A 
ATOM     22  N   UNL     1      49.636   4.279  18.955  0.00  0.00    +0.000 NA
ATOM     23  C   UNL     1      48.691   4.059  18.012  0.00  0.00    +0.000 A 
BRANCH  21  24
ATOM     24  C   UNL     1      51.518   5.566  19.841  0.00  0.00    +0.000 C 
BRANCH  24  25
ATOM     25  N   UNL     1      51.723   4.436  20.753  0.00  0.00    +0.000 NA
ATOM     26  H   UNL     1      52.581   3.962  20.471  0.00  0.00    +0.000 HD
ATOM     27  H   UNL     1      50.974   3.764  20.595  0.00  0.00    +0.000 HD
ENDBRANCH  24  25
ENDBRANCH  21  24
ENDBRANCH  17  18
ENDBRANCH  16  17
ENDBRANCH   6  16
TORSDOF 7
ENDMDL
MODEL 9
REMARK VINA RESULT:    -5.331      3.574      7.729
REMARK INTER + INTRA:          -7.624
REMARK INTER:                  -7.203
REMARK INTRA:                  -0.421
REMARK UNBOUND:                -0.268
REMARK  Name = 
REMARK  10 active torsions:
REMARK  status: ('A' for Active; 'I' for Inactive)
REMARK    1  A    between atoms: C_1  and  C_2
REMARK    2  A    between atoms: C_2  and  C_3
REMARK    3  A    between atoms: C_2  and  C_4
REMARK    4  A    between atoms: C_2  and  C_5
REMARK    5  A    between atoms: C_7  and  C_8
REMARK    6  A    between atoms: C_13  and  O_14
REMARK    7  A    between atoms: O_14  and  C_15
REMARK    8  A    between atoms: C_15  and  C_16
REMARK    9  A    between atoms: C_19  and  C_20
REMARK   10  A    between atoms: C_20  and  N_21
REMARK                            x       y       z     vdW  Elec       q    Type
REMARK                         _______ _______ _______ _____ _____    ______ ____
ROOT
ATOM      1  C   UNL     1      44.778   6.024  12.412  0.00  0.00    +0.000 A 
ATOM      2  N   UNL     1      44.384   7.176  11.782  0.00  0.00    +0.000 NA
ATOM      3  C   UNL     1      45.114   8.307  11.983  0.00  0.00    +0.000 A 
ATOM      4  C   UNL     1      46.240   8.358  12.784  0.00  0.00    +0.000 A 
ATOM      5  C   UNL     1      46.635   7.192  13.426  0.00  0.00    +0.000 A 
ATOM      6  C   UNL     1      45.893   6.015  13.273  0.00  0.00    +0.000 A 
ENDROOT
BRANCH   3   7
ATOM      7  C   UNL     1      44.662   9.548  11.276  0.00  0.00    +0.000 C 
ATOM      8  N   UNL     1      43.813   9.354  10.219  0.00  0.00    +0.000 N 
ATOM      9  O   UNL     1      45.021  10.669  11.614  0.00  0.00    +0.000 OA
ATOM     10  H   UNL     1      43.543   8.411   9.964  0.00  0.00    +0.000 HD
ATOM     11  H   UNL     1      43.481  10.146   9.695  0.00  0.00    +0.000 HD
ENDBRANCH   3   7
BRANCH   1  13
ATOM     12  C   UNL     1      43.023   5.144  10.862  0.00  0.00    +0.000 C 
ATOM     13  C   UNL     1      43.912   4.791  12.075  0.00  0.00    +0.000 C 
ATOM     14  C   UNL     1      43.010   4.476  13.289  0.00  0.00    +0.000 C 
ATOM     15  C   UNL     1      44.644   3.481  11.713  0.00  0.00    +0.000 C 
ENDBRANCH   1  13
BRANCH   6  16
ATOM     16  O   UNL     1      46.255   4.845  13.865  0.00  0.00    +0.000 OA
BRANCH  16  17
ATOM     17  C   UNL     1      47.633   4.568  14.118  0.00  0.00    +0.000 C 
BRANCH  17  18
ATOM     18  C   UNL     1      47.900   4.563  15.598  0.00  0.00    +0.000 A 
ATOM     19  C   UNL     1      47.769   3.396  16.351  0.00  0.00    +0.000 A 
ATOM     20  C   UNL     1      48.052   3.414  17.717  0.00  0.00    +0.000 A 
ATOM     21  C   UNL     1      48.479   4.603  18.305  0.00  0.00    +0.000 A 
ATOM     22  N   UNL     1      48.628   5.745  17.591  0.00  0.00    +0.000 NA
ATOM     23  C   UNL     1      48.343   5.699  16.269  0.00  0.00    +0.000 A 
BRANCH  21  24
ATOM     24  C   UNL     1      48.847   4.661  19.773  0.00  0.00    +0.000 C 
BRANCH  24  25
ATOM     25  N   UNL     1      48.313   3.551  20.568  0.00  0.00    +0.000 NA
ATOM     26  H   UNL     1      47.458   3.228  20.114  0.00  0.00    +0.000 HD
ATOM     27  H   UNL     1      48.019   3.921  21.470  0.00  0.00    +0.000 HD
ENDBRANCH  24  25
ENDBRANCH  21  24
ENDBRANCH  17  18
ENDBRANCH  16  17
ENDBRANCH   6  16
TORSDOF 7
ENDMDL
