MODEL 1
REMARK VINA RESULT:    -8.701      0.000      0.000
REMARK INTER + INTRA:         -12.910
REMARK INTER:                 -12.007
REMARK INTRA:                  -0.903
REMARK UNBOUND:                -0.903
REMARK  Name = 
REMARK  7 active torsions:
REMARK  status: ('A' for Active; 'I' for Inactive)
REMARK    1  A    between atoms: N_1  and  C_2
REMARK    2  A    between atoms: C_2  and  C_3
REMARK    3  A    between atoms: C_6  and  O_7
REMARK    4  A    between atoms: O_7  and  C_8
REMARK    5  A    between atoms: C_8  and  C_9
REMARK    6  A    between atoms: C_9  and  C_12
REMARK    7  A    between atoms: C_16  and  C_17
REMARK                            x       y       z     vdW  Elec       q    Type
REMARK                         _______ _______ _______ _____ _____    ______ ____
ROOT
ATOM      1  C   UNL     1      43.374   5.473  11.898  0.00  0.00    +0.000 C 
ATOM      2  F   UNL     1      42.944   6.604  11.264  0.00  0.00    +0.000 F 
ATOM      3  F   UNL     1      42.532   5.302  12.958  0.00  0.00    +0.000 F 
ENDROOT
BRANCH   1   4
ATOM      4  C   UNL     1      44.821   5.600  12.341  0.00  0.00    +0.000 A 
ATOM      5  C   UNL     1      45.665   6.550  11.746  0.00  0.00    +0.000 A 
ATOM      6  C   UNL     1      46.977   6.702  12.187  0.00  0.00    +0.000 A 
ATOM      7  C   UNL     1      47.454   5.917  13.238  0.00  0.00    +0.000 A 
ATOM      8  C   UNL     1      46.629   4.965  13.854  0.00  0.00    +0.000 A 
ATOM      9  C   UNL     1      45.317   4.801  13.389  0.00  0.00    +0.000 A 
BRANCH   8  10
ATOM     10  C   UNL     1      47.192   4.199  15.005  0.00  0.00    +0.000 C 
ATOM     11  N   UNL     1      47.279   4.811  16.223  0.00  0.00    +0.000 N 
ATOM     12  O   UNL     1      47.594   3.049  14.870  0.00  0.00    +0.000 OA
ATOM     13  H   UNL     1      46.956   5.739  16.445  0.00  0.00    +0.000 HD
ATOM     14  H   UNL     1      47.679   4.263  16.974  0.00  0.00    +0.000 HD
ENDBRANCH   8  10
ENDBRANCH   1   4
BRANCH   1  15
ATOM     15  C   UNL     1      43.230   4.280  10.938  0.00  0.00    +0.000 C 
BRANCH  15  16
ATOM     16  O   UNL     1      43.605   4.657   9.607  0.00  0.00    +0.000 OA
BRANCH  16  20
ATOM     17  C   UNL     1      46.395   2.082   7.854  0.00  0.00    +0.000 A 
ATOM     18  C   UNL     1      46.452   3.450   7.554  0.00  0.00    +0.000 A 
ATOM     19  C   UNL     1      45.546   4.349   8.123  0.00  0.00    +0.000 A 
ATOM     20  C   UNL     1      44.562   3.891   9.000  0.00  0.00    +0.000 A 
ATOM     21  C   UNL     1      44.507   2.532   9.313  0.00  0.00    +0.000 A 
ATOM     22  C   UNL     1      45.414   1.631   8.746  0.00  0.00    +0.000 A 
BRANCH  17  23
ATOM     23  C   UNL     1      47.348   1.114   7.200  0.00  0.00    +0.000 C 
BRANCH  23  24
ATOM     24  N   UNL     1      48.350   1.804   6.396  0.00  0.00    +0.000 NA
ATOM     25  H   UNL     1      48.914   1.111   5.905  0.00  0.00    +0.000 HD
ATOM     26  H   UNL     1      48.985   2.300   7.021  0.00  0.00    +0.000 HD
ENDBRANCH  23  24
ENDBRANCH  17  23
ENDBRANCH  16  20
ENDBRANCH  15  16
ENDBRANCH   1  15
TORSDOF 7
ENDMDL
MODEL 2
REMARK VINA RESULT:    -8.196      2.163      2.654
REMARK INTER + INTRA:         -12.214
REMARK INTER:                 -11.346
REMARK INTRA:                  -0.868
REMARK UNBOUND:                -0.903
REMARK  Name = 
REMARK  7 active torsions:
REMARK  status: ('A' for Active; 'I' for Inactive)
REMARK    1  A    between atoms: N_1  and  C_2
REMARK    2  A    between atoms: C_2  and  C_3
REMARK    3  A    between atoms: C_6  and  O_7
REMARK    4  A    between atoms: O_7  and  C_8
REMARK    5  A    between atoms: C_8  and  C_9
REMARK    6  A    between atoms: C_9  and  C_12
REMARK    7  A    between atoms: C_16  and  C_17
REMARK                            x       y       z     vdW  Elec       q    Type
REMARK                         _______ _______ _______ _____ _____    ______ ____
ROOT
ATOM      1  C   UNL     1      43.348   4.413  12.535  0.00  0.00    +0.000 C 
ATOM      2  F   UNL     1      42.260   5.204  12.305  0.00  0.00    +0.000 F 
ATOM      3  F   UNL     1      43.053   3.694  13.656  0.00  0.00    +0.000 F 
ENDROOT
BRANCH   1   4
ATOM      4  C   UNL     1      44.610   5.240  12.712  0.00  0.00    +0.000 A 
ATOM      5  C   UNL     1      45.849   4.613  12.909  0.00  0.00    +0.000 A 
ATOM      6  C   UNL     1      47.013   5.369  13.019  0.00  0.00    +0.000 A 
ATOM      7  C   UNL     1      46.953   6.759  12.918  0.00  0.00    +0.000 A 
ATOM      8  C   UNL     1      45.728   7.411  12.715  0.00  0.00    +0.000 A 
ATOM      9  C   UNL     1      44.557   6.645  12.628  0.00  0.00    +0.000 A 
BRANCH   8  10
ATOM     10  C   UNL     1      45.748   8.896  12.565  0.00  0.00    +0.000 C 
ATOM     11  N   UNL     1      44.585   9.592  12.741  0.00  0.00    +0.000 N 
ATOM     12  O   UNL     1      46.777   9.494  12.268  0.00  0.00    +0.000 OA
ATOM     13  H   UNL     1      43.697   9.202  13.010  0.00  0.00    +0.000 HD
ATOM     14  H   UNL     1      44.639  10.595  12.617  0.00  0.00    +0.000 HD
ENDBRANCH   8  10
ENDBRANCH   1   4
BRANCH   1  15
ATOM     15  C   UNL     1      43.524   3.451  11.347  0.00  0.00    +0.000 C 
BRANCH  15  16
ATOM     16  O   UNL     1      43.753   4.183  10.136  0.00  0.00    +0.000 OA
BRANCH  16  20
ATOM     17  C   UNL     1      46.566   2.388   7.616  0.00  0.00    +0.000 A 
ATOM     18  C   UNL     1      46.407   3.780   7.573  0.00  0.00    +0.000 A 
ATOM     19  C   UNL     1      45.485   4.424   8.403  0.00  0.00    +0.000 A 
ATOM     20  C   UNL     1      44.702   3.683   9.288  0.00  0.00    +0.000 A 
ATOM     21  C   UNL     1      44.864   2.298   9.345  0.00  0.00    +0.000 A 
ATOM     22  C   UNL     1      45.786   1.652   8.516  0.00  0.00    +0.000 A 
BRANCH  17  23
ATOM     23  C   UNL     1      47.529   1.698   6.684  0.00  0.00    +0.000 C 
BRANCH  23  24
ATOM     24  N   UNL     1      48.656   2.558   6.339  0.00  0.00    +0.000 NA
ATOM     25  H   UNL     1      49.121   2.853   7.196  0.00  0.00    +0.000 HD
ATOM     26  H   UNL     1      48.297   3.405   5.900  0.00  0.00    +0.000 HD
ENDBRANCH  23  24
ENDBRANCH  17  23
ENDBRANCH  16  20
ENDBRANCH  15  16
ENDBRANCH   1  15
TORSDOF 7
ENDMDL
MODEL 3
REMARK VINA RESULT:    -7.728      2.574      6.248
REMARK INTER + INTRA:         -11.568
REMARK INTER:                 -10.495
REMARK INTRA:                  -1.072
REMARK UNBOUND:                -0.903
REMARK  Name = 
REMARK  7 active torsions:
REMARK  status: ('A' for Active; 'I' for Inactive)
REMARK    1  A    between atoms: N_1  and  C_2
REMARK    2  A    between atoms: C_2  and  C_3
REMARK    3  A    between atoms: C_6  and  O_7
REMARK    4  A    between atoms: O_7  and  C_8
REMARK    5  A    between atoms: C_8  and  C_9
REMARK    6  A    between atoms: C_9  and  C_12
REMARK    7  A    between atoms: C_16  and  C_17
REMARK                            x       y       z     vdW  Elec       q    Type
REMARK                         _______ _______ _______ _____ _____    ______ ____
ROOT
ATOM      1  C   UNL     1      44.047   3.080  10.873  0.00  0.00    +0.000 C 
ATOM      2  F   UNL     1      43.395   1.880  10.890  0.00  0.00    +0.000 F 
ATOM      3  F   UNL     1      43.071   4.032  10.921  0.00  0.00    +0.000 F 
ENDROOT
BRANCH   1   4
ATOM      4  C   UNL     1      44.916   3.224   9.635  0.00  0.00    +0.000 A 
ATOM      5  C   UNL     1      45.197   4.494   9.110  0.00  0.00    +0.000 A 
ATOM      6  C   UNL     1      46.036   4.630   8.006  0.00  0.00    +0.000 A 
ATOM      7  C   UNL     1      46.613   3.500   7.426  0.00  0.00    +0.000 A 
ATOM      8  C   UNL     1      46.353   2.220   7.936  0.00  0.00    +0.000 A 
ATOM      9  C   UNL     1      45.490   2.088   9.033  0.00  0.00    +0.000 A 
BRANCH   8  10
ATOM     10  C   UNL     1      47.047   1.063   7.296  0.00  0.00    +0.000 C 
ATOM     11  N   UNL     1      46.723  -0.203   7.696  0.00  0.00    +0.000 N 
ATOM     12  O   UNL     1      47.910   1.231   6.442  0.00  0.00    +0.000 OA
ATOM     13  H   UNL     1      46.015  -0.448   8.368  0.00  0.00    +0.000 HD
ATOM     14  H   UNL     1      47.226  -0.958   7.248  0.00  0.00    +0.000 HD
ENDBRANCH   8  10
ENDBRANCH   1   4
BRANCH   1  15
ATOM     15  C   UNL     1      44.922   3.188  12.134  0.00  0.00    +0.000 C 
BRANCH  15  16
ATOM     16  O   UNL     1      44.611   4.382  12.862  0.00  0.00    +0.000 OA
BRANCH  16  20
ATOM     17  C   UNL     1      46.979   7.786  12.319  0.00  0.00    +0.000 A 
ATOM     18  C   UNL     1      47.592   6.588  12.715  0.00  0.00    +0.000 A 
ATOM     19  C   UNL     1      46.842   5.423  12.899  0.00  0.00    +0.000 A 
ATOM     20  C   UNL     1      45.462   5.440  12.696  0.00  0.00    +0.000 A 
ATOM     21  C   UNL     1      44.847   6.625  12.291  0.00  0.00    +0.000 A 
ATOM     22  C   UNL     1      45.596   7.791  12.104  0.00  0.00    +0.000 A 
BRANCH  17  23
ATOM     23  C   UNL     1      47.791   9.046  12.167  0.00  0.00    +0.000 C 
BRANCH  23  24
ATOM     24  N   UNL     1      47.075  10.214  12.667  0.00  0.00    +0.000 NA
ATOM     25  H   UNL     1      47.687  11.026  12.613  0.00  0.00    +0.000 HD
ATOM     26  H   UNL     1      46.872  10.073  13.657  0.00  0.00    +0.000 HD
ENDBRANCH  23  24
ENDBRANCH  17  23
ENDBRANCH  16  20
ENDBRANCH  15  16
ENDBRANCH   1  15
TORSDOF 7
ENDMDL
MODEL 4
REMARK VINA RESULT:    -7.584      1.728      2.197
REMARK INTER + INTRA:         -11.369
REMARK INTER:                 -10.530
REMARK INTRA:                  -0.839
REMARK UNBOUND:                -0.903
REMARK  Name = 
REMARK  7 active torsions:
REMARK  status: ('A' for Active; 'I' for Inactive)
REMARK    1  A    between atoms: N_1  and  C_2
REMARK    2  A    between atoms: C_2  and  C_3
REMARK    3  A    between atoms: C_6  and  O_7
REMARK    4  A    between atoms: O_7  and  C_8
REMARK    5  A    between atoms: C_8  and  C_9
REMARK    6  A    between atoms: C_9  and  C_12
REMARK    7  A    between atoms: C_16  and  C_17
REMARK                            x       y       z     vdW  Elec       q    Type
REMARK                         _______ _______ _______ _____ _____    ______ ____
ROOT
ATOM      1  C   UNL     1      45.123   4.336  12.437  0.00  0.00    +0.000 C 
ATOM      2  F   UNL     1      44.233   4.387  13.471  0.00  0.00    +0.000 F 
ATOM      3  F   UNL     1      45.594   3.056  12.417  0.00  0.00    +0.000 F 
ENDROOT
BRANCH   1   4
ATOM      4  C   UNL     1      46.243   5.347  12.616  0.00  0.00    +0.000 A 
ATOM      5  C   UNL     1      46.579   6.226  11.576  0.00  0.00    +0.000 A 
ATOM      6  C   UNL     1      47.570   7.187  11.758  0.00  0.00    +0.000 A 
ATOM      7  C   UNL     1      48.225   7.289  12.986  0.00  0.00    +0.000 A 
ATOM      8  C   UNL     1      47.904   6.426  14.044  0.00  0.00    +0.000 A 
ATOM      9  C   UNL     1      46.921   5.446  13.846  0.00  0.00    +0.000 A 
BRANCH   8  10
ATOM     10  C   UNL     1      48.610   6.628  15.344  0.00  0.00    +0.000 C 
ATOM     11  N   UNL     1      48.440   7.810  16.009  0.00  0.00    +0.000 N 
ATOM     12  O   UNL     1      49.349   5.768  15.809  0.00  0.00    +0.000 OA
ATOM     13  H   UNL     1      47.838   8.567  15.727  0.00  0.00    +0.000 HD
ATOM     14  H   UNL     1      48.946   7.913  16.879  0.00  0.00    +0.000 HD
ENDBRANCH   8  10
ENDBRANCH   1   4
BRANCH   1  15
ATOM     15  C   UNL     1      44.375   4.622  11.123  0.00  0.00    +0.000 C 
BRANCH  15  16
ATOM     16  O   UNL     1      44.066   3.398  10.444  0.00  0.00    +0.000 OA
BRANCH  16  20
ATOM     17  C   UNL     1      46.508   2.697   7.122  0.00  0.00    +0.000 A 
ATOM     18  C   UNL     1      46.125   1.613   7.924  0.00  0.00    +0.000 A 
ATOM     19  C   UNL     1      45.302   1.798   9.039  0.00  0.00    +0.000 A 
ATOM     20  C   UNL     1      44.854   3.076   9.373  0.00  0.00    +0.000 A 
ATOM     21  C   UNL     1      45.221   4.158   8.573  0.00  0.00    +0.000 A 
ATOM     22  C   UNL     1      46.042   3.975   7.456  0.00  0.00    +0.000 A 
BRANCH  17  23
ATOM     23  C   UNL     1      47.432   2.492   5.949  0.00  0.00    +0.000 C 
BRANCH  23  24
ATOM     24  N   UNL     1      48.831   2.488   6.358  0.00  0.00    +0.000 NA
ATOM     25  H   UNL     1      49.265   3.361   6.064  0.00  0.00    +0.000 HD
ATOM     26  H   UNL     1      49.315   1.743   5.856  0.00  0.00    +0.000 HD
ENDBRANCH  23  24
ENDBRANCH  17  23
ENDBRANCH  16  20
ENDBRANCH  15  16
ENDBRANCH   1  15
TORSDOF 7
ENDMDL
MODEL 5
REMARK VINA RESULT:    -7.167      2.216      2.696
REMARK INTER + INTRA:         -10.794
REMARK INTER:                 -10.048
REMARK INTRA:                  -0.746
REMARK UNBOUND:                -0.903
REMARK  Name = 
REMARK  7 active torsions:
REMARK  status: ('A' for Active; 'I' for Inactive)
REMARK    1  A    between atoms: N_1  and  C_2
REMARK    2  A    between atoms: C_2  and  C_3
REMARK    3  A    between atoms: C_6  and  O_7
REMARK    4  A    between atoms: O_7  and  C_8
REMARK    5  A    between atoms: C_8  and  C_9
REMARK    6  A    between atoms: C_9  and  C_12
REMARK    7  A    between atoms: C_16  and  C_17
REMARK                            x       y       z     vdW  Elec       q    Type
REMARK                         _______ _______ _______ _____ _____    ______ ____
ROOT
ATOM      1  C   UNL     1      44.548   5.372  11.986  0.00  0.00    +0.000 C 
ATOM      2  F   UNL     1      43.673   5.351  13.034  0.00  0.00    +0.000 F 
ATOM      3  F   UNL     1      45.351   4.282  12.153  0.00  0.00    +0.000 F 
ENDROOT
BRANCH   1   4
ATOM      4  C   UNL     1      45.347   6.663  11.954  0.00  0.00    +0.000 A 
ATOM      5  C   UNL     1      44.693   7.903  11.973  0.00  0.00    +0.000 A 
ATOM      6  C   UNL     1      45.427   9.087  11.997  0.00  0.00    +0.000 A 
ATOM      7  C   UNL     1      46.822   9.042  12.018  0.00  0.00    +0.000 A 
ATOM      8  C   UNL     1      47.500   7.814  12.006  0.00  0.00    +0.000 A 
ATOM      9  C   UNL     1      46.755   6.628  11.958  0.00  0.00    +0.000 A 
BRANCH   8  10
ATOM     10  C   UNL     1      48.990   7.844  12.082  0.00  0.00    +0.000 C 
ATOM     11  N   UNL     1      49.631   6.890  12.821  0.00  0.00    +0.000 N 
ATOM     12  O   UNL     1      49.641   8.715  11.515  0.00  0.00    +0.000 OA
ATOM     13  H   UNL     1      49.194   6.121  13.301  0.00  0.00    +0.000 HD
ATOM     14  H   UNL     1      50.640   6.953  12.858  0.00  0.00    +0.000 HD
ENDBRANCH   8  10
ENDBRANCH   1   4
BRANCH   1  15
ATOM     15  C   UNL     1      43.757   5.222  10.675  0.00  0.00    +0.000 C 
BRANCH  15  16
ATOM     16  O   UNL     1      43.724   3.851  10.260  0.00  0.00    +0.000 OA
BRANCH  16  20
ATOM     17  C   UNL     1      46.588   2.370   7.596  0.00  0.00    +0.000 A 
ATOM     18  C   UNL     1      46.388   3.755   7.678  0.00  0.00    +0.000 A 
ATOM     19  C   UNL     1      45.449   4.296   8.560  0.00  0.00    +0.000 A 
ATOM     20  C   UNL     1      44.688   3.456   9.373  0.00  0.00    +0.000 A 
ATOM     21  C   UNL     1      44.889   2.076   9.306  0.00  0.00    +0.000 A 
ATOM     22  C   UNL     1      45.830   1.534   8.425  0.00  0.00    +0.000 A 
BRANCH  17  23
ATOM     23  C   UNL     1      47.571   1.795   6.609  0.00  0.00    +0.000 C 
BRANCH  23  24
ATOM     24  N   UNL     1      48.553   2.786   6.186  0.00  0.00    +0.000 NA
ATOM     25  H   UNL     1      48.206   3.262   5.355  0.00  0.00    +0.000 HD
ATOM     26  H   UNL     1      49.405   2.300   5.904  0.00  0.00    +0.000 HD
ENDBRANCH  23  24
ENDBRANCH  17  23
ENDBRANCH  16  20
ENDBRANCH  15  16
ENDBRANCH   1  15
TORSDOF 7
ENDMDL
MODEL 6
REMARK VINA RESULT:    -6.791      1.686      2.464
REMARK INTER + INTRA:         -10.275
REMARK INTER:                  -9.658
REMARK INTRA:                  -0.617
REMARK UNBOUND:                -0.903
REMARK  Name = 
REMARK  7 active torsions:
REMARK  status: ('A' for Active; 'I' for Inactive)
REMARK    1  A    between atoms: N_1  and  C_2
REMARK    2  A    between atoms: C_2  and  C_3
REMARK    3  A    between atoms: C_6  and  O_7
REMARK    4  A    between atoms: O_7  and  C_8
REMARK    5  A    between atoms: C_8  and  C_9
REMARK    6  A    between atoms: C_9  and  C_12
REMARK    7  A    between atoms: C_16  and  C_17
REMARK                            x       y       z     vdW  Elec       q    Type
REMARK                         _______ _______ _______ _____ _____    ______ ____
ROOT
ATOM      1  C   UNL     1      46.093   5.884  12.594  0.00  0.00    +0.000 C 
ATOM      2  F   UNL     1      46.784   6.324  11.501  0.00  0.00    +0.000 F 
ATOM      3  F   UNL     1      45.117   6.812  12.812  0.00  0.00    +0.000 F 
ENDROOT
BRANCH   1   4
ATOM      4  C   UNL     1      47.003   5.727  13.800  0.00  0.00    +0.000 A 
ATOM      5  C   UNL     1      47.856   6.771  14.187  0.00  0.00    +0.000 A 
ATOM      6  C   UNL     1      48.651   6.647  15.323  0.00  0.00    +0.000 A 
ATOM      7  C   UNL     1      48.591   5.484  16.093  0.00  0.00    +0.000 A 
ATOM      8  C   UNL     1      47.742   4.429  15.732  0.00  0.00    +0.000 A 
ATOM      9  C   UNL     1      46.961   4.551  14.574  0.00  0.00    +0.000 A 
BRANCH   8  10
ATOM     10  C   UNL     1      47.692   3.239  16.632  0.00  0.00    +0.000 C 
ATOM     11  N   UNL     1      46.644   3.112  17.499  0.00  0.00    +0.000 N 
ATOM     12  O   UNL     1      48.579   2.393  16.620  0.00  0.00    +0.000 OA
ATOM     13  H   UNL     1      45.855   3.734  17.569  0.00  0.00    +0.000 HD
ATOM     14  H   UNL     1      46.655   2.299  18.101  0.00  0.00    +0.000 HD
ENDBRANCH   8  10
ENDBRANCH   1   4
BRANCH   1  15
ATOM     15  C   UNL     1      45.441   4.531  12.258  0.00  0.00    +0.000 C 
BRANCH  15  16
ATOM     16  O   UNL     1      44.655   4.634  11.065  0.00  0.00    +0.000 OA
BRANCH  16  20
ATOM     17  C   UNL     1      46.204   2.878   7.599  0.00  0.00    +0.000 A 
ATOM     18  C   UNL     1      45.667   2.052   8.597  0.00  0.00    +0.000 A 
ATOM     19  C   UNL     1      45.130   2.595   9.768  0.00  0.00    +0.000 A 
ATOM     20  C   UNL     1      45.127   3.977   9.962  0.00  0.00    +0.000 A 
ATOM     21  C   UNL     1      45.649   4.806   8.967  0.00  0.00    +0.000 A 
ATOM     22  C   UNL     1      46.184   4.264   7.795  0.00  0.00    +0.000 A 
BRANCH  17  23
ATOM     23  C   UNL     1      46.821   2.280   6.361  0.00  0.00    +0.000 C 
BRANCH  23  24
ATOM     24  N   UNL     1      47.956   1.424   6.683  0.00  0.00    +0.000 NA
ATOM     25  H   UNL     1      47.765   0.934   7.556  0.00  0.00    +0.000 HD
ATOM     26  H   UNL     1      48.770   2.013   6.856  0.00  0.00    +0.000 HD
ENDBRANCH  23  24
ENDBRANCH  17  23
ENDBRANCH  16  20
ENDBRANCH  15  16
ENDBRANCH   1  15
TORSDOF 7
ENDMDL
MODEL 7
REMARK VINA RESULT:    -6.324      2.427      6.704
REMARK INTER + INTRA:          -9.630
REMARK INTER:                  -8.832
REMARK INTRA:                  -0.798
REMARK UNBOUND:                -0.903
REMARK  Name = 
REMARK  7 active torsions:
REMARK  status: ('A' for Active; 'I' for Inactive)
REMARK    1  A    between atoms: N_1  and  C_2
REMARK    2  A    between atoms: C_2  and  C_3
REMARK    3  A    between atoms: C_6  and  O_7
REMARK    4  A    between atoms: O_7  and  C_8
REMARK    5  A    between atoms: C_8  and  C_9
REMARK    6  A    between atoms: C_9  and  C_12
REMARK    7  A    between atoms: C_16  and  C_17
REMARK                            x       y       z     vdW  Elec       q    Type
REMARK                         _______ _______ _______ _____ _____    ______ ____
ROOT
ATOM      1  C   UNL     1      45.895   7.290  12.114  0.00  0.00    +0.000 C 
ATOM      2  F   UNL     1      45.573   7.932  13.275  0.00  0.00    +0.000 F 
ATOM      3  F   UNL     1      45.766   8.224  11.127  0.00  0.00    +0.000 F 
ENDROOT
BRANCH   1   4
ATOM      4  C   UNL     1      44.997   6.089  11.874  0.00  0.00    +0.000 A 
ATOM      5  C   UNL     1      43.905   5.840  12.718  0.00  0.00    +0.000 A 
ATOM      6  C   UNL     1      43.051   4.769  12.468  0.00  0.00    +0.000 A 
ATOM      7  C   UNL     1      43.271   3.945  11.363  0.00  0.00    +0.000 A 
ATOM      8  C   UNL     1      44.353   4.175  10.501  0.00  0.00    +0.000 A 
ATOM      9  C   UNL     1      45.222   5.242  10.772  0.00  0.00    +0.000 A 
BRANCH   8  10
ATOM     10  C   UNL     1      44.495   3.284   9.312  0.00  0.00    +0.000 C 
ATOM     11  N   UNL     1      44.604   1.936   9.509  0.00  0.00    +0.000 N 
ATOM     12  O   UNL     1      44.535   3.739   8.174  0.00  0.00    +0.000 OA
ATOM     13  H   UNL     1      44.558   1.462  10.395  0.00  0.00    +0.000 HD
ATOM     14  H   UNL     1      44.713   1.369   8.678  0.00  0.00    +0.000 HD
ENDBRANCH   8  10
ENDBRANCH   1   4
BRANCH   1  15
ATOM     15  C   UNL     1      47.362   6.832  12.190  0.00  0.00    +0.000 C 
BRANCH  15  16
ATOM     16  O   UNL     1      47.934   7.183  13.456  0.00  0.00    +0.000 OA
BRANCH  16  20
ATOM     17  C   UNL     1      47.954   4.441  16.614  0.00  0.00    +0.000 A 
ATOM     18  C   UNL     1      47.193   4.156  15.472  0.00  0.00    +0.000 A 
ATOM     19  C   UNL     1      47.163   5.038  14.389  0.00  0.00    +0.000 A 
ATOM     20  C   UNL     1      47.892   6.227  14.433  0.00  0.00    +0.000 A 
ATOM     21  C   UNL     1      48.662   6.512  15.562  0.00  0.00    +0.000 A 
ATOM     22  C   UNL     1      48.694   5.629  16.646  0.00  0.00    +0.000 A 
BRANCH  17  23
ATOM     23  C   UNL     1      47.944   3.505  17.795  0.00  0.00    +0.000 C 
BRANCH  23  24
ATOM     24  N   UNL     1      46.751   2.666  17.809  0.00  0.00    +0.000 NA
ATOM     25  H   UNL     1      47.021   1.710  18.035  0.00  0.00    +0.000 HD
ATOM     26  H   UNL     1      46.361   2.639  16.867  0.00  0.00    +0.000 HD
ENDBRANCH  23  24
ENDBRANCH  17  23
ENDBRANCH  16  20
ENDBRANCH  15  16
ENDBRANCH   1  15
TORSDOF 7
ENDMDL
MODEL 8
REMARK VINA RESULT:    -6.310      4.166      6.180
REMARK INTER + INTRA:          -9.611
REMARK INTER:                  -9.014
REMARK INTRA:                  -0.597
REMARK UNBOUND:                -0.903
REMARK  Name = 
REMARK  7 active torsions:
REMARK  status: ('A' for Active; 'I' for Inactive)
REMARK    1  A    between atoms: N_1  and  C_2
REMARK    2  A    between atoms: C_2  and  C_3
REMARK    3  A    between atoms: C_6  and  O_7
REMARK    4  A    between atoms: O_7  and  C_8
REMARK    5  A    between atoms: C_8  and  C_9
REMARK    6  A    between atoms: C_9  and  C_12
REMARK    7  A    between atoms: C_16  and  C_17
REMARK                            x       y       z     vdW  Elec       q    Type
REMARK                         _______ _______ _______ _____ _____    ______ ____
ROOT
ATOM      1  C   UNL     1      47.641   3.583  17.010  0.00  0.00    +0.000 C 
ATOM      2  F   UNL     1      46.965   4.696  17.421  0.00  0.00    +0.000 F 
ATOM      3  F   UNL     1      47.038   2.532  17.639  0.00  0.00    +0.000 F 
ENDROOT
BRANCH   1   4
ATOM      4  C   UNL     1      49.119   3.671  17.350  0.00  0.00    +0.000 A 
ATOM      5  C   UNL     1      49.676   4.884  17.781  0.00  0.00    +0.000 A 
ATOM      6  C   UNL     1      51.019   4.953  18.143  0.00  0.00    +0.000 A 
ATOM      7  C   UNL     1      51.815   3.808  18.091  0.00  0.00    +0.000 A 
ATOM      8  C   UNL     1      51.280   2.582  17.669  0.00  0.00    +0.000 A 
ATOM      9  C   UNL     1      49.933   2.525  17.285  0.00  0.00    +0.000 A 
BRANCH   8  10
ATOM     10  C   UNL     1      52.178   1.389  17.689  0.00  0.00    +0.000 C 
ATOM     11  N   UNL     1      51.674   0.192  18.114  0.00  0.00    +0.000 N 
ATOM     12  O   UNL     1      53.355   1.471  17.355  0.00  0.00    +0.000 OA
ATOM     13  H   UNL     1      50.720   0.014  18.384  0.00  0.00    +0.000 HD
ATOM     14  H   UNL     1      52.318  -0.588  18.125  0.00  0.00    +0.000 HD
ENDBRANCH   8  10
ENDBRANCH   1   4
BRANCH   1  15
ATOM     15  C   UNL     1      47.468   3.429  15.489  0.00  0.00    +0.000 C 
BRANCH  15  16
ATOM     16  O   UNL     1      47.490   4.711  14.849  0.00  0.00    +0.000 OA
BRANCH  16  20
ATOM     17  C   UNL     1      45.288   4.777  11.294  0.00  0.00    +0.000 A 
ATOM     18  C   UNL     1      45.990   5.927  11.679  0.00  0.00    +0.000 A 
ATOM     19  C   UNL     1      46.747   5.948  12.854  0.00  0.00    +0.000 A 
ATOM     20  C   UNL     1      46.808   4.818  13.668  0.00  0.00    +0.000 A 
ATOM     21  C   UNL     1      46.121   3.665  13.285  0.00  0.00    +0.000 A 
ATOM     22  C   UNL     1      45.365   3.641  12.109  0.00  0.00    +0.000 A 
BRANCH  17  23
ATOM     23  C   UNL     1      44.439   4.779  10.049  0.00  0.00    +0.000 C 
BRANCH  23  24
ATOM     24  N   UNL     1      45.241   4.980   8.848  0.00  0.00    +0.000 NA
ATOM     25  H   UNL     1      44.625   5.233   8.077  0.00  0.00    +0.000 HD
ATOM     26  H   UNL     1      45.672   4.091   8.592  0.00  0.00    +0.000 HD
ENDBRANCH  23  24
ENDBRANCH  17  23
ENDBRANCH  16  20
ENDBRANCH  15  16
ENDBRANCH   1  15
TORSDOF 7
ENDMDL
MODEL 9
REMARK VINA RESULT:    -6.124      1.960      6.877
REMARK INTER + INTRA:          -9.354
REMARK INTER:                  -8.730
REMARK INTRA:                  -0.624
REMARK UNBOUND:                -0.903
REMARK  Name = 
REMARK  7 active torsions:
REMARK  status: ('A' for Active; 'I' for Inactive)
REMARK    1  A    between atoms: N_1  and  C_2
REMARK    2  A    between atoms: C_2  and  C_3
REMARK    3  A    between atoms: C_6  and  O_7
REMARK    4  A    between atoms: O_7  and  C_8
REMARK    5  A    between atoms: C_8  and  C_9
REMARK    6  A    between atoms: C_9  and  C_12
REMARK    7  A    between atoms: C_16  and  C_17
REMARK                            x       y       z     vdW  Elec       q    Type
REMARK                         _______ _______ _______ _____ _____    ______ ____
ROOT
ATOM      1  C   UNL     1      44.782   6.140  11.263  0.00  0.00    +0.000 C 
ATOM      2  F   UNL     1      43.523   6.667  11.264  0.00  0.00    +0.000 F 
ATOM      3  F   UNL     1      45.576   7.078  10.669  0.00  0.00    +0.000 F 
ENDROOT
BRANCH   1   4
ATOM      4  C   UNL     1      44.829   4.813  10.526  0.00  0.00    +0.000 A 
ATOM      5  C   UNL     1      44.048   3.732  10.960  0.00  0.00    +0.000 A 
ATOM      6  C   UNL     1      44.051   2.532  10.254  0.00  0.00    +0.000 A 
ATOM      7  C   UNL     1      44.824   2.405   9.099  0.00  0.00    +0.000 A 
ATOM      8  C   UNL     1      45.609   3.472   8.640  0.00  0.00    +0.000 A 
ATOM      9  C   UNL     1      45.619   4.670   9.369  0.00  0.00    +0.000 A 
BRANCH   8  10
ATOM     10  C   UNL     1      46.368   3.280   7.369  0.00  0.00    +0.000 C 
ATOM     11  N   UNL     1      46.984   2.081   7.146  0.00  0.00    +0.000 N 
ATOM     12  O   UNL     1      46.465   4.179   6.542  0.00  0.00    +0.000 OA
ATOM     13  H   UNL     1      46.945   1.274   7.747  0.00  0.00    +0.000 HD
ATOM     14  H   UNL     1      47.500   1.995   6.279  0.00  0.00    +0.000 HD
ENDBRANCH   8  10
ENDBRANCH   1   4
BRANCH   1  15
ATOM     15  C   UNL     1      45.238   5.939  12.719  0.00  0.00    +0.000 C 
BRANCH  15  16
ATOM     16  O   UNL     1      46.633   5.612  12.769  0.00  0.00    +0.000 OA
BRANCH  16  20
ATOM     17  C   UNL     1      48.219   5.029  16.594  0.00  0.00    +0.000 A 
ATOM     18  C   UNL     1      48.640   6.137  15.846  0.00  0.00    +0.000 A 
ATOM     19  C   UNL     1      48.131   6.377  14.567  0.00  0.00    +0.000 A 
ATOM     20  C   UNL     1      47.193   5.506  14.012  0.00  0.00    +0.000 A 
ATOM     21  C   UNL     1      46.760   4.407  14.756  0.00  0.00    +0.000 A 
ATOM     22  C   UNL     1      47.267   4.167  16.037  0.00  0.00    +0.000 A 
BRANCH  17  23
ATOM     23  C   UNL     1      48.809   4.755  17.954  0.00  0.00    +0.000 C 
BRANCH  23  24
ATOM     24  N   UNL     1      48.209   3.580  18.576  0.00  0.00    +0.000 NA
ATOM     25  H   UNL     1      48.068   3.766  19.567  0.00  0.00    +0.000 HD
ATOM     26  H   UNL     1      48.872   2.807  18.520  0.00  0.00    +0.000 HD
ENDBRANCH  23  24
ENDBRANCH  17  23
ENDBRANCH  16  20
ENDBRANCH  15  16
ENDBRANCH   1  15
TORSDOF 7
ENDMDL
