MODEL 1
REMARK VINA RESULT:    -7.868      0.000      0.000
REMARK INTER + INTRA:         -10.830
REMARK INTER:                 -10.168
REMARK INTRA:                  -0.662
REMARK UNBOUND:                -0.662
REMARK  Name = 
REMARK  7 active torsions:
REMARK  status: ('A' for Active; 'I' for Inactive)
REMARK    1  A    between atoms: C_1  and  C_2
REMARK    2  A    between atoms: C_2  and  C_3
REMARK    3  A    between atoms: C_6  and  C_7
REMARK    4  A    between atoms: C_7  and  C_8
REMARK    5  A    between atoms: C_7  and  N_9
REMARK    6  A    between atoms: N_9  and  C_10
REMARK    7  A    between atoms: C_13  and  C_14
REMARK                            x       y       z     vdW  Elec       q    Type
REMARK                         _______ _______ _______ _____ _____    ______ ____
ROOT
ATOM      1  N   UNL     1      43.625   3.928  10.268  0.00  0.00    +0.000 N 
ATOM      2  H   UNL     1      42.701   3.764   9.876  0.00  0.00    +0.000 HD
ENDROOT
BRANCH   1   3
ATOM      3  C   UNL     1      44.636   3.484   9.411  0.00  0.00    +0.000 A 
ATOM      4  C   UNL     1      45.065   2.159   9.339  0.00  0.00    +0.000 A 
ATOM      5  C   UNL     1      45.997   1.763   8.376  0.00  0.00    +0.000 A 
ATOM      6  C   UNL     1      46.474   2.713   7.486  0.00  0.00    +0.000 A 
ATOM      7  N   UNL     1      46.090   4.016   7.498  0.00  0.00    +0.000 NA
ATOM      8  C   UNL     1      45.175   4.350   8.444  0.00  0.00    +0.000 A 
BRANCH   6   9
ATOM      9  C   UNL     1      47.448   2.305   6.422  0.00  0.00    +0.000 C 
ATOM     10  N   UNL     1      47.414   3.042   5.271  0.00  0.00    +0.000 N 
ATOM     11  O   UNL     1      48.228   1.369   6.563  0.00  0.00    +0.000 OA
ATOM     12  H   UNL     1      46.742   3.800   5.181  0.00  0.00    +0.000 HD
ATOM     13  H   UNL     1      48.031   2.803   4.507  0.00  0.00    +0.000 HD
ENDBRANCH   6   9
ENDBRANCH   1   3
BRANCH   1  14
ATOM     14  C   UNL     1      43.720   5.237  10.932  0.00  0.00    +0.000 C 
ATOM     15  C   UNL     1      42.574   5.350  11.950  0.00  0.00    +0.000 C 
BRANCH  14  19
ATOM     16  C   UNL     1      47.245   6.129  13.299  0.00  0.00    +0.000 A 
ATOM     17  C   UNL     1      46.966   6.845  12.131  0.00  0.00    +0.000 A 
ATOM     18  C   UNL     1      45.871   6.501  11.334  0.00  0.00    +0.000 A 
ATOM     19  C   UNL     1      45.025   5.438  11.692  0.00  0.00    +0.000 A 
ATOM     20  C   UNL     1      45.346   4.687  12.831  0.00  0.00    +0.000 A 
ATOM     21  C   UNL     1      46.444   5.029  13.626  0.00  0.00    +0.000 A 
BRANCH  16  23
ATOM     22  C   UNL     1      49.413   7.371  13.489  0.00  0.00    +0.000 C 
ATOM     23  C   UNL     1      48.341   6.581  14.231  0.00  0.00    +0.000 C 
ENDBRANCH  16  23
ENDBRANCH  14  19
ENDBRANCH   1  14
TORSDOF 5
ENDMDL
MODEL 2
REMARK VINA RESULT:    -7.834      0.656      1.088
REMARK INTER + INTRA:         -10.786
REMARK INTER:                 -10.014
REMARK INTRA:                  -0.772
REMARK UNBOUND:                -0.662
REMARK  Name = 
REMARK  7 active torsions:
REMARK  status: ('A' for Active; 'I' for Inactive)
REMARK    1  A    between atoms: C_1  and  C_2
REMARK    2  A    between atoms: C_2  and  C_3
REMARK    3  A    between atoms: C_6  and  C_7
REMARK    4  A    between atoms: C_7  and  C_8
REMARK    5  A    between atoms: C_7  and  N_9
REMARK    6  A    between atoms: N_9  and  C_10
REMARK    7  A    between atoms: C_13  and  C_14
REMARK                            x       y       z     vdW  Elec       q    Type
REMARK                         _______ _______ _______ _____ _____    ______ ____
ROOT
ATOM      1  N   UNL     1      43.726   3.833  10.338  0.00  0.00    +0.000 N 
ATOM      2  H   UNL     1      42.771   3.568  10.109  0.00  0.00    +0.000 HD
ENDROOT
BRANCH   1   3
ATOM      3  C   UNL     1      44.620   3.470   9.326  0.00  0.00    +0.000 A 
ATOM      4  C   UNL     1      45.222   4.383   8.460  0.00  0.00    +0.000 A 
ATOM      5  C   UNL     1      46.196   3.966   7.549  0.00  0.00    +0.000 A 
ATOM      6  C   UNL     1      46.559   2.627   7.535  0.00  0.00    +0.000 A 
ATOM      7  N   UNL     1      46.017   1.691   8.357  0.00  0.00    +0.000 NA
ATOM      8  C   UNL     1      45.084   2.148   9.232  0.00  0.00    +0.000 A 
BRANCH   6   9
ATOM      9  C   UNL     1      47.627   2.162   6.591  0.00  0.00    +0.000 C 
ATOM     10  N   UNL     1      47.841   2.957   5.500  0.00  0.00    +0.000 N 
ATOM     11  O   UNL     1      48.270   1.134   6.774  0.00  0.00    +0.000 OA
ATOM     12  H   UNL     1      47.277   3.793   5.370  0.00  0.00    +0.000 HD
ATOM     13  H   UNL     1      48.532   2.688   4.814  0.00  0.00    +0.000 HD
ENDBRANCH   6   9
ENDBRANCH   1   3
BRANCH   1  14
ATOM     14  C   UNL     1      43.796   5.163  10.963  0.00  0.00    +0.000 C 
ATOM     15  C   UNL     1      42.609   5.309  11.929  0.00  0.00    +0.000 C 
BRANCH  14  19
ATOM     16  C   UNL     1      47.212   6.110  13.465  0.00  0.00    +0.000 A 
ATOM     17  C   UNL     1      46.940   6.854  12.312  0.00  0.00    +0.000 A 
ATOM     18  C   UNL     1      45.883   6.494  11.470  0.00  0.00    +0.000 A 
ATOM     19  C   UNL     1      45.069   5.389  11.768  0.00  0.00    +0.000 A 
ATOM     20  C   UNL     1      45.386   4.613  12.892  0.00  0.00    +0.000 A 
ATOM     21  C   UNL     1      46.445   4.970  13.731  0.00  0.00    +0.000 A 
BRANCH  16  23
ATOM     22  C   UNL     1      49.394   7.311  13.739  0.00  0.00    +0.000 C 
ATOM     23  C   UNL     1      48.261   6.572  14.443  0.00  0.00    +0.000 C 
ENDBRANCH  16  23
ENDBRANCH  14  19
ENDBRANCH   1  14
TORSDOF 5
ENDMDL
MODEL 3
REMARK VINA RESULT:    -7.398      3.465      6.937
REMARK INTER + INTRA:         -10.223
REMARK INTER:                  -9.636
REMARK INTRA:                  -0.586
REMARK UNBOUND:                -0.662
REMARK  Name = 
REMARK  7 active torsions:
REMARK  status: ('A' for Active; 'I' for Inactive)
REMARK    1  A    between atoms: C_1  and  C_2
REMARK    2  A    between atoms: C_2  and  C_3
REMARK    3  A    between atoms: C_6  and  C_7
REMARK    4  A    between atoms: C_7  and  C_8
REMARK    5  A    between atoms: C_7  and  N_9
REMARK    6  A    between atoms: N_9  and  C_10
REMARK    7  A    between atoms: C_13  and  C_14
REMARK                            x       y       z     vdW  Elec       q    Type
REMARK                         _______ _______ _______ _____ _____    ______ ____
ROOT
ATOM      1  N   UNL     1      45.528   5.616  11.557  0.00  0.00    +0.000 N 
ATOM      2  H   UNL     1      45.129   6.551  11.518  0.00  0.00    +0.000 HD
ENDROOT
BRANCH   1   3
ATOM      3  C   UNL     1      46.282   5.425  12.719  0.00  0.00    +0.000 A 
ATOM      4  C   UNL     1      47.221   6.342  13.192  0.00  0.00    +0.000 A 
ATOM      5  C   UNL     1      47.854   6.144  14.422  0.00  0.00    +0.000 A 
ATOM      6  C   UNL     1      47.516   5.024  15.168  0.00  0.00    +0.000 A 
ATOM      7  N   UNL     1      46.605   4.100  14.767  0.00  0.00    +0.000 NA
ATOM      8  C   UNL     1      46.010   4.342  13.571  0.00  0.00    +0.000 A 
BRANCH   6   9
ATOM      9  C   UNL     1      48.155   4.808  16.506  0.00  0.00    +0.000 C 
ATOM     10  N   UNL     1      47.723   5.630  17.509  0.00  0.00    +0.000 N 
ATOM     11  O   UNL     1      49.014   3.954  16.700  0.00  0.00    +0.000 OA
ATOM     12  H   UNL     1      47.023   6.339  17.309  0.00  0.00    +0.000 HD
ATOM     13  H   UNL     1      48.130   5.550  18.431  0.00  0.00    +0.000 HD
ENDBRANCH   6   9
ENDBRANCH   1   3
BRANCH   1  14
ATOM     14  C   UNL     1      44.581   4.589  11.097  0.00  0.00    +0.000 C 
ATOM     15  C   UNL     1      43.237   5.271  10.791  0.00  0.00    +0.000 C 
BRANCH  14  19
ATOM     16  C   UNL     1      46.254   2.588   7.630  0.00  0.00    +0.000 A 
ATOM     17  C   UNL     1      46.223   3.984   7.707  0.00  0.00    +0.000 A 
ATOM     18  C   UNL     1      45.613   4.621   8.791  0.00  0.00    +0.000 A 
ATOM     19  C   UNL     1      45.029   3.875   9.829  0.00  0.00    +0.000 A 
ATOM     20  C   UNL     1      45.011   2.478   9.715  0.00  0.00    +0.000 A 
ATOM     21  C   UNL     1      45.617   1.841   8.628  0.00  0.00    +0.000 A 
BRANCH  16  23
ATOM     22  C   UNL     1      47.129   2.772   5.290  0.00  0.00    +0.000 C 
ATOM     23  C   UNL     1      47.027   1.898   6.535  0.00  0.00    +0.000 C 
ENDBRANCH  16  23
ENDBRANCH  14  19
ENDBRANCH   1  14
TORSDOF 5
ENDMDL
MODEL 4
REMARK VINA RESULT:    -7.162      3.320      6.254
REMARK INTER + INTRA:          -9.917
REMARK INTER:                  -9.535
REMARK INTRA:                  -0.382
REMARK UNBOUND:                -0.662
REMARK  Name = 
REMARK  7 active torsions:
REMARK  status: ('A' for Active; 'I' for Inactive)
REMARK    1  A    between atoms: C_1  and  C_2
REMARK    2  A    between atoms: C_2  and  C_3
REMARK    3  A    between atoms: C_6  and  C_7
REMARK    4  A    between atoms: C_7  and  C_8
REMARK    5  A    between atoms: C_7  and  N_9
REMARK    6  A    between atoms: N_9  and  C_10
REMARK    7  A    between atoms: C_13  and  C_14
REMARK                            x       y       z     vdW  Elec       q    Type
REMARK                         _______ _______ _______ _____ _____    ______ ____
ROOT
ATOM      1  N   UNL     1      44.156   3.912  12.883  0.00  0.00    +0.000 N 
ATOM      2  H   UNL     1      44.280   3.002  13.320  0.00  0.00    +0.000 HD
ENDROOT
BRANCH   1   3
ATOM      3  C   UNL     1      45.288   4.719  13.037  0.00  0.00    +0.000 A 
ATOM      4  C   UNL     1      45.270   6.109  12.919  0.00  0.00    +0.000 A 
ATOM      5  C   UNL     1      46.412   6.862  13.202  0.00  0.00    +0.000 A 
ATOM      6  C   UNL     1      47.558   6.198  13.616  0.00  0.00    +0.000 A 
ATOM      7  N   UNL     1      47.636   4.850  13.758  0.00  0.00    +0.000 NA
ATOM      8  C   UNL     1      46.498   4.163  13.483  0.00  0.00    +0.000 A 
BRANCH   6   9
ATOM      9  C   UNL     1      48.785   6.988  13.958  0.00  0.00    +0.000 C 
ATOM     10  N   UNL     1      48.962   8.146  13.254  0.00  0.00    +0.000 N 
ATOM     11  O   UNL     1      49.588   6.626  14.811  0.00  0.00    +0.000 OA
ATOM     12  H   UNL     1      48.285   8.406  12.541  0.00  0.00    +0.000 HD
ATOM     13  H   UNL     1      49.780   8.713  13.422  0.00  0.00    +0.000 HD
ENDBRANCH   6   9
ENDBRANCH   1   3
BRANCH   1  14
ATOM     14  C   UNL     1      43.472   3.814  11.584  0.00  0.00    +0.000 C 
ATOM     15  C   UNL     1      42.697   5.119  11.343  0.00  0.00    +0.000 C 
BRANCH  14  19
ATOM     16  C   UNL     1      45.842   3.203   8.002  0.00  0.00    +0.000 A 
ATOM     17  C   UNL     1      45.416   2.117   8.773  0.00  0.00    +0.000 A 
ATOM     18  C   UNL     1      44.719   2.326   9.967  0.00  0.00    +0.000 A 
ATOM     19  C   UNL     1      44.424   3.626  10.411  0.00  0.00    +0.000 A 
ATOM     20  C   UNL     1      44.908   4.710   9.664  0.00  0.00    +0.000 A 
ATOM     21  C   UNL     1      45.609   4.501   8.473  0.00  0.00    +0.000 A 
BRANCH  16  23
ATOM     22  C   UNL     1      47.693   2.073   6.747  0.00  0.00    +0.000 C 
ATOM     23  C   UNL     1      46.473   2.982   6.651  0.00  0.00    +0.000 C 
ENDBRANCH  16  23
ENDBRANCH  14  19
ENDBRANCH   1  14
TORSDOF 5
ENDMDL
MODEL 5
REMARK VINA RESULT:    -7.118      1.489      2.211
REMARK INTER + INTRA:          -9.861
REMARK INTER:                  -9.346
REMARK INTRA:                  -0.515
REMARK UNBOUND:                -0.662
REMARK  Name = 
REMARK  7 active torsions:
REMARK  status: ('A' for Active; 'I' for Inactive)
REMARK    1  A    between atoms: C_1  and  C_2
REMARK    2  A    between atoms: C_2  and  C_3
REMARK    3  A    between atoms: C_6  and  C_7
REMARK    4  A    between atoms: C_7  and  C_8
REMARK    5  A    between atoms: C_7  and  N_9
REMARK    6  A    between atoms: N_9  and  C_10
REMARK    7  A    between atoms: C_13  and  C_14
REMARK                            x       y       z     vdW  Elec       q    Type
REMARK                         _______ _______ _______ _____ _____    ______ ____
ROOT
ATOM      1  N   UNL     1      43.808   4.040  10.575  0.00  0.00    +0.000 N 
ATOM      2  H   UNL     1      43.077   4.676  10.264  0.00  0.00    +0.000 HD
ENDROOT
BRANCH   1   3
ATOM      3  C   UNL     1      44.650   3.667   9.523  0.00  0.00    +0.000 A 
ATOM      4  C   UNL     1      45.395   4.574   8.769  0.00  0.00    +0.000 A 
ATOM      5  C   UNL     1      46.307   4.124   7.811  0.00  0.00    +0.000 A 
ATOM      6  C   UNL     1      46.464   2.757   7.636  0.00  0.00    +0.000 A 
ATOM      7  N   UNL     1      45.776   1.824   8.344  0.00  0.00    +0.000 NA
ATOM      8  C   UNL     1      44.910   2.310   9.270  0.00  0.00    +0.000 A 
BRANCH   6   9
ATOM      9  C   UNL     1      47.462   2.250   6.639  0.00  0.00    +0.000 C 
ATOM     10  N   UNL     1      47.419   2.838   5.406  0.00  0.00    +0.000 N 
ATOM     11  O   UNL     1      48.266   1.363   6.900  0.00  0.00    +0.000 OA
ATOM     12  H   UNL     1      46.727   3.558   5.218  0.00  0.00    +0.000 HD
ATOM     13  H   UNL     1      48.051   2.526   4.682  0.00  0.00    +0.000 HD
ENDBRANCH   6   9
ENDBRANCH   1   3
BRANCH   1  14
ATOM     14  C   UNL     1      44.361   4.430  11.881  0.00  0.00    +0.000 C 
ATOM     15  C   UNL     1      45.338   3.335  12.340  0.00  0.00    +0.000 C 
BRANCH  14  19
ATOM     16  C   UNL     1      46.410   8.244  12.168  0.00  0.00    +0.000 A 
ATOM     17  C   UNL     1      45.069   8.178  11.778  0.00  0.00    +0.000 A 
ATOM     18  C   UNL     1      44.438   6.942  11.614  0.00  0.00    +0.000 A 
ATOM     19  C   UNL     1      45.133   5.742  11.845  0.00  0.00    +0.000 A 
ATOM     20  C   UNL     1      46.494   5.815  12.176  0.00  0.00    +0.000 A 
ATOM     21  C   UNL     1      47.125   7.052  12.336  0.00  0.00    +0.000 A 
BRANCH  16  23
ATOM     22  C   UNL     1      46.406  10.703  11.687  0.00  0.00    +0.000 C 
ATOM     23  C   UNL     1      47.054   9.572  12.477  0.00  0.00    +0.000 C 
ENDBRANCH  16  23
ENDBRANCH  14  19
ENDBRANCH   1  14
TORSDOF 5
ENDMDL
MODEL 6
REMARK VINA RESULT:    -6.188      4.483      7.455
REMARK INTER + INTRA:          -8.658
REMARK INTER:                  -7.971
REMARK INTRA:                  -0.687
REMARK UNBOUND:                -0.662
REMARK  Name = 
REMARK  7 active torsions:
REMARK  status: ('A' for Active; 'I' for Inactive)
REMARK    1  A    between atoms: C_1  and  C_2
REMARK    2  A    between atoms: C_2  and  C_3
REMARK    3  A    between atoms: C_6  and  C_7
REMARK    4  A    between atoms: C_7  and  C_8
REMARK    5  A    between atoms: C_7  and  N_9
REMARK    6  A    between atoms: N_9  and  C_10
REMARK    7  A    between atoms: C_13  and  C_14
REMARK                            x       y       z     vdW  Elec       q    Type
REMARK                         _______ _______ _______ _____ _____    ______ ____
ROOT
ATOM      1  N   UNL     1      47.124   6.132  13.246  0.00  0.00    +0.000 N 
ATOM      2  H   UNL     1      47.676   6.952  13.010  0.00  0.00    +0.000 HD
ENDROOT
BRANCH   1   3
ATOM      3  C   UNL     1      47.495   5.599  14.485  0.00  0.00    +0.000 A 
ATOM      4  C   UNL     1      47.007   4.391  14.985  0.00  0.00    +0.000 A 
ATOM      5  C   UNL     1      47.510   3.858  16.175  0.00  0.00    +0.000 A 
ATOM      6  C   UNL     1      48.514   4.549  16.838  0.00  0.00    +0.000 A 
ATOM      7  N   UNL     1      49.036   5.723  16.399  0.00  0.00    +0.000 NA
ATOM      8  C   UNL     1      48.523   6.195  15.233  0.00  0.00    +0.000 A 
BRANCH   6   9
ATOM      9  C   UNL     1      49.093   3.980  18.098  0.00  0.00    +0.000 C 
ATOM     10  N   UNL     1      48.210   3.792  19.125  0.00  0.00    +0.000 N 
ATOM     11  O   UNL     1      50.281   3.701  18.213  0.00  0.00    +0.000 OA
ATOM     12  H   UNL     1      47.235   4.051  19.001  0.00  0.00    +0.000 HD
ATOM     13  H   UNL     1      48.542   3.431  20.008  0.00  0.00    +0.000 HD
ENDBRANCH   6   9
ENDBRANCH   1   3
BRANCH   1  14
ATOM     14  C   UNL     1      45.705   6.298  12.893  0.00  0.00    +0.000 C 
ATOM     15  C   UNL     1      45.506   7.720  12.341  0.00  0.00    +0.000 C 
BRANCH  14  19
ATOM     16  C   UNL     1      44.746   3.384   9.826  0.00  0.00    +0.000 A 
ATOM     17  C   UNL     1      45.274   4.634   9.487  0.00  0.00    +0.000 A 
ATOM     18  C   UNL     1      45.508   5.595  10.474  0.00  0.00    +0.000 A 
ATOM     19  C   UNL     1      45.228   5.324  11.824  0.00  0.00    +0.000 A 
ATOM     20  C   UNL     1      44.643   4.091  12.148  0.00  0.00    +0.000 A 
ATOM     21  C   UNL     1      44.405   3.132  11.160  0.00  0.00    +0.000 A 
BRANCH  16  23
ATOM     22  C   UNL     1      45.981   1.724   8.412  0.00  0.00    +0.000 C 
ATOM     23  C   UNL     1      44.620   2.299   8.786  0.00  0.00    +0.000 C 
ENDBRANCH  16  23
ENDBRANCH  14  19
ENDBRANCH   1  14
TORSDOF 5
ENDMDL
MODEL 7
REMARK VINA RESULT:    -5.724      3.122      4.912
REMARK INTER + INTRA:          -8.058
REMARK INTER:                  -7.435
REMARK INTRA:                  -0.623
REMARK UNBOUND:                -0.662
REMARK  Name = 
REMARK  7 active torsions:
REMARK  status: ('A' for Active; 'I' for Inactive)
REMARK    1  A    between atoms: C_1  and  C_2
REMARK    2  A    between atoms: C_2  and  C_3
REMARK    3  A    between atoms: C_6  and  C_7
REMARK    4  A    between atoms: C_7  and  C_8
REMARK    5  A    between atoms: C_7  and  N_9
REMARK    6  A    between atoms: N_9  and  C_10
REMARK    7  A    between atoms: C_13  and  C_14
REMARK                            x       y       z     vdW  Elec       q    Type
REMARK                         _______ _______ _______ _____ _____    ______ ____
ROOT
ATOM      1  N   UNL     1      46.257   5.941  13.610  0.00  0.00    +0.000 N 
ATOM      2  H   UNL     1      45.987   6.922  13.622  0.00  0.00    +0.000 HD
ENDROOT
BRANCH   1   3
ATOM      3  C   UNL     1      45.744   5.279  12.490  0.00  0.00    +0.000 A 
ATOM      4  C   UNL     1      45.638   5.861  11.227  0.00  0.00    +0.000 A 
ATOM      5  C   UNL     1      45.226   5.105  10.127  0.00  0.00    +0.000 A 
ATOM      6  C   UNL     1      44.941   3.760  10.316  0.00  0.00    +0.000 A 
ATOM      7  N   UNL     1      45.033   3.133  11.517  0.00  0.00    +0.000 NA
ATOM      8  C   UNL     1      45.447   3.907  12.553  0.00  0.00    +0.000 A 
BRANCH   6   9
ATOM      9  C   UNL     1      44.532   2.921   9.143  0.00  0.00    +0.000 C 
ATOM     10  N   UNL     1      44.334   3.595   7.971  0.00  0.00    +0.000 N 
ATOM     11  O   UNL     1      44.378   1.707   9.220  0.00  0.00    +0.000 OA
ATOM     12  H   UNL     1      44.453   4.604   7.947  0.00  0.00    +0.000 HD
ATOM     13  H   UNL     1      44.036   3.090   7.148  0.00  0.00    +0.000 HD
ENDBRANCH   6   9
ENDBRANCH   1   3
BRANCH   1  14
ATOM     14  C   UNL     1      47.655   5.746  14.025  0.00  0.00    +0.000 C 
ATOM     15  C   UNL     1      48.440   7.028  13.703  0.00  0.00    +0.000 C 
BRANCH  14  19
ATOM     16  C   UNL     1      48.394   4.691  18.168  0.00  0.00    +0.000 A 
ATOM     17  C   UNL     1      47.512   3.941  17.384  0.00  0.00    +0.000 A 
ATOM     18  C   UNL     1      47.221   4.333  16.074  0.00  0.00    +0.000 A 
ATOM     19  C   UNL     1      47.812   5.478  15.515  0.00  0.00    +0.000 A 
ATOM     20  C   UNL     1      48.649   6.258  16.328  0.00  0.00    +0.000 A 
ATOM     21  C   UNL     1      48.936   5.868  17.639  0.00  0.00    +0.000 A 
BRANCH  16  23
ATOM     22  C   UNL     1      50.058   4.929  20.027  0.00  0.00    +0.000 C 
ATOM     23  C   UNL     1      48.815   4.199  19.529  0.00  0.00    +0.000 C 
ENDBRANCH  16  23
ENDBRANCH  14  19
ENDBRANCH   1  14
TORSDOF 5
ENDMDL
MODEL 8
REMARK VINA RESULT:    -5.705      3.392      5.546
REMARK INTER + INTRA:          -8.034
REMARK INTER:                  -7.395
REMARK INTRA:                  -0.640
REMARK UNBOUND:                -0.662
REMARK  Name = 
REMARK  7 active torsions:
REMARK  status: ('A' for Active; 'I' for Inactive)
REMARK    1  A    between atoms: C_1  and  C_2
REMARK    2  A    between atoms: C_2  and  C_3
REMARK    3  A    between atoms: C_6  and  C_7
REMARK    4  A    between atoms: C_7  and  C_8
REMARK    5  A    between atoms: C_7  and  N_9
REMARK    6  A    between atoms: N_9  and  C_10
REMARK    7  A    between atoms: C_13  and  C_14
REMARK                            x       y       z     vdW  Elec       q    Type
REMARK                         _______ _______ _______ _____ _____    ______ ____
ROOT
ATOM      1  N   UNL     1      46.988   6.867  13.955  0.00  0.00    +0.000 N 
ATOM      2  H   UNL     1      46.957   7.879  13.855  0.00  0.00    +0.000 HD
ENDROOT
BRANCH   1   3
ATOM      3  C   UNL     1      46.248   6.226  12.957  0.00  0.00    +0.000 A 
ATOM      4  C   UNL     1      46.369   6.515  11.597  0.00  0.00    +0.000 A 
ATOM      5  C   UNL     1      45.687   5.755  10.644  0.00  0.00    +0.000 A 
ATOM      6  C   UNL     1      44.900   4.699  11.078  0.00  0.00    +0.000 A 
ATOM      7  N   UNL     1      44.748   4.361  12.385  0.00  0.00    +0.000 NA
ATOM      8  C   UNL     1      45.439   5.122  13.272  0.00  0.00    +0.000 A 
BRANCH   6   9
ATOM      9  C   UNL     1      44.186   3.847  10.072  0.00  0.00    +0.000 C 
ATOM     10  N   UNL     1      44.108   4.362   8.808  0.00  0.00    +0.000 N 
ATOM     11  O   UNL     1      43.697   2.759  10.354  0.00  0.00    +0.000 OA
ATOM     12  H   UNL     1      44.510   5.275   8.613  0.00  0.00    +0.000 HD
ATOM     13  H   UNL     1      43.622   3.846   8.088  0.00  0.00    +0.000 HD
ENDBRANCH   6   9
ENDBRANCH   1   3
BRANCH   1  14
ATOM     14  C   UNL     1      48.329   6.388  14.323  0.00  0.00    +0.000 C 
ATOM     15  C   UNL     1      49.337   7.520  14.062  0.00  0.00    +0.000 C 
BRANCH  14  19
ATOM     16  C   UNL     1      48.353   5.536  18.577  0.00  0.00    +0.000 A 
ATOM     17  C   UNL     1      48.997   6.669  18.070  0.00  0.00    +0.000 A 
ATOM     18  C   UNL     1      49.050   6.895  16.691  0.00  0.00    +0.000 A 
ATOM     19  C   UNL     1      48.453   5.999  15.790  0.00  0.00    +0.000 A 
ATOM     20  C   UNL     1      47.861   4.835  16.303  0.00  0.00    +0.000 A 
ATOM     21  C   UNL     1      47.812   4.607  17.682  0.00  0.00    +0.000 A 
BRANCH  16  23
ATOM     22  C   UNL     1      47.454   6.550  20.686  0.00  0.00    +0.000 C 
ATOM     23  C   UNL     1      48.175   5.359  20.064  0.00  0.00    +0.000 C 
ENDBRANCH  16  23
ENDBRANCH  14  19
ENDBRANCH   1  14
TORSDOF 5
ENDMDL
MODEL 9
REMARK VINA RESULT:    -5.548      3.349      5.471
REMARK INTER + INTRA:          -7.831
REMARK INTER:                  -7.148
REMARK INTRA:                  -0.683
REMARK UNBOUND:                -0.662
REMARK  Name = 
REMARK  7 active torsions:
REMARK  status: ('A' for Active; 'I' for Inactive)
REMARK    1  A    between atoms: C_1  and  C_2
REMARK    2  A    between atoms: C_2  and  C_3
REMARK    3  A    between atoms: C_6  and  C_7
REMARK    4  A    between atoms: C_7  and  C_8
REMARK    5  A    between atoms: C_7  and  N_9
REMARK    6  A    between atoms: N_9  and  C_10
REMARK    7  A    between atoms: C_13  and  C_14
REMARK                            x       y       z     vdW  Elec       q    Type
REMARK                         _______ _______ _______ _____ _____    ______ ____
ROOT
ATOM      1  N   UNL     1      47.592   6.619  13.361  0.00  0.00    +0.000 N 
ATOM      2  H   UNL     1      47.713   6.441  14.355  0.00  0.00    +0.000 HD
ENDROOT
BRANCH   1   3
ATOM      3  C   UNL     1      46.624   5.781  12.799  0.00  0.00    +0.000 A 
ATOM      4  C   UNL     1      46.031   6.006  11.557  0.00  0.00    +0.000 A 
ATOM      5  C   UNL     1      45.158   5.066  11.003  0.00  0.00    +0.000 A 
ATOM      6  C   UNL     1      44.908   3.898  11.709  0.00  0.00    +0.000 A 
ATOM      7  N   UNL     1      45.460   3.616  12.917  0.00  0.00    +0.000 NA
ATOM      8  C   UNL     1      46.309   4.555  13.408  0.00  0.00    +0.000 A 
BRANCH   6   9
ATOM      9  C   UNL     1      44.003   2.859  11.118  0.00  0.00    +0.000 C 
ATOM     10  N   UNL     1      44.446   2.273   9.966  0.00  0.00    +0.000 N 
ATOM     11  O   UNL     1      42.931   2.549  11.627  0.00  0.00    +0.000 OA
ATOM     12  H   UNL     1      45.331   2.567   9.562  0.00  0.00    +0.000 HD
ATOM     13  H   UNL     1      43.872   1.579   9.506  0.00  0.00    +0.000 HD
ENDBRANCH   6   9
ENDBRANCH   1   3
BRANCH   1  14
ATOM     14  C   UNL     1      47.614   8.057  13.050  0.00  0.00    +0.000 C 
ATOM     15  C   UNL     1      47.733   8.837  14.370  0.00  0.00    +0.000 C 
BRANCH  14  19
ATOM     16  C   UNL     1      51.138   9.383  10.894  0.00  0.00    +0.000 A 
ATOM     17  C   UNL     1      50.097  10.271  11.181  0.00  0.00    +0.000 A 
ATOM     18  C   UNL     1      48.932   9.819  11.808  0.00  0.00    +0.000 A 
ATOM     19  C   UNL     1      48.786   8.469  12.170  0.00  0.00    +0.000 A 
ATOM     20  C   UNL     1      49.809   7.574  11.825  0.00  0.00    +0.000 A 
ATOM     21  C   UNL     1      50.972   8.026  11.194  0.00  0.00    +0.000 A 
BRANCH  16  23
ATOM     22  C   UNL     1      53.224  10.679  11.391  0.00  0.00    +0.000 C 
ATOM     23  C   UNL     1      52.447   9.890  10.343  0.00  0.00    +0.000 C 
ENDBRANCH  16  23
ENDBRANCH  14  19
ENDBRANCH   1  14
TORSDOF 5
ENDMDL
