MODEL 1
REMARK VINA RESULT:    -6.841      0.000      0.000
REMARK INTER + INTRA:         -10.118
REMARK INTER:                  -9.440
REMARK INTRA:                  -0.678
REMARK UNBOUND:                -0.678
REMARK  Name = 
REMARK  10 active torsions:
REMARK  status: ('A' for Active; 'I' for Inactive)
REMARK    1  A    between atoms: C_1  and  C_2
REMARK    2  A    between atoms: C_2  and  C_3
REMARK    3  A    between atoms: C_2  and  C_4
REMARK    4  A    between atoms: C_2  and  C_5
REMARK    5  A    between atoms: N_7  and  C_8
REMARK    6  A    between atoms: C_8  and  C_9
REMARK    7  A    between atoms: C_12  and  C_13
REMARK    8  A    between atoms: N_15  and  C_16
REMARK    9  A    between atoms: C_16  and  C_17
REMARK   10  A    between atoms: C_17  and  N_18
REMARK                            x       y       z     vdW  Elec       q    Type
REMARK                         _______ _______ _______ _____ _____    ______ ____
ROOT
ATOM      1  C   UNL     1      44.131   5.223  11.505  0.00  0.00    +0.000 A 
ATOM      2  C   UNL     1      43.555   3.961  11.658  0.00  0.00    +0.000 A 
ATOM      3  N   UNL     1      43.795   2.917  10.823  0.00  0.00    +0.000 NA
ATOM      4  C   UNL     1      44.652   3.194   9.798  0.00  0.00    +0.000 A 
ATOM      5  C   UNL     1      45.168   4.465   9.590  0.00  0.00    +0.000 A 
ATOM      6  N   UNL     1      44.910   5.504  10.427  0.00  0.00    +0.000 NA
ENDROOT
BRANCH   4   7
ATOM      7  C   UNL     1      45.112   2.062   8.942  0.00  0.00    +0.000 C 
ATOM      8  O   UNL     1      44.410   1.063   8.801  0.00  0.00    +0.000 OA
ATOM      9  N   UNL     1      46.329   2.228   8.314  0.00  0.00    +0.000 N 
ATOM     10  H   UNL     1      46.821   3.106   8.453  0.00  0.00    +0.000 HD
BRANCH   9  11
ATOM     11  C   UNL     1      46.878   1.230   7.409  0.00  0.00    +0.000 C 
BRANCH  11  12
ATOM     12  C   UNL     1      47.164   1.775   6.001  0.00  0.00    +0.000 C 
BRANCH  12  13
ATOM     13  N   UNL     1      48.607   1.865   5.722  0.00  0.00    +0.000 NA
ATOM     14  H   UNL     1      49.110   1.683   6.591  0.00  0.00    +0.000 HD
ATOM     15  H   UNL     1      48.831   2.823   5.464  0.00  0.00    +0.000 HD
ENDBRANCH  12  13
ENDBRANCH  11  12
ENDBRANCH   9  11
ENDBRANCH   4   7
BRANCH   1  16
ATOM     16  C   UNL     1      43.990   6.275  12.573  0.00  0.00    +0.000 C 
BRANCH  16  19
ATOM     17  C   UNL     1      47.203   7.849  13.314  0.00  0.00    +0.000 A 
ATOM     18  C   UNL     1      46.346   6.758  13.268  0.00  0.00    +0.000 A 
ATOM     19  N   UNL     1      45.182   7.122  12.642  0.00  0.00    +0.000 N 
ATOM     20  C   UNL     1      45.290   8.411  12.167  0.00  0.00    +0.000 A 
ATOM     21  C   UNL     1      44.380   9.197  11.436  0.00  0.00    +0.000 A 
ATOM     22  C   UNL     1      44.758  10.489  11.066  0.00  0.00    +0.000 A 
ATOM     23  C   UNL     1      46.010  10.981  11.397  0.00  0.00    +0.000 A 
ATOM     24  C   UNL     1      46.911  10.193  12.122  0.00  0.00    +0.000 A 
ATOM     25  C   UNL     1      46.555   8.886  12.540  0.00  0.00    +0.000 A 
BRANCH  17  27
ATOM     26  C   UNL     1      49.701   7.757  13.004  0.00  0.00    +0.000 C 
ATOM     27  C   UNL     1      48.561   7.864  14.033  0.00  0.00    +0.000 C 
ATOM     28  C   UNL     1      48.683   6.668  15.010  0.00  0.00    +0.000 C 
ATOM     29  C   UNL     1      48.766   9.130  14.888  0.00  0.00    +0.000 C 
ENDBRANCH  17  27
ENDBRANCH  16  19
ENDBRANCH   1  16
TORSDOF 7
ENDMDL
MODEL 2
REMARK VINA RESULT:    -6.622      1.007      2.812
REMARK INTER + INTRA:          -9.816
REMARK INTER:                  -9.090
REMARK INTRA:                  -0.726
REMARK UNBOUND:                -0.678
REMARK  Name = 
REMARK  10 active torsions:
REMARK  status: ('A' for Active; 'I' for Inactive)
REMARK    1  A    between atoms: C_1  and  C_2
REMARK    2  A    between atoms: C_2  and  C_3
REMARK    3  A    between atoms: C_2  and  C_4
REMARK    4  A    between atoms: C_2  and  C_5
REMARK    5  A    between atoms: N_7  and  C_8
REMARK    6  A    between atoms: C_8  and  C_9
REMARK    7  A    between atoms: C_12  and  C_13
REMARK    8  A    between atoms: N_15  and  C_16
REMARK    9  A    between atoms: C_16  and  C_17
REMARK   10  A    between atoms: C_17  and  N_18
REMARK                            x       y       z     vdW  Elec       q    Type
REMARK                         _______ _______ _______ _____ _____    ______ ____
ROOT
ATOM      1  C   UNL     1      44.086   5.389  10.993  0.00  0.00    +0.000 A 
ATOM      2  C   UNL     1      43.456   4.156  11.169  0.00  0.00    +0.000 A 
ATOM      3  N   UNL     1      43.751   3.050  10.438  0.00  0.00    +0.000 NA
ATOM      4  C   UNL     1      44.723   3.232   9.498  0.00  0.00    +0.000 A 
ATOM      5  C   UNL     1      45.299   4.471   9.261  0.00  0.00    +0.000 A 
ATOM      6  N   UNL     1      44.986   5.574   9.992  0.00  0.00    +0.000 NA
ENDROOT
BRANCH   4   7
ATOM      7  C   UNL     1      45.235   2.030   8.776  0.00  0.00    +0.000 C 
ATOM      8  O   UNL     1      44.609   0.973   8.802  0.00  0.00    +0.000 OA
ATOM      9  N   UNL     1      46.411   2.197   8.073  0.00  0.00    +0.000 N 
ATOM     10  H   UNL     1      46.838   3.119   8.071  0.00  0.00    +0.000 HD
BRANCH   9  11
ATOM     11  C   UNL     1      47.000   1.128   7.281  0.00  0.00    +0.000 C 
BRANCH  11  12
ATOM     12  C   UNL     1      47.723   1.630   6.022  0.00  0.00    +0.000 C 
BRANCH  12  13
ATOM     13  N   UNL     1      48.669   2.718   6.320  0.00  0.00    +0.000 NA
ATOM     14  H   UNL     1      49.019   2.583   7.269  0.00  0.00    +0.000 HD
ATOM     15  H   UNL     1      48.161   3.599   6.332  0.00  0.00    +0.000 HD
ENDBRANCH  12  13
ENDBRANCH  11  12
ENDBRANCH   9  11
ENDBRANCH   4   7
BRANCH   1  16
ATOM     16  C   UNL     1      43.864   6.518  11.965  0.00  0.00    +0.000 C 
BRANCH  16  19
ATOM     17  C   UNL     1      46.938   8.364  12.671  0.00  0.00    +0.000 A 
ATOM     18  C   UNL     1      45.644   8.266  12.177  0.00  0.00    +0.000 A 
ATOM     19  N   UNL     1      45.135   7.029  12.481  0.00  0.00    +0.000 N 
ATOM     20  C   UNL     1      46.029   6.338  13.270  0.00  0.00    +0.000 A 
ATOM     21  C   UNL     1      45.937   5.061  13.854  0.00  0.00    +0.000 A 
ATOM     22  C   UNL     1      47.002   4.602  14.630  0.00  0.00    +0.000 A 
ATOM     23  C   UNL     1      48.119   5.394  14.836  0.00  0.00    +0.000 A 
ATOM     24  C   UNL     1      48.203   6.664  14.255  0.00  0.00    +0.000 A 
ATOM     25  C   UNL     1      47.154   7.156  13.437  0.00  0.00    +0.000 A 
BRANCH  17  27
ATOM     26  C   UNL     1      47.117  10.682  11.704  0.00  0.00    +0.000 C 
ATOM     27  C   UNL     1      47.874   9.559  12.435  0.00  0.00    +0.000 C 
ATOM     28  C   UNL     1      49.086   9.149  11.560  0.00  0.00    +0.000 C 
ATOM     29  C   UNL     1      48.467  10.115  13.744  0.00  0.00    +0.000 C 
ENDBRANCH  17  27
ENDBRANCH  16  19
ENDBRANCH   1  16
TORSDOF 7
ENDMDL
MODEL 3
REMARK VINA RESULT:    -6.079      4.299      7.079
REMARK INTER + INTRA:          -9.067
REMARK INTER:                  -8.372
REMARK INTRA:                  -0.695
REMARK UNBOUND:                -0.678
REMARK  Name = 
REMARK  10 active torsions:
REMARK  status: ('A' for Active; 'I' for Inactive)
REMARK    1  A    between atoms: C_1  and  C_2
REMARK    2  A    between atoms: C_2  and  C_3
REMARK    3  A    between atoms: C_2  and  C_4
REMARK    4  A    between atoms: C_2  and  C_5
REMARK    5  A    between atoms: N_7  and  C_8
REMARK    6  A    between atoms: C_8  and  C_9
REMARK    7  A    between atoms: C_12  and  C_13
REMARK    8  A    between atoms: N_15  and  C_16
REMARK    9  A    between atoms: C_16  and  C_17
REMARK   10  A    between atoms: C_17  and  N_18
REMARK                            x       y       z     vdW  Elec       q    Type
REMARK                         _______ _______ _______ _____ _____    ______ ____
ROOT
ATOM      1  C   UNL     1      47.618   4.232  15.592  0.00  0.00    +0.000 A 
ATOM      2  C   UNL     1      47.582   5.565  15.179  0.00  0.00    +0.000 A 
ATOM      3  N   UNL     1      47.113   5.965  13.969  0.00  0.00    +0.000 NA
ATOM      4  C   UNL     1      46.674   4.954  13.166  0.00  0.00    +0.000 A 
ATOM      5  C   UNL     1      46.779   3.620  13.534  0.00  0.00    +0.000 A 
ATOM      6  N   UNL     1      47.261   3.232  14.744  0.00  0.00    +0.000 NA
ENDROOT
BRANCH   4   7
ATOM      7  C   UNL     1      45.978   5.317  11.897  0.00  0.00    +0.000 C 
ATOM      8  O   UNL     1      46.311   6.318  11.267  0.00  0.00    +0.000 OA
ATOM      9  N   UNL     1      44.985   4.455  11.479  0.00  0.00    +0.000 N 
ATOM     10  H   UNL     1      44.806   3.627  12.039  0.00  0.00    +0.000 HD
BRANCH   9  11
ATOM     11  C   UNL     1      44.257   4.653  10.235  0.00  0.00    +0.000 C 
BRANCH  11  12
ATOM     12  C   UNL     1      44.977   4.073   9.008  0.00  0.00    +0.000 C 
BRANCH  12  13
ATOM     13  N   UNL     1      45.881   5.050   8.380  0.00  0.00    +0.000 NA
ATOM     14  H   UNL     1      46.052   4.753   7.419  0.00  0.00    +0.000 HD
ATOM     15  H   UNL     1      46.783   5.011   8.849  0.00  0.00    +0.000 HD
ENDBRANCH  12  13
ENDBRANCH  11  12
ENDBRANCH   9  11
ENDBRANCH   4   7
BRANCH   1  16
ATOM     16  C   UNL     1      47.955   3.870  17.014  0.00  0.00    +0.000 C 
BRANCH  16  19
ATOM     17  C   UNL     1      51.224   5.400  17.578  0.00  0.00    +0.000 A 
ATOM     18  C   UNL     1      49.840   5.448  17.485  0.00  0.00    +0.000 A 
ATOM     19  N   UNL     1      49.352   4.177  17.322  0.00  0.00    +0.000 N 
ATOM     20  C   UNL     1      50.382   3.266  17.417  0.00  0.00    +0.000 A 
ATOM     21  C   UNL     1      50.370   1.860  17.353  0.00  0.00    +0.000 A 
ATOM     22  C   UNL     1      51.576   1.173  17.496  0.00  0.00    +0.000 A 
ATOM     23  C   UNL     1      52.759   1.860  17.714  0.00  0.00    +0.000 A 
ATOM     24  C   UNL     1      52.763   3.258  17.779  0.00  0.00    +0.000 A 
ATOM     25  C   UNL     1      51.564   3.994  17.612  0.00  0.00    +0.000 A 
BRANCH  17  27
ATOM     26  C   UNL     1      53.113   6.641  16.468  0.00  0.00    +0.000 C 
ATOM     27  C   UNL     1      52.137   6.633  17.658  0.00  0.00    +0.000 C 
ATOM     28  C   UNL     1      52.974   6.619  18.963  0.00  0.00    +0.000 C 
ATOM     29  C   UNL     1      51.348   7.956  17.677  0.00  0.00    +0.000 C 
ENDBRANCH  17  27
ENDBRANCH  16  19
ENDBRANCH   1  16
TORSDOF 7
ENDMDL
MODEL 4
REMARK VINA RESULT:    -6.008      3.697      6.401
REMARK INTER + INTRA:          -8.969
REMARK INTER:                  -8.156
REMARK INTRA:                  -0.814
REMARK UNBOUND:                -0.678
REMARK  Name = 
REMARK  10 active torsions:
REMARK  status: ('A' for Active; 'I' for Inactive)
REMARK    1  A    between atoms: C_1  and  C_2
REMARK    2  A    between atoms: C_2  and  C_3
REMARK    3  A    between atoms: C_2  and  C_4
REMARK    4  A    between atoms: C_2  and  C_5
REMARK    5  A    between atoms: N_7  and  C_8
REMARK    6  A    between atoms: C_8  and  C_9
REMARK    7  A    between atoms: C_12  and  C_13
REMARK    8  A    between atoms: N_15  and  C_16
REMARK    9  A    between atoms: C_16  and  C_17
REMARK   10  A    between atoms: C_17  and  N_18
REMARK                            x       y       z     vdW  Elec       q    Type
REMARK                         _______ _______ _______ _____ _____    ______ ____
ROOT
ATOM      1  C   UNL     1      47.944   5.876  15.056  0.00  0.00    +0.000 A 
ATOM      2  C   UNL     1      47.351   4.647  15.353  0.00  0.00    +0.000 A 
ATOM      3  N   UNL     1      46.405   4.060  14.575  0.00  0.00    +0.000 NA
ATOM      4  C   UNL     1      46.063   4.771  13.462  0.00  0.00    +0.000 A 
ATOM      5  C   UNL     1      46.586   6.029  13.199  0.00  0.00    +0.000 A 
ATOM      6  N   UNL     1      47.524   6.610  13.992  0.00  0.00    +0.000 NA
ENDROOT
BRANCH   4   7
ATOM      7  C   UNL     1      45.168   4.120  12.461  0.00  0.00    +0.000 C 
ATOM      8  O   UNL     1      44.755   2.977  12.644  0.00  0.00    +0.000 OA
ATOM      9  N   UNL     1      44.822   4.884  11.365  0.00  0.00    +0.000 N 
ATOM     10  H   UNL     1      45.174   5.835  11.317  0.00  0.00    +0.000 HD
BRANCH   9  11
ATOM     11  C   UNL     1      43.916   4.399  10.336  0.00  0.00    +0.000 C 
BRANCH  11  12
ATOM     12  C   UNL     1      44.589   4.219   8.966  0.00  0.00    +0.000 C 
BRANCH  12  13
ATOM     13  N   UNL     1      45.681   5.182   8.753  0.00  0.00    +0.000 NA
ATOM     14  H   UNL     1      46.021   5.486   9.666  0.00  0.00    +0.000 HD
ATOM     15  H   UNL     1      45.303   6.013   8.304  0.00  0.00    +0.000 HD
ENDBRANCH  12  13
ENDBRANCH  11  12
ENDBRANCH   9  11
ENDBRANCH   4   7
BRANCH   1  16
ATOM     16  C   UNL     1      49.127   6.375  15.841  0.00  0.00    +0.000 C 
BRANCH  16  19
ATOM     17  C   UNL     1      48.209   8.607  18.584  0.00  0.00    +0.000 A 
ATOM     18  C   UNL     1      48.380   8.313  17.238  0.00  0.00    +0.000 A 
ATOM     19  N   UNL     1      48.705   6.988  17.101  0.00  0.00    +0.000 N 
ATOM     20  C   UNL     1      48.644   6.364  18.329  0.00  0.00    +0.000 A 
ATOM     21  C   UNL     1      48.856   5.018  18.682  0.00  0.00    +0.000 A 
ATOM     22  C   UNL     1      48.713   4.647  20.020  0.00  0.00    +0.000 A 
ATOM     23  C   UNL     1      48.354   5.582  20.977  0.00  0.00    +0.000 A 
ATOM     24  C   UNL     1      48.142   6.918  20.618  0.00  0.00    +0.000 A 
ATOM     25  C   UNL     1      48.303   7.340  19.275  0.00  0.00    +0.000 A 
BRANCH  17  27
ATOM     26  C   UNL     1      49.103  10.438  20.065  0.00  0.00    +0.000 C 
ATOM     27  C   UNL     1      47.945  10.013  19.144  0.00  0.00    +0.000 C 
ATOM     28  C   UNL     1      46.637  10.043  19.974  0.00  0.00    +0.000 C 
ATOM     29  C   UNL     1      47.765  11.070  18.036  0.00  0.00    +0.000 C 
ENDBRANCH  17  27
ENDBRANCH  16  19
ENDBRANCH   1  16
TORSDOF 7
ENDMDL
MODEL 5
REMARK VINA RESULT:    -5.922      1.720      2.934
REMARK INTER + INTRA:          -8.850
REMARK INTER:                  -8.409
REMARK INTRA:                  -0.441
REMARK UNBOUND:                -0.678
REMARK  Name = 
REMARK  10 active torsions:
REMARK  status: ('A' for Active; 'I' for Inactive)
REMARK    1  A    between atoms: C_1  and  C_2
REMARK    2  A    between atoms: C_2  and  C_3
REMARK    3  A    between atoms: C_2  and  C_4
REMARK    4  A    between atoms: C_2  and  C_5
REMARK    5  A    between atoms: N_7  and  C_8
REMARK    6  A    between atoms: C_8  and  C_9
REMARK    7  A    between atoms: C_12  and  C_13
REMARK    8  A    between atoms: N_15  and  C_16
REMARK    9  A    between atoms: C_16  and  C_17
REMARK   10  A    between atoms: C_17  and  N_18
REMARK                            x       y       z     vdW  Elec       q    Type
REMARK                         _______ _______ _______ _____ _____    ______ ____
ROOT
ATOM      1  C   UNL     1      44.814   5.022  11.740  0.00  0.00    +0.000 A 
ATOM      2  C   UNL     1      44.368   3.708  11.896  0.00  0.00    +0.000 A 
ATOM      3  N   UNL     1      44.473   2.758  10.931  0.00  0.00    +0.000 NA
ATOM      4  C   UNL     1      45.053   3.186   9.773  0.00  0.00    +0.000 A 
ATOM      5  C   UNL     1      45.427   4.508   9.578  0.00  0.00    +0.000 A 
ATOM      6  N   UNL     1      45.305   5.452  10.548  0.00  0.00    +0.000 NA
ENDROOT
BRANCH   4   7
ATOM      7  C   UNL     1      45.372   2.168   8.730  0.00  0.00    +0.000 C 
ATOM      8  O   UNL     1      44.766   1.099   8.696  0.00  0.00    +0.000 OA
ATOM      9  N   UNL     1      46.344   2.517   7.815  0.00  0.00    +0.000 N 
ATOM     10  H   UNL     1      46.761   3.440   7.891  0.00  0.00    +0.000 HD
BRANCH   9  11
ATOM     11  C   UNL     1      46.721   1.646   6.712  0.00  0.00    +0.000 C 
BRANCH  11  12
ATOM     12  C   UNL     1      48.171   1.845   6.246  0.00  0.00    +0.000 C 
BRANCH  12  13
ATOM     13  N   UNL     1      48.252   2.616   4.995  0.00  0.00    +0.000 NA
ATOM     14  H   UNL     1      47.792   2.078   4.260  0.00  0.00    +0.000 HD
ATOM     15  H   UNL     1      49.228   2.689   4.719  0.00  0.00    +0.000 HD
ENDBRANCH  12  13
ENDBRANCH  11  12
ENDBRANCH   9  11
ENDBRANCH   4   7
BRANCH   1  16
ATOM     16  C   UNL     1      44.858   5.969  12.910  0.00  0.00    +0.000 C 
BRANCH  16  19
ATOM     17  C   UNL     1      47.549   5.191  15.256  0.00  0.00    +0.000 A 
ATOM     18  C   UNL     1      46.333   4.924  14.641  0.00  0.00    +0.000 A 
ATOM     19  N   UNL     1      46.116   5.843  13.647  0.00  0.00    +0.000 N 
ATOM     20  C   UNL     1      47.222   6.654  13.512  0.00  0.00    +0.000 A 
ATOM     21  C   UNL     1      47.482   7.706  12.614  0.00  0.00    +0.000 A 
ATOM     22  C   UNL     1      48.711   8.362  12.689  0.00  0.00    +0.000 A 
ATOM     23  C   UNL     1      49.663   7.975  13.618  0.00  0.00    +0.000 A 
ATOM     24  C   UNL     1      49.399   6.927  14.507  0.00  0.00    +0.000 A 
ATOM     25  C   UNL     1      48.152   6.252  14.480  0.00  0.00    +0.000 A 
BRANCH  17  27
ATOM     26  C   UNL     1      48.173   2.936  16.189  0.00  0.00    +0.000 C 
ATOM     27  C   UNL     1      48.088   4.444  16.486  0.00  0.00    +0.000 C 
ATOM     28  C   UNL     1      47.154   4.640  17.706  0.00  0.00    +0.000 C 
ATOM     29  C   UNL     1      49.473   4.953  16.929  0.00  0.00    +0.000 C 
ENDBRANCH  17  27
ENDBRANCH  16  19
ENDBRANCH   1  16
TORSDOF 7
ENDMDL
MODEL 6
REMARK VINA RESULT:    -5.913      3.454      6.407
REMARK INTER + INTRA:          -8.837
REMARK INTER:                  -8.006
REMARK INTRA:                  -0.832
REMARK UNBOUND:                -0.678
REMARK  Name = 
REMARK  10 active torsions:
REMARK  status: ('A' for Active; 'I' for Inactive)
REMARK    1  A    between atoms: C_1  and  C_2
REMARK    2  A    between atoms: C_2  and  C_3
REMARK    3  A    between atoms: C_2  and  C_4
REMARK    4  A    between atoms: C_2  and  C_5
REMARK    5  A    between atoms: N_7  and  C_8
REMARK    6  A    between atoms: C_8  and  C_9
REMARK    7  A    between atoms: C_12  and  C_13
REMARK    8  A    between atoms: N_15  and  C_16
REMARK    9  A    between atoms: C_16  and  C_17
REMARK   10  A    between atoms: C_17  and  N_18
REMARK                            x       y       z     vdW  Elec       q    Type
REMARK                         _______ _______ _______ _____ _____    ______ ____
ROOT
ATOM      1  C   UNL     1      48.503   7.535  13.998  0.00  0.00    +0.000 A 
ATOM      2  C   UNL     1      47.467   8.444  13.777  0.00  0.00    +0.000 A 
ATOM      3  N   UNL     1      46.290   8.115  13.185  0.00  0.00    +0.000 NA
ATOM      4  C   UNL     1      46.190   6.808  12.807  0.00  0.00    +0.000 A 
ATOM      5  C   UNL     1      47.242   5.915  12.948  0.00  0.00    +0.000 A 
ATOM      6  N   UNL     1      48.420   6.260  13.532  0.00  0.00    +0.000 NA
ENDROOT
BRANCH   4   7
ATOM      7  C   UNL     1      44.869   6.319  12.315  0.00  0.00    +0.000 C 
ATOM      8  O   UNL     1      44.276   6.917  11.420  0.00  0.00    +0.000 OA
ATOM      9  N   UNL     1      44.391   5.163  12.898  0.00  0.00    +0.000 N 
ATOM     10  H   UNL     1      44.968   4.710  13.599  0.00  0.00    +0.000 HD
BRANCH   9  11
ATOM     11  C   UNL     1      43.143   4.542  12.482  0.00  0.00    +0.000 C 
BRANCH  11  12
ATOM     12  C   UNL     1      43.312   3.548  11.323  0.00  0.00    +0.000 C 
BRANCH  12  13
ATOM     13  N   UNL     1      43.037   2.162  11.735  0.00  0.00    +0.000 NA
ATOM     14  H   UNL     1      42.696   2.178  12.697  0.00  0.00    +0.000 HD
ATOM     15  H   UNL     1      43.914   1.647  11.757  0.00  0.00    +0.000 HD
ENDBRANCH  12  13
ENDBRANCH  11  12
ENDBRANCH   9  11
ENDBRANCH   4   7
BRANCH   1  16
ATOM     16  C   UNL     1      49.695   7.906  14.840  0.00  0.00    +0.000 C 
BRANCH  16  19
ATOM     17  C   UNL     1      49.677   5.838  17.851  0.00  0.00    +0.000 A 
ATOM     18  C   UNL     1      50.122   6.154  16.575  0.00  0.00    +0.000 A 
ATOM     19  N   UNL     1      49.582   7.354  16.190  0.00  0.00    +0.000 N 
ATOM     20  C   UNL     1      48.870   7.902  17.236  0.00  0.00    +0.000 A 
ATOM     21  C   UNL     1      48.177   9.123  17.331  0.00  0.00    +0.000 A 
ATOM     22  C   UNL     1      47.544   9.441  18.532  0.00  0.00    +0.000 A 
ATOM     23  C   UNL     1      47.610   8.580  19.615  0.00  0.00    +0.000 A 
ATOM     24  C   UNL     1      48.303   7.368  19.515  0.00  0.00    +0.000 A 
ATOM     25  C   UNL     1      48.937   6.996  18.303  0.00  0.00    +0.000 A 
BRANCH  17  27
ATOM     26  C   UNL     1      48.666   3.784  18.901  0.00  0.00    +0.000 C 
ATOM     27  C   UNL     1      49.980   4.520  18.581  0.00  0.00    +0.000 C 
ATOM     28  C   UNL     1      50.720   4.782  19.916  0.00  0.00    +0.000 C 
ATOM     29  C   UNL     1      50.897   3.588  17.766  0.00  0.00    +0.000 C 
ENDBRANCH  17  27
ENDBRANCH  16  19
ENDBRANCH   1  16
TORSDOF 7
ENDMDL
MODEL 7
REMARK VINA RESULT:    -5.725      4.003      6.963
REMARK INTER + INTRA:          -8.578
REMARK INTER:                  -8.116
REMARK INTRA:                  -0.462
REMARK UNBOUND:                -0.678
REMARK  Name = 
REMARK  10 active torsions:
REMARK  status: ('A' for Active; 'I' for Inactive)
REMARK    1  A    between atoms: C_1  and  C_2
REMARK    2  A    between atoms: C_2  and  C_3
REMARK    3  A    between atoms: C_2  and  C_4
REMARK    4  A    between atoms: C_2  and  C_5
REMARK    5  A    between atoms: N_7  and  C_8
REMARK    6  A    between atoms: C_8  and  C_9
REMARK    7  A    between atoms: C_12  and  C_13
REMARK    8  A    between atoms: N_15  and  C_16
REMARK    9  A    between atoms: C_16  and  C_17
REMARK   10  A    between atoms: C_17  and  N_18
REMARK                            x       y       z     vdW  Elec       q    Type
REMARK                         _______ _______ _______ _____ _____    ______ ____
ROOT
ATOM      1  C   UNL     1      48.419   6.575  14.948  0.00  0.00    +0.000 A 
ATOM      2  C   UNL     1      47.835   7.172  13.828  0.00  0.00    +0.000 A 
ATOM      3  N   UNL     1      46.850   6.591  13.095  0.00  0.00    +0.000 NA
ATOM      4  C   UNL     1      46.466   5.358  13.533  0.00  0.00    +0.000 A 
ATOM      5  C   UNL     1      47.094   4.722  14.594  0.00  0.00    +0.000 A 
ATOM      6  N   UNL     1      48.086   5.309  15.313  0.00  0.00    +0.000 NA
ENDROOT
BRANCH   4   7
ATOM      7  C   UNL     1      45.271   4.728  12.898  0.00  0.00    +0.000 C 
ATOM      8  O   UNL     1      44.459   4.106  13.579  0.00  0.00    +0.000 OA
ATOM      9  N   UNL     1      45.132   4.918  11.539  0.00  0.00    +0.000 N 
ATOM     10  H   UNL     1      45.829   5.484  11.063  0.00  0.00    +0.000 HD
BRANCH   9  11
ATOM     11  C   UNL     1      43.991   4.407  10.796  0.00  0.00    +0.000 C 
BRANCH  11  12
ATOM     12  C   UNL     1      44.053   2.893  10.545  0.00  0.00    +0.000 C 
BRANCH  12  13
ATOM     13  N   UNL     1      43.222   2.137  11.496  0.00  0.00    +0.000 NA
ATOM     14  H   UNL     1      43.440   2.463  12.438  0.00  0.00    +0.000 HD
ATOM     15  H   UNL     1      43.500   1.159  11.468  0.00  0.00    +0.000 HD
ENDBRANCH  12  13
ENDBRANCH  11  12
ENDBRANCH   9  11
ENDBRANCH   4   7
BRANCH   1  16
ATOM     16  C   UNL     1      49.355   7.348  15.837  0.00  0.00    +0.000 C 
BRANCH  16  19
ATOM     17  C   UNL     1      51.138   5.011  18.008  0.00  0.00    +0.000 A 
ATOM     18  C   UNL     1      51.054   5.852  16.906  0.00  0.00    +0.000 A 
ATOM     19  N   UNL     1      49.854   6.515  16.932  0.00  0.00    +0.000 N 
ATOM     20  C   UNL     1      49.180   6.214  18.096  0.00  0.00    +0.000 A 
ATOM     21  C   UNL     1      47.942   6.674  18.582  0.00  0.00    +0.000 A 
ATOM     22  C   UNL     1      47.493   6.209  19.819  0.00  0.00    +0.000 A 
ATOM     23  C   UNL     1      48.259   5.325  20.561  0.00  0.00    +0.000 A 
ATOM     24  C   UNL     1      49.491   4.874  20.073  0.00  0.00    +0.000 A 
ATOM     25  C   UNL     1      49.969   5.302  18.810  0.00  0.00    +0.000 A 
BRANCH  17  27
ATOM     26  C   UNL     1      52.665   4.041  19.759  0.00  0.00    +0.000 C 
ATOM     27  C   UNL     1      52.286   4.024  18.267  0.00  0.00    +0.000 C 
ATOM     28  C   UNL     1      53.544   4.409  17.449  0.00  0.00    +0.000 C 
ATOM     29  C   UNL     1      51.935   2.582  17.850  0.00  0.00    +0.000 C 
ENDBRANCH  17  27
ENDBRANCH  16  19
ENDBRANCH   1  16
TORSDOF 7
ENDMDL
MODEL 8
REMARK VINA RESULT:    -5.659      3.514      5.720
REMARK INTER + INTRA:          -8.488
REMARK INTER:                  -7.972
REMARK INTRA:                  -0.515
REMARK UNBOUND:                -0.678
REMARK  Name = 
REMARK  10 active torsions:
REMARK  status: ('A' for Active; 'I' for Inactive)
REMARK    1  A    between atoms: C_1  and  C_2
REMARK    2  A    between atoms: C_2  and  C_3
REMARK    3  A    between atoms: C_2  and  C_4
REMARK    4  A    between atoms: C_2  and  C_5
REMARK    5  A    between atoms: N_7  and  C_8
REMARK    6  A    between atoms: C_8  and  C_9
REMARK    7  A    between atoms: C_12  and  C_13
REMARK    8  A    between atoms: N_15  and  C_16
REMARK    9  A    between atoms: C_16  and  C_17
REMARK   10  A    between atoms: C_17  and  N_18
REMARK                            x       y       z     vdW  Elec       q    Type
REMARK                         _______ _______ _______ _____ _____    ______ ____
ROOT
ATOM      1  C   UNL     1      47.802   6.040  14.635  0.00  0.00    +0.000 A 
ATOM      2  C   UNL     1      47.424   4.769  15.072  0.00  0.00    +0.000 A 
ATOM      3  N   UNL     1      46.437   4.038  14.494  0.00  0.00    +0.000 NA
ATOM      4  C   UNL     1      45.822   4.645  13.438  0.00  0.00    +0.000 A 
ATOM      5  C   UNL     1      46.134   5.938  13.046  0.00  0.00    +0.000 A 
ATOM      6  N   UNL     1      47.117   6.665  13.640  0.00  0.00    +0.000 NA
ENDROOT
BRANCH   4   7
ATOM      7  C   UNL     1      44.853   3.843  12.635  0.00  0.00    +0.000 C 
ATOM      8  O   UNL     1      43.746   3.565  13.089  0.00  0.00    +0.000 OA
ATOM      9  N   UNL     1      45.267   3.477  11.371  0.00  0.00    +0.000 N 
ATOM     10  H   UNL     1      46.182   3.789  11.060  0.00  0.00    +0.000 HD
BRANCH   9  11
ATOM     11  C   UNL     1      44.409   2.740  10.456  0.00  0.00    +0.000 C 
BRANCH  11  12
ATOM     12  C   UNL     1      44.492   3.238   9.005  0.00  0.00    +0.000 C 
BRANCH  12  13
ATOM     13  N   UNL     1      43.869   4.561   8.835  0.00  0.00    +0.000 NA
ATOM     14  H   UNL     1      43.922   5.054   9.727  0.00  0.00    +0.000 HD
ATOM     15  H   UNL     1      42.878   4.433   8.644  0.00  0.00    +0.000 HD
ENDBRANCH  12  13
ENDBRANCH  11  12
ENDBRANCH   9  11
ENDBRANCH   4   7
BRANCH   1  16
ATOM     16  C   UNL     1      49.033   6.713  15.180  0.00  0.00    +0.000 C 
BRANCH  16  19
ATOM     17  C   UNL     1      48.669   6.607  18.814  0.00  0.00    +0.000 A 
ATOM     18  C   UNL     1      49.053   6.061  17.596  0.00  0.00    +0.000 A 
ATOM     19  N   UNL     1      48.893   6.998  16.608  0.00  0.00    +0.000 N 
ATOM     20  C   UNL     1      48.514   8.201  17.164  0.00  0.00    +0.000 A 
ATOM     21  C   UNL     1      48.269   9.450  16.563  0.00  0.00    +0.000 A 
ATOM     22  C   UNL     1      47.905  10.524  17.376  0.00  0.00    +0.000 A 
ATOM     23  C   UNL     1      47.804  10.369  18.748  0.00  0.00    +0.000 A 
ATOM     24  C   UNL     1      48.051   9.124  19.340  0.00  0.00    +0.000 A 
ATOM     25  C   UNL     1      48.397   8.002  18.546  0.00  0.00    +0.000 A 
BRANCH  17  27
ATOM     26  C   UNL     1      47.254   6.088  20.831  0.00  0.00    +0.000 C 
ATOM     27  C   UNL     1      48.604   5.830  20.137  0.00  0.00    +0.000 C 
ATOM     28  C   UNL     1      49.731   6.279  21.100  0.00  0.00    +0.000 C 
ATOM     29  C   UNL     1      48.793   4.312  19.945  0.00  0.00    +0.000 C 
ENDBRANCH  17  27
ENDBRANCH  16  19
ENDBRANCH   1  16
TORSDOF 7
ENDMDL
MODEL 9
REMARK VINA RESULT:    -5.421      5.431      8.196
REMARK INTER + INTRA:          -8.159
REMARK INTER:                  -7.539
REMARK INTRA:                  -0.620
REMARK UNBOUND:                -0.678
REMARK  Name = 
REMARK  10 active torsions:
REMARK  status: ('A' for Active; 'I' for Inactive)
REMARK    1  A    between atoms: C_1  and  C_2
REMARK    2  A    between atoms: C_2  and  C_3
REMARK    3  A    between atoms: C_2  and  C_4
REMARK    4  A    between atoms: C_2  and  C_5
REMARK    5  A    between atoms: N_7  and  C_8
REMARK    6  A    between atoms: C_8  and  C_9
REMARK    7  A    between atoms: C_12  and  C_13
REMARK    8  A    between atoms: N_15  and  C_16
REMARK    9  A    between atoms: C_16  and  C_17
REMARK   10  A    between atoms: C_17  and  N_18
REMARK                            x       y       z     vdW  Elec       q    Type
REMARK                         _______ _______ _______ _____ _____    ______ ____
ROOT
ATOM      1  C   UNL     1      48.691   4.007  17.322  0.00  0.00    +0.000 A 
ATOM      2  C   UNL     1      48.412   2.870  16.561  0.00  0.00    +0.000 A 
ATOM      3  N   UNL     1      47.733   2.900  15.385  0.00  0.00    +0.000 NA
ATOM      4  C   UNL     1      47.330   4.143  14.992  0.00  0.00    +0.000 A 
ATOM      5  C   UNL     1      47.532   5.268  15.779  0.00  0.00    +0.000 A 
ATOM      6  N   UNL     1      48.203   5.223  16.960  0.00  0.00    +0.000 NA
ENDROOT
BRANCH   4   7
ATOM      7  C   UNL     1      46.739   4.291  13.630  0.00  0.00    +0.000 C 
ATOM      8  O   UNL     1      47.064   5.231  12.908  0.00  0.00    +0.000 OA
ATOM      9  N   UNL     1      45.853   3.308  13.241  0.00  0.00    +0.000 N 
ATOM     10  H   UNL     1      45.676   2.543  13.885  0.00  0.00    +0.000 HD
BRANCH   9  11
ATOM     11  C   UNL     1      45.239   3.295  11.922  0.00  0.00    +0.000 C 
BRANCH  11  12
ATOM     12  C   UNL     1      43.707   3.396  11.960  0.00  0.00    +0.000 C 
BRANCH  12  13
ATOM     13  N   UNL     1      43.057   2.107  11.673  0.00  0.00    +0.000 NA
ATOM     14  H   UNL     1      43.709   1.360  11.918  0.00  0.00    +0.000 HD
ATOM     15  H   UNL     1      42.911   2.031  10.669  0.00  0.00    +0.000 HD
ENDBRANCH  12  13
ENDBRANCH  11  12
ENDBRANCH   9  11
ENDBRANCH   4   7
BRANCH   1  16
ATOM     16  C   UNL     1      49.620   3.939  18.505  0.00  0.00    +0.000 C 
BRANCH  16  19
ATOM     17  C   UNL     1      53.054   2.921  17.784  0.00  0.00    +0.000 A 
ATOM     18  C   UNL     1      51.720   2.652  18.058  0.00  0.00    +0.000 A 
ATOM     19  N   UNL     1      51.015   3.828  18.077  0.00  0.00    +0.000 N 
ATOM     20  C   UNL     1      51.837   4.871  17.708  0.00  0.00    +0.000 A 
ATOM     21  C   UNL     1      51.561   6.242  17.549  0.00  0.00    +0.000 A 
ATOM     22  C   UNL     1      52.594   7.090  17.147  0.00  0.00    +0.000 A 
ATOM     23  C   UNL     1      53.861   6.590  16.894  0.00  0.00    +0.000 A 
ATOM     24  C   UNL     1      54.128   5.225  17.052  0.00  0.00    +0.000 A 
ATOM     25  C   UNL     1      53.113   4.335  17.484  0.00  0.00    +0.000 A 
BRANCH  17  27
ATOM     26  C   UNL     1      53.580   0.467  17.571  0.00  0.00    +0.000 C 
ATOM     27  C   UNL     1      54.175   1.871  17.787  0.00  0.00    +0.000 C 
ATOM     28  C   UNL     1      54.930   1.869  19.140  0.00  0.00    +0.000 C 
ATOM     29  C   UNL     1      55.243   2.139  16.708  0.00  0.00    +0.000 C 
ENDBRANCH  17  27
ENDBRANCH  16  19
ENDBRANCH   1  16
TORSDOF 7
ENDMDL
