MODEL 1
REMARK VINA RESULT:    -8.542      0.000      0.000
REMARK INTER + INTRA:         -12.736
REMARK INTER:                 -12.037
REMARK INTRA:                  -0.699
REMARK UNBOUND:                -0.699
REMARK  Name = 
REMARK  8 active torsions:
REMARK  status: ('A' for Active; 'I' for Inactive)
REMARK    1  A    between atoms: C_1  and  C_2
REMARK    2  A    between atoms: C_2  and  N_3
REMARK    3  A    between atoms: C_2  and  C_25
REMARK    4  A    between atoms: N_3  and  C_4
REMARK    5  A    between atoms: C_4  and  C_5
REMARK    6  A    between atoms: C_8  and  C_9
REMARK    7  A    between atoms: C_9  and  N_10
REMARK    8  A    between atoms: C_11  and  C_13
REMARK                            x       y       z     vdW  Elec       q    Type
REMARK                         _______ _______ _______ _____ _____    ______ ____
ROOT
ATOM      1  C   UNL     1      45.254   4.470  12.150  0.00  0.00    +0.000 A 
ATOM      2  C   UNL     1      45.683   5.648  11.537  0.00  0.00    +0.000 A 
ATOM      3  C   UNL     1      46.762   6.344  12.082  0.00  0.00    +0.000 A 
ATOM      4  C   UNL     1      47.397   5.852  13.223  0.00  0.00    +0.000 A 
ATOM      5  C   UNL     1      46.866   4.704  13.799  0.00  0.00    +0.000 A 
ATOM      6  N   UNL     1      45.827   4.005  13.288  0.00  0.00    +0.000 NA
ENDROOT
BRANCH   1   7
ATOM      7  C   UNL     1      44.262   3.565  11.438  0.00  0.00    +0.000 C 
BRANCH   7   8
ATOM      8  N   UNL     1      44.849   2.516  10.589  0.00  0.00    +0.000 NA
ATOM      9  H   UNL     1      44.438   1.621  10.851  0.00  0.00    +0.000 HD
BRANCH   8  11
ATOM     10  C   UNL     1      44.227   4.223   8.858  0.00  0.00    +0.000 C 
ATOM     11  C   UNL     1      44.593   2.761   9.155  0.00  0.00    +0.000 C 
BRANCH  11  12
ATOM     12  C   UNL     1      45.762   2.340   8.271  0.00  0.00    +0.000 A 
ATOM     13  C   UNL     1      46.094   0.981   8.167  0.00  0.00    +0.000 A 
ATOM     14  C   UNL     1      47.174   0.604   7.382  0.00  0.00    +0.000 A 
ATOM     15  N   UNL     1      47.941   1.474   6.695  0.00  0.00    +0.000 NA
ATOM     16  C   UNL     1      47.592   2.776   6.779  0.00  0.00    +0.000 A 
ATOM     17  C   UNL     1      46.523   3.249   7.529  0.00  0.00    +0.000 A 
ENDBRANCH  11  12
ENDBRANCH   8  11
ENDBRANCH   7   8
ENDBRANCH   1   7
BRANCH   4  18
ATOM     18  C   UNL     1      48.545   6.575  13.866  0.00  0.00    +0.000 C 
BRANCH  18  19
ATOM     19  N   UNL     1      48.282   6.732  15.271  0.00  0.00    +0.000 N 
ATOM     20  C   UNL     1      49.247   6.616  16.231  0.00  0.00    +0.000 C 
ATOM     21  O   UNL     1      50.426   6.411  15.956  0.00  0.00    +0.000 OA
ATOM     22  H   UNL     1      47.308   6.667  15.547  0.00  0.00    +0.000 HD
BRANCH  20  23
ATOM     23  C   UNL     1      48.790   6.818  17.612  0.00  0.00    +0.000 A 
ATOM     24  C   UNL     1      48.353   8.070  18.021  0.00  0.00    +0.000 A 
ATOM     25  S   UNL     1      47.760   8.097  19.620  0.00  0.00    +0.000 S 
ATOM     26  C   UNL     1      48.117   6.449  19.842  0.00  0.00    +0.000 A 
ATOM     27  N   UNL     1      47.851   5.824  21.022  0.00  0.00    +0.000 NA
ATOM     28  C   UNL     1      48.193   4.579  21.058  0.00  0.00    +0.000 A 
ATOM     29  N   UNL     1      48.782   3.901  20.023  0.00  0.00    +0.000 N 
ATOM     30  C   UNL     1      49.056   4.484  18.811  0.00  0.00    +0.000 A 
ATOM     31  O   UNL     1      49.567   3.846  17.898  0.00  0.00    +0.000 OA
ATOM     32  C   UNL     1      48.680   5.884  18.713  0.00  0.00    +0.000 A 
ATOM     33  H   UNL     1      49.029   2.925  20.115  0.00  0.00    +0.000 HD
ENDBRANCH  20  23
ENDBRANCH  18  19
ENDBRANCH   4  18
TORSDOF 7
ENDMDL
MODEL 2
REMARK VINA RESULT:    -8.370      1.444      2.151
REMARK INTER + INTRA:         -12.494
REMARK INTER:                 -11.545
REMARK INTRA:                  -0.949
REMARK UNBOUND:                -0.699
REMARK  Name = 
REMARK  8 active torsions:
REMARK  status: ('A' for Active; 'I' for Inactive)
REMARK    1  A    between atoms: C_1  and  C_2
REMARK    2  A    between atoms: C_2  and  N_3
REMARK    3  A    between atoms: C_2  and  C_25
REMARK    4  A    between atoms: N_3  and  C_4
REMARK    5  A    between atoms: C_4  and  C_5
REMARK    6  A    between atoms: C_8  and  C_9
REMARK    7  A    between atoms: C_9  and  N_10
REMARK    8  A    between atoms: C_11  and  C_13
REMARK                            x       y       z     vdW  Elec       q    Type
REMARK                         _______ _______ _______ _____ _____    ______ ____
ROOT
ATOM      1  C   UNL     1      45.231   4.495  12.483  0.00  0.00    +0.000 A 
ATOM      2  C   UNL     1      45.419   5.841  12.167  0.00  0.00    +0.000 A 
ATOM      3  C   UNL     1      46.460   6.543  12.774  0.00  0.00    +0.000 A 
ATOM      4  C   UNL     1      47.296   5.892  13.682  0.00  0.00    +0.000 A 
ATOM      5  C   UNL     1      46.999   4.567  13.981  0.00  0.00    +0.000 A 
ATOM      6  N   UNL     1      46.003   3.860  13.400  0.00  0.00    +0.000 NA
ENDROOT
BRANCH   1   7
ATOM      7  C   UNL     1      44.281   3.648  11.653  0.00  0.00    +0.000 C 
BRANCH   7   8
ATOM      8  N   UNL     1      44.916   2.667  10.757  0.00  0.00    +0.000 NA
ATOM      9  H   UNL     1      44.586   1.738  11.012  0.00  0.00    +0.000 HD
BRANCH   8  11
ATOM     10  C   UNL     1      44.237   4.393   9.066  0.00  0.00    +0.000 C 
ATOM     11  C   UNL     1      44.588   2.922   9.340  0.00  0.00    +0.000 C 
BRANCH  11  12
ATOM     12  C   UNL     1      45.699   2.481   8.393  0.00  0.00    +0.000 A 
ATOM     13  C   UNL     1      46.024   1.119   8.299  0.00  0.00    +0.000 A 
ATOM     14  C   UNL     1      47.052   0.723   7.455  0.00  0.00    +0.000 A 
ATOM     15  N   UNL     1      47.773   1.577   6.702  0.00  0.00    +0.000 NA
ATOM     16  C   UNL     1      47.431   2.881   6.778  0.00  0.00    +0.000 A 
ATOM     17  C   UNL     1      46.412   3.372   7.584  0.00  0.00    +0.000 A 
ENDBRANCH  11  12
ENDBRANCH   8  11
ENDBRANCH   7   8
ENDBRANCH   1   7
BRANCH   4  18
ATOM     18  C   UNL     1      48.414   6.607  14.385  0.00  0.00    +0.000 C 
BRANCH  18  19
ATOM     19  N   UNL     1      48.148   6.633  15.797  0.00  0.00    +0.000 N 
ATOM     20  C   UNL     1      49.004   6.120  16.731  0.00  0.00    +0.000 C 
ATOM     21  O   UNL     1      50.091   5.634  16.429  0.00  0.00    +0.000 OA
ATOM     22  H   UNL     1      47.184   6.806  16.061  0.00  0.00    +0.000 HD
BRANCH  20  23
ATOM     23  C   UNL     1      48.565   6.247  18.126  0.00  0.00    +0.000 A 
ATOM     24  C   UNL     1      48.622   5.150  18.974  0.00  0.00    +0.000 A 
ATOM     25  S   UNL     1      48.175   5.504  20.581  0.00  0.00    +0.000 S 
ATOM     26  C   UNL     1      47.834   7.124  20.191  0.00  0.00    +0.000 A 
ATOM     27  N   UNL     1      47.397   7.999  21.137  0.00  0.00    +0.000 NA
ATOM     28  C   UNL     1      47.157   9.189  20.697  0.00  0.00    +0.000 A 
ATOM     29  N   UNL     1      47.311   9.586  19.394  0.00  0.00    +0.000 N 
ATOM     30  C   UNL     1      47.764   8.744  18.408  0.00  0.00    +0.000 A 
ATOM     31  O   UNL     1      47.909   9.133  17.256  0.00  0.00    +0.000 OA
ATOM     32  C   UNL     1      48.060   7.393  18.853  0.00  0.00    +0.000 A 
ATOM     33  H   UNL     1      47.104  10.534  19.111  0.00  0.00    +0.000 HD
ENDBRANCH  20  23
ENDBRANCH  18  19
ENDBRANCH   4  18
TORSDOF 7
ENDMDL
MODEL 3
REMARK VINA RESULT:    -8.363      2.019      2.375
REMARK INTER + INTRA:         -12.484
REMARK INTER:                 -11.405
REMARK INTRA:                  -1.079
REMARK UNBOUND:                -0.699
REMARK  Name = 
REMARK  8 active torsions:
REMARK  status: ('A' for Active; 'I' for Inactive)
REMARK    1  A    between atoms: C_1  and  C_2
REMARK    2  A    between atoms: C_2  and  N_3
REMARK    3  A    between atoms: C_2  and  C_25
REMARK    4  A    between atoms: N_3  and  C_4
REMARK    5  A    between atoms: C_4  and  C_5
REMARK    6  A    between atoms: C_8  and  C_9
REMARK    7  A    between atoms: C_9  and  N_10
REMARK    8  A    between atoms: C_11  and  C_13
REMARK                            x       y       z     vdW  Elec       q    Type
REMARK                         _______ _______ _______ _____ _____    ______ ____
ROOT
ATOM      1  C   UNL     1      44.635   5.856  10.901  0.00  0.00    +0.000 A 
ATOM      2  C   UNL     1      46.020   5.707  10.810  0.00  0.00    +0.000 A 
ATOM      3  C   UNL     1      46.841   6.485  11.625  0.00  0.00    +0.000 A 
ATOM      4  C   UNL     1      46.271   7.394  12.517  0.00  0.00    +0.000 A 
ATOM      5  C   UNL     1      44.886   7.517  12.498  0.00  0.00    +0.000 A 
ATOM      6  N   UNL     1      44.065   6.769  11.726  0.00  0.00    +0.000 NA
ENDROOT
BRANCH   1   7
ATOM      7  C   UNL     1      43.720   4.850  10.222  0.00  0.00    +0.000 C 
BRANCH   7   8
ATOM      8  N   UNL     1      44.258   4.214   9.008  0.00  0.00    +0.000 NA
ATOM      9  H   UNL     1      44.896   4.868   8.558  0.00  0.00    +0.000 HD
BRANCH   8  11
ATOM     10  C   UNL     1      44.049   1.784   9.605  0.00  0.00    +0.000 C 
ATOM     11  C   UNL     1      44.988   2.967   9.317  0.00  0.00    +0.000 C 
BRANCH  11  12
ATOM     12  C   UNL     1      45.974   2.578   8.221  0.00  0.00    +0.000 A 
ATOM     13  C   UNL     1      46.342   1.233   8.071  0.00  0.00    +0.000 A 
ATOM     14  C   UNL     1      47.260   0.886   7.089  0.00  0.00    +0.000 A 
ATOM     15  N   UNL     1      47.831   1.773   6.251  0.00  0.00    +0.000 NA
ATOM     16  C   UNL     1      47.445   3.061   6.386  0.00  0.00    +0.000 A 
ATOM     17  C   UNL     1      46.527   3.503   7.329  0.00  0.00    +0.000 A 
ENDBRANCH  11  12
ENDBRANCH   8  11
ENDBRANCH   7   8
ENDBRANCH   1   7
BRANCH   4  18
ATOM     18  C   UNL     1      47.109   8.275  13.397  0.00  0.00    +0.000 C 
BRANCH  18  19
ATOM     19  N   UNL     1      47.537   7.530  14.549  0.00  0.00    +0.000 N 
ATOM     20  C   UNL     1      48.769   6.948  14.650  0.00  0.00    +0.000 C 
ATOM     21  O   UNL     1      49.622   7.058  13.773  0.00  0.00    +0.000 OA
ATOM     22  H   UNL     1      46.799   7.224  15.175  0.00  0.00    +0.000 HD
BRANCH  20  23
ATOM     23  C   UNL     1      49.028   6.235  15.908  0.00  0.00    +0.000 A 
ATOM     24  C   UNL     1      50.039   6.668  16.754  0.00  0.00    +0.000 A 
ATOM     25  S   UNL     1      50.129   5.791  18.214  0.00  0.00    +0.000 S 
ATOM     26  C   UNL     1      48.857   4.765  17.744  0.00  0.00    +0.000 A 
ATOM     27  N   UNL     1      48.422   3.765  18.559  0.00  0.00    +0.000 NA
ATOM     28  C   UNL     1      47.466   3.050  18.067  0.00  0.00    +0.000 A 
ATOM     29  N   UNL     1      46.906   3.240  16.830  0.00  0.00    +0.000 N 
ATOM     30  C   UNL     1      47.301   4.243  15.980  0.00  0.00    +0.000 A 
ATOM     31  O   UNL     1      46.768   4.400  14.889  0.00  0.00    +0.000 OA
ATOM     32  C   UNL     1      48.369   5.086  16.491  0.00  0.00    +0.000 A 
ATOM     33  H   UNL     1      46.159   2.643  16.500  0.00  0.00    +0.000 HD
ENDBRANCH  20  23
ENDBRANCH  18  19
ENDBRANCH   4  18
TORSDOF 7
ENDMDL
MODEL 4
REMARK VINA RESULT:    -7.945      2.701      3.494
REMARK INTER + INTRA:         -11.895
REMARK INTER:                 -11.198
REMARK INTRA:                  -0.696
REMARK UNBOUND:                -0.699
REMARK  Name = 
REMARK  8 active torsions:
REMARK  status: ('A' for Active; 'I' for Inactive)
REMARK    1  A    between atoms: C_1  and  C_2
REMARK    2  A    between atoms: C_2  and  N_3
REMARK    3  A    between atoms: C_2  and  C_25
REMARK    4  A    between atoms: N_3  and  C_4
REMARK    5  A    between atoms: C_4  and  C_5
REMARK    6  A    between atoms: C_8  and  C_9
REMARK    7  A    between atoms: C_9  and  N_10
REMARK    8  A    between atoms: C_11  and  C_13
REMARK                            x       y       z     vdW  Elec       q    Type
REMARK                         _______ _______ _______ _____ _____    ______ ____
ROOT
ATOM      1  C   UNL     1      46.327   4.217  13.375  0.00  0.00    +0.000 A 
ATOM      2  C   UNL     1      46.757   5.455  12.894  0.00  0.00    +0.000 A 
ATOM      3  C   UNL     1      47.532   6.271  13.717  0.00  0.00    +0.000 A 
ATOM      4  C   UNL     1      47.869   5.840  15.001  0.00  0.00    +0.000 A 
ATOM      5  C   UNL     1      47.349   4.620  15.417  0.00  0.00    +0.000 A 
ATOM      6  N   UNL     1      46.603   3.803  14.637  0.00  0.00    +0.000 NA
ENDROOT
BRANCH   1   7
ATOM      7  C   UNL     1      45.710   3.207  12.421  0.00  0.00    +0.000 C 
BRANCH   7   8
ATOM      8  N   UNL     1      44.252   3.033  12.532  0.00  0.00    +0.000 NA
ATOM      9  H   UNL     1      43.921   3.583  13.322  0.00  0.00    +0.000 HD
BRANCH   8  11
ATOM     10  C   UNL     1      42.995   4.906  11.429  0.00  0.00    +0.000 C 
ATOM     11  C   UNL     1      43.550   3.478  11.310  0.00  0.00    +0.000 C 
BRANCH  11  12
ATOM     12  C   UNL     1      44.422   3.375  10.063  0.00  0.00    +0.000 A 
ATOM     13  C   UNL     1      44.739   2.109   9.547  0.00  0.00    +0.000 A 
ATOM     14  C   UNL     1      45.554   2.018   8.427  0.00  0.00    +0.000 A 
ATOM     15  N   UNL     1      46.070   3.086   7.787  0.00  0.00    +0.000 NA
ATOM     16  C   UNL     1      45.732   4.299   8.276  0.00  0.00    +0.000 A 
ATOM     17  C   UNL     1      44.916   4.492   9.382  0.00  0.00    +0.000 A 
ENDBRANCH  11  12
ENDBRANCH   8  11
ENDBRANCH   7   8
ENDBRANCH   1   7
BRANCH   4  18
ATOM     18  C   UNL     1      48.677   6.691  15.937  0.00  0.00    +0.000 C 
BRANCH  18  19
ATOM     19  N   UNL     1      49.791   5.928  16.432  0.00  0.00    +0.000 N 
ATOM     20  C   UNL     1      49.823   5.370  17.679  0.00  0.00    +0.000 C 
ATOM     21  O   UNL     1      48.875   5.444  18.456  0.00  0.00    +0.000 OA
ATOM     22  H   UNL     1      50.662   6.042  15.925  0.00  0.00    +0.000 HD
BRANCH  20  23
ATOM     23  C   UNL     1      51.043   4.619  18.002  0.00  0.00    +0.000 A 
ATOM     24  C   UNL     1      52.110   5.262  18.614  0.00  0.00    +0.000 A 
ATOM     25  S   UNL     1      53.399   4.218  19.012  0.00  0.00    +0.000 S 
ATOM     26  C   UNL     1      52.600   2.879  18.331  0.00  0.00    +0.000 A 
ATOM     27  N   UNL     1      53.169   1.643  18.338  0.00  0.00    +0.000 NA
ATOM     28  C   UNL     1      52.462   0.724  17.768  0.00  0.00    +0.000 A 
ATOM     29  N   UNL     1      51.238   0.929  17.187  0.00  0.00    +0.000 N 
ATOM     30  C   UNL     1      50.618   2.154  17.168  0.00  0.00    +0.000 A 
ATOM     31  O   UNL     1      49.515   2.301  16.658  0.00  0.00    +0.000 OA
ATOM     32  C   UNL     1      51.367   3.222  17.808  0.00  0.00    +0.000 A 
ATOM     33  H   UNL     1      50.734   0.167  16.754  0.00  0.00    +0.000 HD
ENDBRANCH  20  23
ENDBRANCH  18  19
ENDBRANCH   4  18
TORSDOF 7
ENDMDL
MODEL 5
REMARK VINA RESULT:    -7.849      3.380      8.971
REMARK INTER + INTRA:         -11.760
REMARK INTER:                 -10.477
REMARK INTRA:                  -1.283
REMARK UNBOUND:                -0.699
REMARK  Name = 
REMARK  8 active torsions:
REMARK  status: ('A' for Active; 'I' for Inactive)
REMARK    1  A    between atoms: C_1  and  C_2
REMARK    2  A    between atoms: C_2  and  N_3
REMARK    3  A    between atoms: C_2  and  C_25
REMARK    4  A    between atoms: N_3  and  C_4
REMARK    5  A    between atoms: C_4  and  C_5
REMARK    6  A    between atoms: C_8  and  C_9
REMARK    7  A    between atoms: C_9  and  N_10
REMARK    8  A    between atoms: C_11  and  C_13
REMARK                            x       y       z     vdW  Elec       q    Type
REMARK                         _______ _______ _______ _____ _____    ______ ____
ROOT
ATOM      1  C   UNL     1      48.922   7.598  15.960  0.00  0.00    +0.000 A 
ATOM      2  C   UNL     1      48.370   8.810  15.543  0.00  0.00    +0.000 A 
ATOM      3  C   UNL     1      47.798   8.895  14.274  0.00  0.00    +0.000 A 
ATOM      4  C   UNL     1      47.783   7.773  13.445  0.00  0.00    +0.000 A 
ATOM      5  C   UNL     1      48.407   6.625  13.919  0.00  0.00    +0.000 A 
ATOM      6  N   UNL     1      48.961   6.512  15.149  0.00  0.00    +0.000 NA
ENDROOT
BRANCH   1   7
ATOM      7  C   UNL     1      49.313   7.405  17.416  0.00  0.00    +0.000 C 
BRANCH   7   8
ATOM      8  N   UNL     1      48.511   6.427  18.169  0.00  0.00    +0.000 NA
ATOM      9  H   UNL     1      47.813   6.032  17.541  0.00  0.00    +0.000 HD
BRANCH   8  11
ATOM     10  C   UNL     1      48.969   4.961  20.154  0.00  0.00    +0.000 C 
ATOM     11  C   UNL     1      49.343   5.334  18.711  0.00  0.00    +0.000 C 
BRANCH  11  12
ATOM     12  C   UNL     1      49.310   4.084  17.838  0.00  0.00    +0.000 A 
ATOM     13  C   UNL     1      50.442   3.257  17.775  0.00  0.00    +0.000 A 
ATOM     14  C   UNL     1      50.418   2.134  16.959  0.00  0.00    +0.000 A 
ATOM     15  N   UNL     1      49.357   1.776  16.210  0.00  0.00    +0.000 NA
ATOM     16  C   UNL     1      48.263   2.563  16.303  0.00  0.00    +0.000 A 
ATOM     17  C   UNL     1      48.187   3.699  17.099  0.00  0.00    +0.000 A 
ENDBRANCH  11  12
ENDBRANCH   8  11
ENDBRANCH   7   8
ENDBRANCH   1   7
BRANCH   4  18
ATOM     18  C   UNL     1      47.205   7.818  12.060  0.00  0.00    +0.000 C 
BRANCH  18  19
ATOM     19  N   UNL     1      46.561   6.565  11.772  0.00  0.00    +0.000 N 
ATOM     20  C   UNL     1      45.204   6.419  11.703  0.00  0.00    +0.000 C 
ATOM     21  O   UNL     1      44.433   7.365  11.840  0.00  0.00    +0.000 OA
ATOM     22  H   UNL     1      47.136   5.737  11.885  0.00  0.00    +0.000 HD
BRANCH  20  23
ATOM     23  C   UNL     1      44.731   5.064  11.389  0.00  0.00    +0.000 A 
ATOM     24  C   UNL     1      43.993   4.353  12.325  0.00  0.00    +0.000 A 
ATOM     25  S   UNL     1      43.438   2.845  11.754  0.00  0.00    +0.000 S 
ATOM     26  C   UNL     1      44.210   3.063  10.254  0.00  0.00    +0.000 A 
ATOM     27  N   UNL     1      44.132   2.118   9.278  0.00  0.00    +0.000 NA
ATOM     28  C   UNL     1      44.783   2.404   8.200  0.00  0.00    +0.000 A 
ATOM     29  N   UNL     1      45.510   3.550   8.009  0.00  0.00    +0.000 N 
ATOM     30  C   UNL     1      45.607   4.537   8.958  0.00  0.00    +0.000 A 
ATOM     31  O   UNL     1      46.250   5.560   8.750  0.00  0.00    +0.000 OA
ATOM     32  C   UNL     1      44.882   4.270  10.188  0.00  0.00    +0.000 A 
ATOM     33  H   UNL     1      46.001   3.715   7.140  0.00  0.00    +0.000 HD
ENDBRANCH  20  23
ENDBRANCH  18  19
ENDBRANCH   4  18
TORSDOF 7
ENDMDL
MODEL 6
REMARK VINA RESULT:    -7.504      3.676      8.520
REMARK INTER + INTRA:         -11.274
REMARK INTER:                 -10.085
REMARK INTRA:                  -1.189
REMARK UNBOUND:                -0.699
REMARK  Name = 
REMARK  8 active torsions:
REMARK  status: ('A' for Active; 'I' for Inactive)
REMARK    1  A    between atoms: C_1  and  C_2
REMARK    2  A    between atoms: C_2  and  N_3
REMARK    3  A    between atoms: C_2  and  C_25
REMARK    4  A    between atoms: N_3  and  C_4
REMARK    5  A    between atoms: C_4  and  C_5
REMARK    6  A    between atoms: C_8  and  C_9
REMARK    7  A    between atoms: C_9  and  N_10
REMARK    8  A    between atoms: C_11  and  C_13
REMARK                            x       y       z     vdW  Elec       q    Type
REMARK                         _______ _______ _______ _____ _____    ______ ____
ROOT
ATOM      1  C   UNL     1      49.890   6.865  15.841  0.00  0.00    +0.000 A 
ATOM      2  C   UNL     1      50.741   7.461  14.910  0.00  0.00    +0.000 A 
ATOM      3  C   UNL     1      50.218   7.898  13.693  0.00  0.00    +0.000 A 
ATOM      4  C   UNL     1      48.858   7.737  13.426  0.00  0.00    +0.000 A 
ATOM      5  C   UNL     1      48.097   7.079  14.386  0.00  0.00    +0.000 A 
ATOM      6  N   UNL     1      48.576   6.654  15.578  0.00  0.00    +0.000 NA
ENDROOT
BRANCH   1   7
ATOM      7  C   UNL     1      50.373   6.619  17.260  0.00  0.00    +0.000 C 
BRANCH   7   8
ATOM      8  N   UNL     1      49.325   6.316  18.249  0.00  0.00    +0.000 NA
ATOM      9  H   UNL     1      48.430   6.272  17.765  0.00  0.00    +0.000 HD
BRANCH   8  11
ATOM     10  C   UNL     1      48.614   4.791  20.112  0.00  0.00    +0.000 C 
ATOM     11  C   UNL     1      49.567   5.027  18.930  0.00  0.00    +0.000 C 
BRANCH  11  12
ATOM     12  C   UNL     1      49.499   3.839  17.977  0.00  0.00    +0.000 A 
ATOM     13  C   UNL     1      50.647   3.060  17.763  0.00  0.00    +0.000 A 
ATOM     14  C   UNL     1      50.588   1.995  16.875  0.00  0.00    +0.000 A 
ATOM     15  N   UNL     1      49.479   1.649  16.192  0.00  0.00    +0.000 NA
ATOM     16  C   UNL     1      48.373   2.388  16.430  0.00  0.00    +0.000 A 
ATOM     17  C   UNL     1      48.330   3.464  17.307  0.00  0.00    +0.000 A 
ENDBRANCH  11  12
ENDBRANCH   8  11
ENDBRANCH   7   8
ENDBRANCH   1   7
BRANCH   4  18
ATOM     18  C   UNL     1      48.249   8.163  12.122  0.00  0.00    +0.000 C 
BRANCH  18  19
ATOM     19  N   UNL     1      47.516   7.063  11.556  0.00  0.00    +0.000 N 
ATOM     20  C   UNL     1      46.156   7.058  11.424  0.00  0.00    +0.000 C 
ATOM     21  O   UNL     1      45.462   8.020  11.742  0.00  0.00    +0.000 OA
ATOM     22  H   UNL     1      48.016   6.182  11.503  0.00  0.00    +0.000 HD
BRANCH  20  23
ATOM     23  C   UNL     1      45.587   5.849  10.815  0.00  0.00    +0.000 A 
ATOM     24  C   UNL     1      45.824   5.571   9.476  0.00  0.00    +0.000 A 
ATOM     25  S   UNL     1      45.177   4.077   8.965  0.00  0.00    +0.000 S 
ATOM     26  C   UNL     1      44.509   3.775  10.500  0.00  0.00    +0.000 A 
ATOM     27  N   UNL     1      43.808   2.636  10.750  0.00  0.00    +0.000 NA
ATOM     28  C   UNL     1      43.340   2.547  11.950  0.00  0.00    +0.000 A 
ATOM     29  N   UNL     1      43.506   3.496  12.925  0.00  0.00    +0.000 N 
ATOM     30  C   UNL     1      44.217   4.653  12.725  0.00  0.00    +0.000 A 
ATOM     31  O   UNL     1      44.364   5.474  13.622  0.00  0.00    +0.000 OA
ATOM     32  C   UNL     1      44.776   4.798  11.391  0.00  0.00    +0.000 A 
ATOM     33  H   UNL     1      43.112   3.368  13.848  0.00  0.00    +0.000 HD
ENDBRANCH  20  23
ENDBRANCH  18  19
ENDBRANCH   4  18
TORSDOF 7
ENDMDL
MODEL 7
REMARK VINA RESULT:    -7.106      3.693      5.731
REMARK INTER + INTRA:         -10.712
REMARK INTER:                  -9.882
REMARK INTRA:                  -0.831
REMARK UNBOUND:                -0.699
REMARK  Name = 
REMARK  8 active torsions:
REMARK  status: ('A' for Active; 'I' for Inactive)
REMARK    1  A    between atoms: C_1  and  C_2
REMARK    2  A    between atoms: C_2  and  N_3
REMARK    3  A    between atoms: C_2  and  C_25
REMARK    4  A    between atoms: N_3  and  C_4
REMARK    5  A    between atoms: C_4  and  C_5
REMARK    6  A    between atoms: C_8  and  C_9
REMARK    7  A    between atoms: C_9  and  N_10
REMARK    8  A    between atoms: C_11  and  C_13
REMARK                            x       y       z     vdW  Elec       q    Type
REMARK                         _______ _______ _______ _____ _____    ______ ____
ROOT
ATOM      1  C   UNL     1      47.896   5.987  14.723  0.00  0.00    +0.000 A 
ATOM      2  C   UNL     1      48.622   6.389  15.846  0.00  0.00    +0.000 A 
ATOM      3  C   UNL     1      48.798   5.491  16.898  0.00  0.00    +0.000 A 
ATOM      4  C   UNL     1      48.253   4.210  16.813  0.00  0.00    +0.000 A 
ATOM      5  C   UNL     1      47.496   3.916  15.685  0.00  0.00    +0.000 A 
ATOM      6  N   UNL     1      47.317   4.763  14.645  0.00  0.00    +0.000 NA
ENDROOT
BRANCH   1   7
ATOM      7  C   UNL     1      47.910   6.842  13.467  0.00  0.00    +0.000 C 
BRANCH   7   8
ATOM      8  N   UNL     1      47.146   6.313  12.325  0.00  0.00    +0.000 NA
ATOM      9  H   UNL     1      47.319   5.311  12.259  0.00  0.00    +0.000 HD
BRANCH   8  11
ATOM     10  C   UNL     1      45.209   7.806  11.757  0.00  0.00    +0.000 C 
ATOM     11  C   UNL     1      45.695   6.540  12.482  0.00  0.00    +0.000 C 
BRANCH  11  12
ATOM     12  C   UNL     1      44.862   5.346  12.030  0.00  0.00    +0.000 A 
ATOM     13  C   UNL     1      44.721   5.083  10.659  0.00  0.00    +0.000 A 
ATOM     14  C   UNL     1      43.941   4.010  10.251  0.00  0.00    +0.000 A 
ATOM     15  N   UNL     1      43.298   3.185  11.100  0.00  0.00    +0.000 NA
ATOM     16  C   UNL     1      43.467   3.430  12.418  0.00  0.00    +0.000 A 
ATOM     17  C   UNL     1      44.235   4.470  12.923  0.00  0.00    +0.000 A 
ENDBRANCH  11  12
ENDBRANCH   8  11
ENDBRANCH   7   8
ENDBRANCH   1   7
BRANCH   4  18
ATOM     18  C   UNL     1      48.388   3.214  17.929  0.00  0.00    +0.000 C 
BRANCH  18  19
ATOM     19  N   UNL     1      49.777   2.893  18.114  0.00  0.00    +0.000 N 
ATOM     20  C   UNL     1      50.490   2.120  17.242  0.00  0.00    +0.000 C 
ATOM     21  O   UNL     1      50.002   1.676  16.206  0.00  0.00    +0.000 OA
ATOM     22  H   UNL     1      50.142   3.038  19.049  0.00  0.00    +0.000 HD
BRANCH  20  23
ATOM     23  C   UNL     1      51.901   1.908  17.595  0.00  0.00    +0.000 A 
ATOM     24  C   UNL     1      52.384   0.620  17.772  0.00  0.00    +0.000 A 
ATOM     25  S   UNL     1      54.062   0.556  18.073  0.00  0.00    +0.000 S 
ATOM     26  C   UNL     1      54.193   2.252  18.031  0.00  0.00    +0.000 A 
ATOM     27  N   UNL     1      55.390   2.870  18.219  0.00  0.00    +0.000 NA
ATOM     28  C   UNL     1      55.339   4.160  18.184  0.00  0.00    +0.000 A 
ATOM     29  N   UNL     1      54.198   4.891  17.980  0.00  0.00    +0.000 N 
ATOM     30  C   UNL     1      52.971   4.312  17.771  0.00  0.00    +0.000 A 
ATOM     31  O   UNL     1      51.971   4.992  17.573  0.00  0.00    +0.000 OA
ATOM     32  C   UNL     1      52.974   2.859  17.791  0.00  0.00    +0.000 A 
ATOM     33  H   UNL     1      54.224   5.902  17.966  0.00  0.00    +0.000 HD
ENDBRANCH  20  23
ENDBRANCH  18  19
ENDBRANCH   4  18
TORSDOF 7
ENDMDL
MODEL 8
REMARK VINA RESULT:    -7.101      3.777      8.176
REMARK INTER + INTRA:         -10.705
REMARK INTER:                  -8.441
REMARK INTRA:                  -2.264
REMARK UNBOUND:                -0.699
REMARK  Name = 
REMARK  8 active torsions:
REMARK  status: ('A' for Active; 'I' for Inactive)
REMARK    1  A    between atoms: C_1  and  C_2
REMARK    2  A    between atoms: C_2  and  N_3
REMARK    3  A    between atoms: C_2  and  C_25
REMARK    4  A    between atoms: N_3  and  C_4
REMARK    5  A    between atoms: C_4  and  C_5
REMARK    6  A    between atoms: C_8  and  C_9
REMARK    7  A    between atoms: C_9  and  N_10
REMARK    8  A    between atoms: C_11  and  C_13
REMARK                            x       y       z     vdW  Elec       q    Type
REMARK                         _______ _______ _______ _____ _____    ______ ____
ROOT
ATOM      1  C   UNL     1      51.095   7.206  17.051  0.00  0.00    +0.000 A 
ATOM      2  C   UNL     1      50.182   7.983  17.765  0.00  0.00    +0.000 A 
ATOM      3  C   UNL     1      49.182   8.664  17.072  0.00  0.00    +0.000 A 
ATOM      4  C   UNL     1      49.106   8.557  15.683  0.00  0.00    +0.000 A 
ATOM      5  C   UNL     1      50.093   7.810  15.049  0.00  0.00    +0.000 A 
ATOM      6  N   UNL     1      51.068   7.131  15.696  0.00  0.00    +0.000 NA
ENDROOT
BRANCH   1   7
ATOM      7  C   UNL     1      52.023   6.256  17.791  0.00  0.00    +0.000 C 
BRANCH   7   8
ATOM      8  N   UNL     1      51.887   4.832  17.446  0.00  0.00    +0.000 NA
ATOM      9  H   UNL     1      52.812   4.406  17.462  0.00  0.00    +0.000 HD
BRANCH   8  11
ATOM     10  C   UNL     1      50.846   4.864  19.730  0.00  0.00    +0.000 C 
ATOM     11  C   UNL     1      51.012   4.116  18.398  0.00  0.00    +0.000 C 
BRANCH  11  12
ATOM     12  C   UNL     1      49.638   3.808  17.813  0.00  0.00    +0.000 A 
ATOM     13  C   UNL     1      48.572   4.689  18.055  0.00  0.00    +0.000 A 
ATOM     14  C   UNL     1      47.317   4.392  17.543  0.00  0.00    +0.000 A 
ATOM     15  N   UNL     1      47.047   3.293  16.811  0.00  0.00    +0.000 NA
ATOM     16  C   UNL     1      48.088   2.469  16.560  0.00  0.00    +0.000 A 
ATOM     17  C   UNL     1      49.380   2.686  17.018  0.00  0.00    +0.000 A 
ENDBRANCH  11  12
ENDBRANCH   8  11
ENDBRANCH   7   8
ENDBRANCH   1   7
BRANCH   4  18
ATOM     18  C   UNL     1      48.068   9.292  14.885  0.00  0.00    +0.000 C 
BRANCH  18  19
ATOM     19  N   UNL     1      47.159   8.344  14.299  0.00  0.00    +0.000 N 
ATOM     20  C   UNL     1      47.030   8.165  12.951  0.00  0.00    +0.000 C 
ATOM     21  O   UNL     1      47.719   8.775  12.138  0.00  0.00    +0.000 OA
ATOM     22  H   UNL     1      46.426   8.001  14.910  0.00  0.00    +0.000 HD
BRANCH  20  23
ATOM     23  C   UNL     1      46.057   7.144  12.541  0.00  0.00    +0.000 A 
ATOM     24  C   UNL     1      44.940   7.509  11.802  0.00  0.00    +0.000 A 
ATOM     25  S   UNL     1      43.976   6.186  11.324  0.00  0.00    +0.000 S 
ATOM     26  C   UNL     1      44.986   5.083  12.134  0.00  0.00    +0.000 A 
ATOM     27  N   UNL     1      44.721   3.748  12.123  0.00  0.00    +0.000 NA
ATOM     28  C   UNL     1      45.557   3.030  12.796  0.00  0.00    +0.000 A 
ATOM     29  N   UNL     1      46.634   3.525  13.485  0.00  0.00    +0.000 N 
ATOM     30  C   UNL     1      46.949   4.861  13.513  0.00  0.00    +0.000 A 
ATOM     31  O   UNL     1      47.929   5.271  14.123  0.00  0.00    +0.000 OA
ATOM     32  C   UNL     1      46.045   5.714  12.760  0.00  0.00    +0.000 A 
ATOM     33  H   UNL     1      47.252   2.909  13.997  0.00  0.00    +0.000 HD
ENDBRANCH  20  23
ENDBRANCH  18  19
ENDBRANCH   4  18
TORSDOF 7
ENDMDL
MODEL 9
REMARK VINA RESULT:    -6.826      2.316      3.145
REMARK INTER + INTRA:         -10.318
REMARK INTER:                  -9.437
REMARK INTRA:                  -0.882
REMARK UNBOUND:                -0.699
REMARK  Name = 
REMARK  8 active torsions:
REMARK  status: ('A' for Active; 'I' for Inactive)
REMARK    1  A    between atoms: C_1  and  C_2
REMARK    2  A    between atoms: C_2  and  N_3
REMARK    3  A    between atoms: C_2  and  C_25
REMARK    4  A    between atoms: N_3  and  C_4
REMARK    5  A    between atoms: C_4  and  C_5
REMARK    6  A    between atoms: C_8  and  C_9
REMARK    7  A    between atoms: C_9  and  N_10
REMARK    8  A    between atoms: C_11  and  C_13
REMARK                            x       y       z     vdW  Elec       q    Type
REMARK                         _______ _______ _______ _____ _____    ______ ____
ROOT
ATOM      1  C   UNL     1      45.693   7.753  11.895  0.00  0.00    +0.000 A 
ATOM      2  C   UNL     1      45.811   8.614  12.986  0.00  0.00    +0.000 A 
ATOM      3  C   UNL     1      47.041   8.725  13.634  0.00  0.00    +0.000 A 
ATOM      4  C   UNL     1      48.131   7.979  13.183  0.00  0.00    +0.000 A 
ATOM      5  C   UNL     1      47.907   7.103  12.127  0.00  0.00    +0.000 A 
ATOM      6  N   UNL     1      46.728   6.983  11.474  0.00  0.00    +0.000 NA
ENDROOT
BRANCH   1   7
ATOM      7  C   UNL     1      44.453   7.807  11.018  0.00  0.00    +0.000 C 
BRANCH   7   8
ATOM      8  N   UNL     1      43.608   6.601  11.032  0.00  0.00    +0.000 NA
ATOM      9  H   UNL     1      43.274   6.431  10.085  0.00  0.00    +0.000 HD
BRANCH   8  11
ATOM     10  C   UNL     1      43.648   4.693  12.662  0.00  0.00    +0.000 C 
ATOM     11  C   UNL     1      44.350   5.414  11.501  0.00  0.00    +0.000 C 
BRANCH  11  12
ATOM     12  C   UNL     1      44.632   4.418  10.381  0.00  0.00    +0.000 A 
ATOM     13  C   UNL     1      44.232   3.082  10.530  0.00  0.00    +0.000 A 
ATOM     14  C   UNL     1      44.513   2.173   9.520  0.00  0.00    +0.000 A 
ATOM     15  N   UNL     1      45.155   2.495   8.380  0.00  0.00    +0.000 NA
ATOM     16  C   UNL     1      45.507   3.791   8.235  0.00  0.00    +0.000 A 
ATOM     17  C   UNL     1      45.260   4.775   9.183  0.00  0.00    +0.000 A 
ENDBRANCH  11  12
ENDBRANCH   8  11
ENDBRANCH   7   8
ENDBRANCH   1   7
BRANCH   4  18
ATOM     18  C   UNL     1      49.469   8.039  13.862  0.00  0.00    +0.000 C 
BRANCH  18  19
ATOM     19  N   UNL     1      49.510   7.068  14.920  0.00  0.00    +0.000 N 
ATOM     20  C   UNL     1      49.335   7.387  16.238  0.00  0.00    +0.000 C 
ATOM     21  O   UNL     1      49.086   8.531  16.609  0.00  0.00    +0.000 OA
ATOM     22  H   UNL     1      49.936   6.178  14.686  0.00  0.00    +0.000 HD
BRANCH  20  23
ATOM     23  C   UNL     1      49.402   6.257  17.174  0.00  0.00    +0.000 A 
ATOM     24  C   UNL     1      50.286   6.296  18.244  0.00  0.00    +0.000 A 
ATOM     25  S   UNL     1      50.154   4.952  19.286  0.00  0.00    +0.000 S 
ATOM     26  C   UNL     1      48.951   4.243  18.315  0.00  0.00    +0.000 A 
ATOM     27  N   UNL     1      48.392   3.048  18.648  0.00  0.00    +0.000 NA
ATOM     28  C   UNL     1      47.508   2.617  17.810  0.00  0.00    +0.000 A 
ATOM     29  N   UNL     1      47.134   3.271  16.665  0.00  0.00    +0.000 N 
ATOM     30  C   UNL     1      47.660   4.484  16.295  0.00  0.00    +0.000 A 
ATOM     31  O   UNL     1      47.291   5.053  15.275  0.00  0.00    +0.000 OA
ATOM     32  C   UNL     1      48.653   5.020  17.211  0.00  0.00    +0.000 A 
ATOM     33  H   UNL     1      46.436   2.879  16.047  0.00  0.00    +0.000 HD
ENDBRANCH  20  23
ENDBRANCH  18  19
ENDBRANCH   4  18
TORSDOF 7
ENDMDL
