MODEL 1
REMARK VINA RESULT:    -8.548      0.000      0.000
REMARK INTER + INTRA:         -11.649
REMARK INTER:                 -11.546
REMARK INTRA:                  -0.102
REMARK UNBOUND:                -0.102
REMARK  Name = 
REMARK  7 active torsions:
REMARK  status: ('A' for Active; 'I' for Inactive)
REMARK    1  A    between atoms: C_1  and  C_2
REMARK    2  A    between atoms: C_7  and  C_8
REMARK    3  A    between atoms: N_10  and  C_11
REMARK    4  A    between atoms: C_11  and  C_12
REMARK    5  A    between atoms: C_15  and  C_16
REMARK    6  A    between atoms: C_16  and  N_17
REMARK    7  A    between atoms: C_18  and  C_20
REMARK                            x       y       z     vdW  Elec       q    Type
REMARK                         _______ _______ _______ _____ _____    ______ ____
ROOT
ATOM      1  C   UNL     1      44.578   5.841  11.351  0.00  0.00    +0.000 A 
ATOM      2  C   UNL     1      44.458   7.237  11.377  0.00  0.00    +0.000 A 
ATOM      3  C   UNL     1      45.353   8.020  12.115  0.00  0.00    +0.000 A 
ATOM      4  C   UNL     1      46.391   7.426  12.843  0.00  0.00    +0.000 A 
ATOM      5  C   UNL     1      46.470   6.028  12.879  0.00  0.00    +0.000 A 
ATOM      6  C   UNL     1      45.580   5.243  12.130  0.00  0.00    +0.000 A 
ENDROOT
BRANCH   1   7
ATOM      7  C   UNL     1      43.715   5.025  10.417  0.00  0.00    +0.000 C 
BRANCH   7  10
ATOM      8  C   UNL     1      44.628   2.930   9.427  0.00  0.00    +0.000 C 
ATOM      9  O   UNL     1      43.933   2.203  10.129  0.00  0.00    +0.000 OA
ATOM     10  N   UNL     1      44.550   4.311   9.470  0.00  0.00    +0.000 N 
ATOM     11  H   UNL     1      45.223   4.861   8.956  0.00  0.00    +0.000 HD
BRANCH   8  18
ATOM     12  C   UNL     1      46.423   4.708   7.733  0.00  0.00    +0.000 C 
ATOM     13  C   UNL     1      46.439   3.205   7.647  0.00  0.00    +0.000 A 
ATOM     14  C   UNL     1      47.295   2.607   6.701  0.00  0.00    +0.000 A 
ATOM     15  C   UNL     1      47.406   1.220   6.605  0.00  0.00    +0.000 A 
ATOM     16  C   UNL     1      46.698   0.408   7.483  0.00  0.00    +0.000 A 
ATOM     17  C   UNL     1      45.841   0.982   8.424  0.00  0.00    +0.000 A 
ATOM     18  C   UNL     1      45.665   2.377   8.489  0.00  0.00    +0.000 A 
ENDBRANCH   8  18
ENDBRANCH   7  10
ENDBRANCH   1   7
BRANCH   4  19
ATOM     19  C   UNL     1      47.400   8.281  13.569  0.00  0.00    +0.000 C 
BRANCH  19  20
ATOM     20  N   UNL     1      47.695   7.769  14.882  0.00  0.00    +0.000 N 
ATOM     21  C   UNL     1      48.865   7.095  15.128  0.00  0.00    +0.000 C 
ATOM     22  O   UNL     1      49.721   6.940  14.260  0.00  0.00    +0.000 OA
ATOM     23  H   UNL     1      46.921   7.688  15.534  0.00  0.00    +0.000 HD
BRANCH  21  24
ATOM     24  C   UNL     1      49.079   6.616  16.499  0.00  0.00    +0.000 A 
ATOM     25  C   UNL     1      49.712   7.438  17.422  0.00  0.00    +0.000 A 
ATOM     26  S   UNL     1      49.848   6.750  18.976  0.00  0.00    +0.000 S 
ATOM     27  C   UNL     1      49.108   5.308  18.460  0.00  0.00    +0.000 A 
ATOM     28  N   UNL     1      48.941   4.265  19.317  0.00  0.00    +0.000 NA
ATOM     29  C   UNL     1      48.393   3.223  18.787  0.00  0.00    +0.000 A 
ATOM     30  N   UNL     1      47.991   3.133  17.479  0.00  0.00    +0.000 N 
ATOM     31  C   UNL     1      48.113   4.168  16.584  0.00  0.00    +0.000 A 
ATOM     32  O   UNL     1      47.705   4.072  15.433  0.00  0.00    +0.000 OA
ATOM     33  C   UNL     1      48.741   5.359  17.126  0.00  0.00    +0.000 A 
ATOM     34  H   UNL     1      47.562   2.290  17.129  0.00  0.00    +0.000 HD
ENDBRANCH  21  24
ENDBRANCH  19  20
ENDBRANCH   4  19
TORSDOF 6
ENDMDL
MODEL 2
REMARK VINA RESULT:    -8.278      1.433      2.157
REMARK INTER + INTRA:         -11.284
REMARK INTER:                 -10.292
REMARK INTRA:                  -0.993
REMARK UNBOUND:                -0.102
REMARK  Name = 
REMARK  7 active torsions:
REMARK  status: ('A' for Active; 'I' for Inactive)
REMARK    1  A    between atoms: C_1  and  C_2
REMARK    2  A    between atoms: C_7  and  C_8
REMARK    3  A    between atoms: N_10  and  C_11
REMARK    4  A    between atoms: C_11  and  C_12
REMARK    5  A    between atoms: C_15  and  C_16
REMARK    6  A    between atoms: C_16  and  N_17
REMARK    7  A    between atoms: C_18  and  C_20
REMARK                            x       y       z     vdW  Elec       q    Type
REMARK                         _______ _______ _______ _____ _____    ______ ____
ROOT
ATOM      1  C   UNL     1      46.033   7.091  11.709  0.00  0.00    +0.000 A 
ATOM      2  C   UNL     1      47.347   6.606  11.705  0.00  0.00    +0.000 A 
ATOM      3  C   UNL     1      48.323   7.172  12.531  0.00  0.00    +0.000 A 
ATOM      4  C   UNL     1      48.008   8.237  13.385  0.00  0.00    +0.000 A 
ATOM      5  C   UNL     1      46.714   8.772  13.339  0.00  0.00    +0.000 A 
ATOM      6  C   UNL     1      45.732   8.196  12.518  0.00  0.00    +0.000 A 
ENDROOT
BRANCH   1   7
ATOM      7  C   UNL     1      44.954   6.361  10.942  0.00  0.00    +0.000 C 
BRANCH   7  10
ATOM      8  C   UNL     1      44.812   4.584   9.202  0.00  0.00    +0.000 C 
ATOM      9  O   UNL     1      43.589   4.639   9.135  0.00  0.00    +0.000 OA
ATOM     10  N   UNL     1      45.557   5.418  10.018  0.00  0.00    +0.000 N 
ATOM     11  H   UNL     1      46.548   5.255  10.121  0.00  0.00    +0.000 HD
BRANCH   8  18
ATOM     12  C   UNL     1      44.363   1.589   9.489  0.00  0.00    +0.000 C 
ATOM     13  C   UNL     1      45.450   2.177   8.631  0.00  0.00    +0.000 A 
ATOM     14  C   UNL     1      46.324   1.290   7.972  0.00  0.00    +0.000 A 
ATOM     15  C   UNL     1      47.318   1.761   7.114  0.00  0.00    +0.000 A 
ATOM     16  C   UNL     1      47.425   3.124   6.864  0.00  0.00    +0.000 A 
ATOM     17  C   UNL     1      46.572   4.019   7.512  0.00  0.00    +0.000 A 
ATOM     18  C   UNL     1      45.609   3.566   8.433  0.00  0.00    +0.000 A 
ENDBRANCH   8  18
ENDBRANCH   7  10
ENDBRANCH   1   7
BRANCH   4  19
ATOM     19  C   UNL     1      49.045   8.788  14.332  0.00  0.00    +0.000 C 
BRANCH  19  20
ATOM     20  N   UNL     1      49.158   7.995  15.528  0.00  0.00    +0.000 N 
ATOM     21  C   UNL     1      48.510   8.363  16.681  0.00  0.00    +0.000 C 
ATOM     22  O   UNL     1      47.777   9.348  16.728  0.00  0.00    +0.000 OA
ATOM     23  H   UNL     1      49.920   7.326  15.572  0.00  0.00    +0.000 HD
BRANCH  21  24
ATOM     24  C   UNL     1      48.681   7.488  17.847  0.00  0.00    +0.000 A 
ATOM     25  C   UNL     1      48.974   8.044  19.085  0.00  0.00    +0.000 A 
ATOM     26  S   UNL     1      49.103   6.898  20.340  0.00  0.00    +0.000 S 
ATOM     27  C   UNL     1      48.821   5.611  19.265  0.00  0.00    +0.000 A 
ATOM     28  N   UNL     1      48.829   4.323  19.703  0.00  0.00    +0.000 NA
ATOM     29  C   UNL     1      48.630   3.445  18.778  0.00  0.00    +0.000 A 
ATOM     30  N   UNL     1      48.415   3.739  17.455  0.00  0.00    +0.000 N 
ATOM     31  C   UNL     1      48.371   5.025  16.971  0.00  0.00    +0.000 A 
ATOM     32  O   UNL     1      48.134   5.258  15.793  0.00  0.00    +0.000 OA
ATOM     33  C   UNL     1      48.607   6.051  17.970  0.00  0.00    +0.000 A 
ATOM     34  H   UNL     1      48.259   3.005  16.783  0.00  0.00    +0.000 HD
ENDBRANCH  21  24
ENDBRANCH  19  20
ENDBRANCH   4  19
TORSDOF 6
ENDMDL
MODEL 3
REMARK VINA RESULT:    -7.935      1.732      2.280
REMARK INTER + INTRA:         -10.821
REMARK INTER:                 -10.669
REMARK INTRA:                  -0.152
REMARK UNBOUND:                -0.102
REMARK  Name = 
REMARK  7 active torsions:
REMARK  status: ('A' for Active; 'I' for Inactive)
REMARK    1  A    between atoms: C_1  and  C_2
REMARK    2  A    between atoms: C_7  and  C_8
REMARK    3  A    between atoms: N_10  and  C_11
REMARK    4  A    between atoms: C_11  and  C_12
REMARK    5  A    between atoms: C_15  and  C_16
REMARK    6  A    between atoms: C_16  and  N_17
REMARK    7  A    between atoms: C_18  and  C_20
REMARK                            x       y       z     vdW  Elec       q    Type
REMARK                         _______ _______ _______ _____ _____    ______ ____
ROOT
ATOM      1  C   UNL     1      44.889   5.744  11.563  0.00  0.00    +0.000 A 
ATOM      2  C   UNL     1      45.030   7.136  11.476  0.00  0.00    +0.000 A 
ATOM      3  C   UNL     1      45.980   7.810  12.250  0.00  0.00    +0.000 A 
ATOM      4  C   UNL     1      46.816   7.109  13.128  0.00  0.00    +0.000 A 
ATOM      5  C   UNL     1      46.628   5.727  13.272  0.00  0.00    +0.000 A 
ATOM      6  C   UNL     1      45.683   5.050  12.488  0.00  0.00    +0.000 A 
ENDROOT
BRANCH   1   7
ATOM      7  C   UNL     1      43.982   5.013  10.600  0.00  0.00    +0.000 C 
BRANCH   7  10
ATOM      8  C   UNL     1      44.710   2.938   9.432  0.00  0.00    +0.000 C 
ATOM      9  O   UNL     1      43.915   2.226  10.035  0.00  0.00    +0.000 OA
ATOM     10  N   UNL     1      44.776   4.309   9.611  0.00  0.00    +0.000 N 
ATOM     11  H   UNL     1      45.522   4.830   9.175  0.00  0.00    +0.000 HD
BRANCH   8  18
ATOM     12  C   UNL     1      46.471   4.689   7.675  0.00  0.00    +0.000 C 
ATOM     13  C   UNL     1      46.477   3.186   7.604  0.00  0.00    +0.000 A 
ATOM     14  C   UNL     1      47.307   2.574   6.643  0.00  0.00    +0.000 A 
ATOM     15  C   UNL     1      47.409   1.185   6.559  0.00  0.00    +0.000 A 
ATOM     16  C   UNL     1      46.720   0.386   7.463  0.00  0.00    +0.000 A 
ATOM     17  C   UNL     1      45.889   0.974   8.419  0.00  0.00    +0.000 A 
ATOM     18  C   UNL     1      45.721   2.371   8.474  0.00  0.00    +0.000 A 
ENDBRANCH   8  18
ENDBRANCH   7  10
ENDBRANCH   1   7
BRANCH   4  19
ATOM     19  C   UNL     1      47.892   7.832  13.898  0.00  0.00    +0.000 C 
BRANCH  19  20
ATOM     20  N   UNL     1      47.902   7.461  15.289  0.00  0.00    +0.000 N 
ATOM     21  C   UNL     1      49.007   6.873  15.853  0.00  0.00    +0.000 C 
ATOM     22  O   UNL     1      50.039   6.682  15.214  0.00  0.00    +0.000 OA
ATOM     23  H   UNL     1      47.006   7.402  15.761  0.00  0.00    +0.000 HD
BRANCH  21  24
ATOM     24  C   UNL     1      48.924   6.536  17.280  0.00  0.00    +0.000 A 
ATOM     25  C   UNL     1      49.296   5.269  17.708  0.00  0.00    +0.000 A 
ATOM     26  S   UNL     1      49.178   5.051  19.394  0.00  0.00    +0.000 S 
ATOM     27  C   UNL     1      48.579   6.628  19.609  0.00  0.00    +0.000 A 
ATOM     28  N   UNL     1      48.238   7.082  20.846  0.00  0.00    +0.000 NA
ATOM     29  C   UNL     1      47.771   8.285  20.861  0.00  0.00    +0.000 A 
ATOM     30  N   UNL     1      47.621   9.078  19.752  0.00  0.00    +0.000 N 
ATOM     31  C   UNL     1      47.978   8.675  18.488  0.00  0.00    +0.000 A 
ATOM     32  O   UNL     1      47.872   9.422  17.523  0.00  0.00    +0.000 OA
ATOM     33  C   UNL     1      48.493   7.320  18.413  0.00  0.00    +0.000 A 
ATOM     34  H   UNL     1      47.255  10.014  19.834  0.00  0.00    +0.000 HD
ENDBRANCH  21  24
ENDBRANCH  19  20
ENDBRANCH   4  19
TORSDOF 6
ENDMDL
MODEL 4
REMARK VINA RESULT:    -7.858      1.853      3.261
REMARK INTER + INTRA:         -10.717
REMARK INTER:                  -9.791
REMARK INTRA:                  -0.926
REMARK UNBOUND:                -0.102
REMARK  Name = 
REMARK  7 active torsions:
REMARK  status: ('A' for Active; 'I' for Inactive)
REMARK    1  A    between atoms: C_1  and  C_2
REMARK    2  A    between atoms: C_7  and  C_8
REMARK    3  A    between atoms: N_10  and  C_11
REMARK    4  A    between atoms: C_11  and  C_12
REMARK    5  A    between atoms: C_15  and  C_16
REMARK    6  A    between atoms: C_16  and  N_17
REMARK    7  A    between atoms: C_18  and  C_20
REMARK                            x       y       z     vdW  Elec       q    Type
REMARK                         _______ _______ _______ _____ _____    ______ ____
ROOT
ATOM      1  C   UNL     1      45.613   5.487  11.661  0.00  0.00    +0.000 A 
ATOM      2  C   UNL     1      46.254   6.327  12.582  0.00  0.00    +0.000 A 
ATOM      3  C   UNL     1      46.729   5.826  13.798  0.00  0.00    +0.000 A 
ATOM      4  C   UNL     1      46.578   4.472  14.123  0.00  0.00    +0.000 A 
ATOM      5  C   UNL     1      45.873   3.646  13.238  0.00  0.00    +0.000 A 
ATOM      6  C   UNL     1      45.406   4.145  12.013  0.00  0.00    +0.000 A 
ENDROOT
BRANCH   1   7
ATOM      7  C   UNL     1      45.260   6.002  10.284  0.00  0.00    +0.000 C 
BRANCH   7  10
ATOM      8  C   UNL     1      45.146   4.258   8.511  0.00  0.00    +0.000 C 
ATOM      9  O   UNL     1      43.925   4.160   8.576  0.00  0.00    +0.000 OA
ATOM     10  N   UNL     1      45.868   5.161   9.271  0.00  0.00    +0.000 N 
ATOM     11  H   UNL     1      46.877   5.121   9.262  0.00  0.00    +0.000 HD
BRANCH   8  18
ATOM     12  C   UNL     1      45.343   1.253   8.942  0.00  0.00    +0.000 C 
ATOM     13  C   UNL     1      46.123   1.983   7.882  0.00  0.00    +0.000 A 
ATOM     14  C   UNL     1      47.018   1.237   7.089  0.00  0.00    +0.000 A 
ATOM     15  C   UNL     1      47.730   1.835   6.049  0.00  0.00    +0.000 A 
ATOM     16  C   UNL     1      47.525   3.177   5.754  0.00  0.00    +0.000 A 
ATOM     17  C   UNL     1      46.647   3.934   6.532  0.00  0.00    +0.000 A 
ATOM     18  C   UNL     1      45.971   3.363   7.627  0.00  0.00    +0.000 A 
ENDBRANCH   8  18
ENDBRANCH   7  10
ENDBRANCH   1   7
BRANCH   4  19
ATOM     19  C   UNL     1      47.165   3.924  15.400  0.00  0.00    +0.000 C 
BRANCH  19  20
ATOM     20  N   UNL     1      47.523   4.971  16.321  0.00  0.00    +0.000 N 
ATOM     21  C   UNL     1      48.676   4.893  17.062  0.00  0.00    +0.000 C 
ATOM     22  O   UNL     1      49.466   3.960  16.938  0.00  0.00    +0.000 OA
ATOM     23  H   UNL     1      46.791   5.618  16.598  0.00  0.00    +0.000 HD
BRANCH  21  24
ATOM     24  C   UNL     1      48.959   6.012  17.970  0.00  0.00    +0.000 A 
ATOM     25  C   UNL     1      48.328   6.069  19.205  0.00  0.00    +0.000 A 
ATOM     26  S   UNL     1      48.792   7.407  20.154  0.00  0.00    +0.000 S 
ATOM     27  C   UNL     1      49.818   7.986  18.927  0.00  0.00    +0.000 A 
ATOM     28  N   UNL     1      50.514   9.144  19.090  0.00  0.00    +0.000 NA
ATOM     29  C   UNL     1      51.231   9.482  18.071  0.00  0.00    +0.000 A 
ATOM     30  N   UNL     1      51.321   8.762  16.907  0.00  0.00    +0.000 N 
ATOM     31  C   UNL     1      50.661   7.573  16.707  0.00  0.00    +0.000 A 
ATOM     32  O   UNL     1      50.796   6.931  15.674  0.00  0.00    +0.000 OA
ATOM     33  C   UNL     1      49.825   7.157  17.819  0.00  0.00    +0.000 A 
ATOM     34  H   UNL     1      51.907   9.079  16.149  0.00  0.00    +0.000 HD
ENDBRANCH  21  24
ENDBRANCH  19  20
ENDBRANCH   4  19
TORSDOF 6
ENDMDL
MODEL 5
REMARK VINA RESULT:    -7.731      2.433      3.304
REMARK INTER + INTRA:         -10.546
REMARK INTER:                  -9.660
REMARK INTRA:                  -0.886
REMARK UNBOUND:                -0.102
REMARK  Name = 
REMARK  7 active torsions:
REMARK  status: ('A' for Active; 'I' for Inactive)
REMARK    1  A    between atoms: C_1  and  C_2
REMARK    2  A    between atoms: C_7  and  C_8
REMARK    3  A    between atoms: N_10  and  C_11
REMARK    4  A    between atoms: C_11  and  C_12
REMARK    5  A    between atoms: C_15  and  C_16
REMARK    6  A    between atoms: C_16  and  N_17
REMARK    7  A    between atoms: C_18  and  C_20
REMARK                            x       y       z     vdW  Elec       q    Type
REMARK                         _______ _______ _______ _____ _____    ______ ____
ROOT
ATOM      1  C   UNL     1      46.062   7.166  11.876  0.00  0.00    +0.000 A 
ATOM      2  C   UNL     1      47.357   6.634  11.813  0.00  0.00    +0.000 A 
ATOM      3  C   UNL     1      48.364   7.096  12.668  0.00  0.00    +0.000 A 
ATOM      4  C   UNL     1      48.100   8.099  13.608  0.00  0.00    +0.000 A 
ATOM      5  C   UNL     1      46.826   8.684  13.624  0.00  0.00    +0.000 A 
ATOM      6  C   UNL     1      45.814   8.213  12.776  0.00  0.00    +0.000 A 
ENDROOT
BRANCH   1   7
ATOM      7  C   UNL     1      44.947   6.540  11.070  0.00  0.00    +0.000 C 
BRANCH   7  10
ATOM      8  C   UNL     1      44.709   4.696   9.413  0.00  0.00    +0.000 C 
ATOM      9  O   UNL     1      43.484   4.712   9.455  0.00  0.00    +0.000 OA
ATOM     10  N   UNL     1      45.496   5.582  10.129  0.00  0.00    +0.000 N 
ATOM     11  H   UNL     1      46.496   5.452  10.147  0.00  0.00    +0.000 HD
BRANCH   8  18
ATOM     12  C   UNL     1      44.268   1.703   9.730  0.00  0.00    +0.000 C 
ATOM     13  C   UNL     1      45.315   2.286   8.820  0.00  0.00    +0.000 A 
ATOM     14  C   UNL     1      46.156   1.395   8.123  0.00  0.00    +0.000 A 
ATOM     15  C   UNL     1      47.109   1.862   7.218  0.00  0.00    +0.000 A 
ATOM     16  C   UNL     1      47.207   3.224   6.960  0.00  0.00    +0.000 A 
ATOM     17  C   UNL     1      46.387   4.123   7.644  0.00  0.00    +0.000 A 
ATOM     18  C   UNL     1      45.467   3.674   8.610  0.00  0.00    +0.000 A 
ENDBRANCH   8  18
ENDBRANCH   7  10
ENDBRANCH   1   7
BRANCH   4  19
ATOM     19  C   UNL     1      49.168   8.534  14.580  0.00  0.00    +0.000 C 
BRANCH  19  20
ATOM     20  N   UNL     1      49.850   7.411  15.169  0.00  0.00    +0.000 N 
ATOM     21  C   UNL     1      49.519   6.967  16.425  0.00  0.00    +0.000 C 
ATOM     22  O   UNL     1      48.607   7.473  17.075  0.00  0.00    +0.000 OA
ATOM     23  H   UNL     1      50.734   7.134  14.755  0.00  0.00    +0.000 HD
BRANCH  21  24
ATOM     24  C   UNL     1      50.266   5.811  16.938  0.00  0.00    +0.000 A 
ATOM     25  C   UNL     1      49.576   4.711  17.428  0.00  0.00    +0.000 A 
ATOM     26  S   UNL     1      50.587   3.441  17.949  0.00  0.00    +0.000 S 
ATOM     27  C   UNL     1      51.987   4.335  17.584  0.00  0.00    +0.000 A 
ATOM     28  N   UNL     1      53.224   3.824  17.826  0.00  0.00    +0.000 NA
ATOM     29  C   UNL     1      54.196   4.619  17.529  0.00  0.00    +0.000 A 
ATOM     30  N   UNL     1      54.043   5.877  17.005  0.00  0.00    +0.000 N 
ATOM     31  C   UNL     1      52.816   6.426  16.717  0.00  0.00    +0.000 A 
ATOM     32  O   UNL     1      52.713   7.535  16.208  0.00  0.00    +0.000 OA
ATOM     33  C   UNL     1      51.687   5.577  17.049  0.00  0.00    +0.000 A 
ATOM     34  H   UNL     1      54.847   6.447  16.788  0.00  0.00    +0.000 HD
ENDBRANCH  21  24
ENDBRANCH  19  20
ENDBRANCH   4  19
TORSDOF 6
ENDMDL
MODEL 6
REMARK VINA RESULT:    -7.532      4.325      8.942
REMARK INTER + INTRA:         -10.276
REMARK INTER:                  -9.279
REMARK INTRA:                  -0.997
REMARK UNBOUND:                -0.102
REMARK  Name = 
REMARK  7 active torsions:
REMARK  status: ('A' for Active; 'I' for Inactive)
REMARK    1  A    between atoms: C_1  and  C_2
REMARK    2  A    between atoms: C_7  and  C_8
REMARK    3  A    between atoms: N_10  and  C_11
REMARK    4  A    between atoms: C_11  and  C_12
REMARK    5  A    between atoms: C_15  and  C_16
REMARK    6  A    between atoms: C_16  and  N_17
REMARK    7  A    between atoms: C_18  and  C_20
REMARK                            x       y       z     vdW  Elec       q    Type
REMARK                         _______ _______ _______ _____ _____    ______ ____
ROOT
ATOM      1  C   UNL     1      50.164   4.898  17.458  0.00  0.00    +0.000 A 
ATOM      2  C   UNL     1      50.905   5.930  16.865  0.00  0.00    +0.000 A 
ATOM      3  C   UNL     1      50.321   6.780  15.920  0.00  0.00    +0.000 A 
ATOM      4  C   UNL     1      48.981   6.621  15.545  0.00  0.00    +0.000 A 
ATOM      5  C   UNL     1      48.259   5.546  16.080  0.00  0.00    +0.000 A 
ATOM      6  C   UNL     1      48.841   4.701  17.037  0.00  0.00    +0.000 A 
ENDROOT
BRANCH   1   7
ATOM      7  C   UNL     1      50.755   4.101  18.598  0.00  0.00    +0.000 C 
BRANCH   7  10
ATOM      8  C   UNL     1      52.966   2.955  18.615  0.00  0.00    +0.000 C 
ATOM      9  O   UNL     1      53.354   3.550  19.614  0.00  0.00    +0.000 OA
ATOM     10  N   UNL     1      51.700   3.128  18.083  0.00  0.00    +0.000 N 
ATOM     11  H   UNL     1      51.473   2.702  17.197  0.00  0.00    +0.000 HD
BRANCH   8  18
ATOM     12  C   UNL     1      55.453   3.893  17.135  0.00  0.00    +0.000 C 
ATOM     13  C   UNL     1      54.964   2.470  17.098  0.00  0.00    +0.000 A 
ATOM     14  C   UNL     1      55.671   1.549  16.301  0.00  0.00    +0.000 A 
ATOM     15  C   UNL     1      55.311   0.202  16.264  0.00  0.00    +0.000 A 
ATOM     16  C   UNL     1      54.268  -0.256  17.059  0.00  0.00    +0.000 A 
ATOM     17  C   UNL     1      53.551   0.643  17.852  0.00  0.00    +0.000 A 
ATOM     18  C   UNL     1      53.857   2.017  17.849  0.00  0.00    +0.000 A 
ENDBRANCH   8  18
ENDBRANCH   7  10
ENDBRANCH   1   7
BRANCH   4  19
ATOM     19  C   UNL     1      48.337   7.591  14.587  0.00  0.00    +0.000 C 
BRANCH  19  20
ATOM     20  N   UNL     1      47.109   7.075  14.041  0.00  0.00    +0.000 N 
ATOM     21  C   UNL     1      46.919   6.999  12.684  0.00  0.00    +0.000 C 
ATOM     22  O   UNL     1      47.796   7.321  11.886  0.00  0.00    +0.000 OA
ATOM     23  H   UNL     1      46.309   7.022  14.664  0.00  0.00    +0.000 HD
BRANCH  21  24
ATOM     24  C   UNL     1      45.636   6.452  12.223  0.00  0.00    +0.000 A 
ATOM     25  C   UNL     1      44.700   7.298  11.643  0.00  0.00    +0.000 A 
ATOM     26  S   UNL     1      43.282   6.503  11.128  0.00  0.00    +0.000 S 
ATOM     27  C   UNL     1      43.848   5.007  11.705  0.00  0.00    +0.000 A 
ATOM     28  N   UNL     1      43.084   3.886  11.603  0.00  0.00    +0.000 NA
ATOM     29  C   UNL     1      43.623   2.827  12.107  0.00  0.00    +0.000 A 
ATOM     30  N   UNL     1      44.860   2.785  12.697  0.00  0.00    +0.000 N 
ATOM     31  C   UNL     1      45.679   3.884  12.799  0.00  0.00    +0.000 A 
ATOM     32  O   UNL     1      46.797   3.807  13.292  0.00  0.00    +0.000 OA
ATOM     33  C   UNL     1      45.112   5.108  12.262  0.00  0.00    +0.000 A 
ATOM     34  H   UNL     1      45.227   1.921  13.066  0.00  0.00    +0.000 HD
ENDBRANCH  21  24
ENDBRANCH  19  20
ENDBRANCH   4  19
TORSDOF 6
ENDMDL
MODEL 7
REMARK VINA RESULT:    -7.379      3.723      9.306
REMARK INTER + INTRA:         -10.070
REMARK INTER:                  -9.198
REMARK INTRA:                  -0.872
REMARK UNBOUND:                -0.102
REMARK  Name = 
REMARK  7 active torsions:
REMARK  status: ('A' for Active; 'I' for Inactive)
REMARK    1  A    between atoms: C_1  and  C_2
REMARK    2  A    between atoms: C_7  and  C_8
REMARK    3  A    between atoms: N_10  and  C_11
REMARK    4  A    between atoms: C_11  and  C_12
REMARK    5  A    between atoms: C_15  and  C_16
REMARK    6  A    between atoms: C_16  and  N_17
REMARK    7  A    between atoms: C_18  and  C_20
REMARK                            x       y       z     vdW  Elec       q    Type
REMARK                         _______ _______ _______ _____ _____    ______ ____
ROOT
ATOM      1  C   UNL     1      50.395   6.684  16.250  0.00  0.00    +0.000 A 
ATOM      2  C   UNL     1      50.661   7.421  15.089  0.00  0.00    +0.000 A 
ATOM      3  C   UNL     1      49.665   7.634  14.131  0.00  0.00    +0.000 A 
ATOM      4  C   UNL     1      48.375   7.118  14.312  0.00  0.00    +0.000 A 
ATOM      5  C   UNL     1      48.126   6.319  15.436  0.00  0.00    +0.000 A 
ATOM      6  C   UNL     1      49.123   6.115  16.402  0.00  0.00    +0.000 A 
ENDROOT
BRANCH   1   7
ATOM      7  C   UNL     1      51.428   6.608  17.351  0.00  0.00    +0.000 C 
BRANCH   7  10
ATOM      8  C   UNL     1      51.826   4.346  18.314  0.00  0.00    +0.000 C 
ATOM      9  O   UNL     1      50.997   4.494  19.205  0.00  0.00    +0.000 OA
ATOM     10  N   UNL     1      52.064   5.304  17.344  0.00  0.00    +0.000 N 
ATOM     11  H   UNL     1      52.834   5.180  16.704  0.00  0.00    +0.000 HD
BRANCH   8  18
ATOM     12  C   UNL     1      50.831   1.701  17.187  0.00  0.00    +0.000 C 
ATOM     13  C   UNL     1      52.203   1.876  17.779  0.00  0.00    +0.000 A 
ATOM     14  C   UNL     1      53.040   0.745  17.853  0.00  0.00    +0.000 A 
ATOM     15  C   UNL     1      54.345   0.845  18.335  0.00  0.00    +0.000 A 
ATOM     16  C   UNL     1      54.851   2.083  18.708  0.00  0.00    +0.000 A 
ATOM     17  C   UNL     1      54.035   3.215  18.648  0.00  0.00    +0.000 A 
ATOM     18  C   UNL     1      52.695   3.121  18.228  0.00  0.00    +0.000 A 
ENDBRANCH   8  18
ENDBRANCH   7  10
ENDBRANCH   1   7
BRANCH   4  19
ATOM     19  C   UNL     1      47.285   7.421  13.315  0.00  0.00    +0.000 C 
BRANCH  19  20
ATOM     20  N   UNL     1      46.628   6.225  12.855  0.00  0.00    +0.000 N 
ATOM     21  C   UNL     1      45.554   6.296  12.003  0.00  0.00    +0.000 C 
ATOM     22  O   UNL     1      45.140   7.368  11.567  0.00  0.00    +0.000 OA
ATOM     23  H   UNL     1      46.805   5.369  13.371  0.00  0.00    +0.000 HD
BRANCH  21  24
ATOM     24  C   UNL     1      44.954   5.023  11.584  0.00  0.00    +0.000 A 
ATOM     25  C   UNL     1      44.212   4.282  12.494  0.00  0.00    +0.000 A 
ATOM     26  S   UNL     1      43.553   2.851  11.841  0.00  0.00    +0.000 S 
ATOM     27  C   UNL     1      44.278   3.145  10.331  0.00  0.00    +0.000 A 
ATOM     28  N   UNL     1      44.133   2.264   9.305  0.00  0.00    +0.000 NA
ATOM     29  C   UNL     1      44.758   2.595   8.225  0.00  0.00    +0.000 A 
ATOM     30  N   UNL     1      45.511   3.732   8.077  0.00  0.00    +0.000 N 
ATOM     31  C   UNL     1      45.664   4.666   9.074  0.00  0.00    +0.000 A 
ATOM     32  O   UNL     1      46.306   5.693   8.898  0.00  0.00    +0.000 OA
ATOM     33  C   UNL     1      44.993   4.331  10.317  0.00  0.00    +0.000 A 
ATOM     34  H   UNL     1      45.969   3.936   7.203  0.00  0.00    +0.000 HD
ENDBRANCH  21  24
ENDBRANCH  19  20
ENDBRANCH   4  19
TORSDOF 6
ENDMDL
MODEL 8
REMARK VINA RESULT:    -7.330      2.930      4.600
REMARK INTER + INTRA:         -10.003
REMARK INTER:                  -8.900
REMARK INTRA:                  -1.103
REMARK UNBOUND:                -0.102
REMARK  Name = 
REMARK  7 active torsions:
REMARK  status: ('A' for Active; 'I' for Inactive)
REMARK    1  A    between atoms: C_1  and  C_2
REMARK    2  A    between atoms: C_7  and  C_8
REMARK    3  A    between atoms: N_10  and  C_11
REMARK    4  A    between atoms: C_11  and  C_12
REMARK    5  A    between atoms: C_15  and  C_16
REMARK    6  A    between atoms: C_16  and  N_17
REMARK    7  A    between atoms: C_18  and  C_20
REMARK                            x       y       z     vdW  Elec       q    Type
REMARK                         _______ _______ _______ _____ _____    ______ ____
ROOT
ATOM      1  C   UNL     1      48.120   7.985  13.332  0.00  0.00    +0.000 A 
ATOM      2  C   UNL     1      48.749   6.816  13.784  0.00  0.00    +0.000 A 
ATOM      3  C   UNL     1      49.259   6.734  15.084  0.00  0.00    +0.000 A 
ATOM      4  C   UNL     1      49.151   7.817  15.965  0.00  0.00    +0.000 A 
ATOM      5  C   UNL     1      48.589   9.011  15.494  0.00  0.00    +0.000 A 
ATOM      6  C   UNL     1      48.067   9.090  14.194  0.00  0.00    +0.000 A 
ENDROOT
BRANCH   1   7
ATOM      7  C   UNL     1      47.425   7.999  11.990  0.00  0.00    +0.000 C 
BRANCH   7  10
ATOM      8  C   UNL     1      45.365   6.689  11.499  0.00  0.00    +0.000 C 
ATOM      9  O   UNL     1      44.681   7.688  11.309  0.00  0.00    +0.000 OA
ATOM     10  N   UNL     1      46.717   6.749  11.787  0.00  0.00    +0.000 N 
ATOM     11  H   UNL     1      47.206   5.905  12.046  0.00  0.00    +0.000 HD
BRANCH   8  18
ATOM     12  C   UNL     1      45.632   4.820   9.114  0.00  0.00    +0.000 C 
ATOM     13  C   UNL     1      44.835   4.473  10.343  0.00  0.00    +0.000 A 
ATOM     14  C   UNL     1      44.146   3.244  10.358  0.00  0.00    +0.000 A 
ATOM     15  C   UNL     1      43.436   2.830  11.486  0.00  0.00    +0.000 A 
ATOM     16  C   UNL     1      43.440   3.617  12.631  0.00  0.00    +0.000 A 
ATOM     17  C   UNL     1      44.112   4.840  12.633  0.00  0.00    +0.000 A 
ATOM     18  C   UNL     1      44.776   5.305  11.482  0.00  0.00    +0.000 A 
ENDBRANCH   8  18
ENDBRANCH   7  10
ENDBRANCH   1   7
BRANCH   4  19
ATOM     19  C   UNL     1      49.630   7.692  17.390  0.00  0.00    +0.000 C 
BRANCH  19  20
ATOM     20  N   UNL     1      50.512   6.567  17.565  0.00  0.00    +0.000 N 
ATOM     21  C   UNL     1      50.768   6.061  18.815  0.00  0.00    +0.000 C 
ATOM     22  O   UNL     1      50.226   6.511  19.822  0.00  0.00    +0.000 OA
ATOM     23  H   UNL     1      51.129   6.336  16.793  0.00  0.00    +0.000 HD
BRANCH  21  24
ATOM     24  C   UNL     1      51.676   4.910  18.892  0.00  0.00    +0.000 A 
ATOM     25  C   UNL     1      52.848   5.009  19.629  0.00  0.00    +0.000 A 
ATOM     26  S   UNL     1      53.771   3.575  19.649  0.00  0.00    +0.000 S 
ATOM     27  C   UNL     1      52.661   2.785  18.632  0.00  0.00    +0.000 A 
ATOM     28  N   UNL     1      52.877   1.504  18.227  0.00  0.00    +0.000 NA
ATOM     29  C   UNL     1      51.971   1.037  17.434  0.00  0.00    +0.000 A 
ATOM     30  N   UNL     1      50.865   1.731  17.017  0.00  0.00    +0.000 N 
ATOM     31  C   UNL     1      50.589   3.016  17.421  0.00  0.00    +0.000 A 
ATOM     32  O   UNL     1      49.571   3.595  17.066  0.00  0.00    +0.000 OA
ATOM     33  C   UNL     1      51.588   3.595  18.301  0.00  0.00    +0.000 A 
ATOM     34  H   UNL     1      50.190   1.305  16.401  0.00  0.00    +0.000 HD
ENDBRANCH  21  24
ENDBRANCH  19  20
ENDBRANCH   4  19
TORSDOF 6
ENDMDL
MODEL 9
REMARK VINA RESULT:    -7.152      3.008      9.007
REMARK INTER + INTRA:          -9.764
REMARK INTER:                  -8.569
REMARK INTRA:                  -1.195
REMARK UNBOUND:                -0.102
REMARK  Name = 
REMARK  7 active torsions:
REMARK  status: ('A' for Active; 'I' for Inactive)
REMARK    1  A    between atoms: C_1  and  C_2
REMARK    2  A    between atoms: C_7  and  C_8
REMARK    3  A    between atoms: N_10  and  C_11
REMARK    4  A    between atoms: C_11  and  C_12
REMARK    5  A    between atoms: C_15  and  C_16
REMARK    6  A    between atoms: C_16  and  N_17
REMARK    7  A    between atoms: C_18  and  C_20
REMARK                            x       y       z     vdW  Elec       q    Type
REMARK                         _______ _______ _______ _____ _____    ______ ____
ROOT
ATOM      1  C   UNL     1      50.420   8.410  14.916  0.00  0.00    +0.000 A 
ATOM      2  C   UNL     1      49.095   8.756  15.213  0.00  0.00    +0.000 A 
ATOM      3  C   UNL     1      48.116   8.768  14.214  0.00  0.00    +0.000 A 
ATOM      4  C   UNL     1      48.438   8.431  12.893  0.00  0.00    +0.000 A 
ATOM      5  C   UNL     1      49.775   8.156  12.579  0.00  0.00    +0.000 A 
ATOM      6  C   UNL     1      50.754   8.133  13.583  0.00  0.00    +0.000 A 
ENDROOT
BRANCH   1   7
ATOM      7  C   UNL     1      51.425   8.235  16.032  0.00  0.00    +0.000 C 
BRANCH   7  10
ATOM      8  C   UNL     1      51.031   6.135  17.312  0.00  0.00    +0.000 C 
ATOM      9  O   UNL     1      51.801   5.477  16.621  0.00  0.00    +0.000 OA
ATOM     10  N   UNL     1      50.825   7.491  17.124  0.00  0.00    +0.000 N 
ATOM     11  H   UNL     1      50.098   7.958  17.644  0.00  0.00    +0.000 HD
BRANCH   8  18
ATOM     12  C   UNL     1      48.230   5.054  16.822  0.00  0.00    +0.000 C 
ATOM     13  C   UNL     1      48.872   5.082  18.183  0.00  0.00    +0.000 A 
ATOM     14  C   UNL     1      48.114   4.628  19.281  0.00  0.00    +0.000 A 
ATOM     15  C   UNL     1      48.665   4.571  20.562  0.00  0.00    +0.000 A 
ATOM     16  C   UNL     1      49.994   4.922  20.759  0.00  0.00    +0.000 A 
ATOM     17  C   UNL     1      50.759   5.379  19.684  0.00  0.00    +0.000 A 
ATOM     18  C   UNL     1      50.201   5.508  18.398  0.00  0.00    +0.000 A 
ENDBRANCH   8  18
ENDBRANCH   7  10
ENDBRANCH   1   7
BRANCH   4  19
ATOM     19  C   UNL     1      47.361   8.368  11.839  0.00  0.00    +0.000 C 
BRANCH  19  20
ATOM     20  N   UNL     1      46.714   7.082  11.806  0.00  0.00    +0.000 N 
ATOM     21  C   UNL     1      45.361   6.980  11.599  0.00  0.00    +0.000 C 
ATOM     22  O   UNL     1      44.659   7.966  11.390  0.00  0.00    +0.000 OA
ATOM     23  H   UNL     1      47.224   6.295  12.195  0.00  0.00    +0.000 HD
BRANCH  21  24
ATOM     24  C   UNL     1      44.794   5.625  11.577  0.00  0.00    +0.000 A 
ATOM     25  C   UNL     1      44.096   5.156  12.681  0.00  0.00    +0.000 A 
ATOM     26  S   UNL     1      43.470   3.583  12.481  0.00  0.00    +0.000 S 
ATOM     27  C   UNL     1      44.151   3.453  10.928  0.00  0.00    +0.000 A 
ATOM     28  N   UNL     1      44.011   2.313  10.199  0.00  0.00    +0.000 NA
ATOM     29  C   UNL     1      44.601   2.339   9.051  0.00  0.00    +0.000 A 
ATOM     30  N   UNL     1      45.313   3.405   8.563  0.00  0.00    +0.000 N 
ATOM     31  C   UNL     1      45.458   4.587   9.251  0.00  0.00    +0.000 A 
ATOM     32  O   UNL     1      46.063   5.537   8.770  0.00  0.00    +0.000 OA
ATOM     33  C   UNL     1      44.826   4.603  10.557  0.00  0.00    +0.000 A 
ATOM     34  H   UNL     1      45.745   3.364   7.654  0.00  0.00    +0.000 HD
ENDBRANCH  21  24
ENDBRANCH  19  20
ENDBRANCH   4  19
TORSDOF 6
ENDMDL
