MODEL 1
REMARK VINA RESULT:    -8.393      0.000      0.000
REMARK INTER + INTRA:         -12.841
REMARK INTER:                 -11.827
REMARK INTRA:                  -1.014
REMARK UNBOUND:                -1.014
REMARK  Name = 
REMARK  8 active torsions:
REMARK  status: ('A' for Active; 'I' for Inactive)
REMARK    1  A    between atoms: C_1  and  C_2
REMARK    2  A    between atoms: C_5  and  C_6
REMARK    3  A    between atoms: C_6  and  N_7
REMARK    4  A    between atoms: N_7  and  C_8
REMARK    5  A    between atoms: C_8  and  C_9
REMARK    6  A    between atoms: C_12  and  C_13
REMARK    7  A    between atoms: C_13  and  N_14
REMARK    8  A    between atoms: C_15  and  C_17
REMARK                            x       y       z     vdW  Elec       q    Type
REMARK                         _______ _______ _______ _____ _____    ______ ____
ROOT
ATOM      1  C   UNL     1      44.483   5.581  11.659  0.00  0.00    +0.000 A 
ATOM      2  C   UNL     1      45.428   6.369  10.988  0.00  0.00    +0.000 A 
ATOM      3  C   UNL     1      46.642   6.697  11.596  0.00  0.00    +0.000 A 
ATOM      4  C   UNL     1      46.934   6.240  12.887  0.00  0.00    +0.000 A 
ATOM      5  C   UNL     1      45.973   5.483  13.571  0.00  0.00    +0.000 A 
ATOM      6  C   UNL     1      44.762   5.154  12.962  0.00  0.00    +0.000 A 
ENDROOT
BRANCH   1   7
ATOM      7  C   UNL     1      43.197   5.175  10.979  0.00  0.00    +0.000 C 
BRANCH   7   8
ATOM      8  N   UNL     1      43.409   4.439   9.728  0.00  0.00    +0.000 NA
ATOM      9  H   UNL     1      42.498   4.235   9.318  0.00  0.00    +0.000 HD
BRANCH   8  10
ATOM     10  C   UNL     1      44.126   3.179   9.940  0.00  0.00    +0.000 C 
BRANCH  10  15
ATOM     11  C   UNL     1      47.981   2.300   5.825  0.00  0.00    +0.000 C 
ATOM     12  C   UNL     1      46.986   2.541   6.915  0.00  0.00    +0.000 A 
ATOM     13  N   UNL     1      46.506   3.789   7.067  0.00  0.00    +0.000 NA
ATOM     14  C   UNL     1      45.591   3.962   8.042  0.00  0.00    +0.000 A 
ATOM     15  C   UNL     1      45.138   2.950   8.862  0.00  0.00    +0.000 A 
ATOM     16  C   UNL     1      45.713   1.719   8.631  0.00  0.00    +0.000 A 
ATOM     17  N   UNL     1      46.629   1.485   7.670  0.00  0.00    +0.000 NA
ENDBRANCH  10  15
ENDBRANCH   8  10
ENDBRANCH   7   8
ENDBRANCH   1   7
BRANCH   4  18
ATOM     18  C   UNL     1      48.240   6.586  13.550  0.00  0.00    +0.000 C 
BRANCH  18  19
ATOM     19  N   UNL     1      48.086   6.675  14.979  0.00  0.00    +0.000 N 
ATOM     20  C   UNL     1      49.177   6.728  15.805  0.00  0.00    +0.000 C 
ATOM     21  O   UNL     1      50.324   6.740  15.365  0.00  0.00    +0.000 OA
ATOM     22  H   UNL     1      47.173   6.449  15.363  0.00  0.00    +0.000 HD
BRANCH  20  23
ATOM     23  C   UNL     1      48.909   6.836  17.244  0.00  0.00    +0.000 A 
ATOM     24  C   UNL     1      48.589   8.071  17.790  0.00  0.00    +0.000 A 
ATOM     25  S   UNL     1      48.255   8.015  19.460  0.00  0.00    +0.000 S 
ATOM     26  C   UNL     1      48.578   6.345  19.524  0.00  0.00    +0.000 A 
ATOM     27  N   UNL     1      48.497   5.663  20.698  0.00  0.00    +0.000 NA
ATOM     28  C   UNL     1      48.799   4.411  20.608  0.00  0.00    +0.000 A 
ATOM     29  N   UNL     1      49.172   3.778  19.451  0.00  0.00    +0.000 N 
ATOM     30  C   UNL     1      49.240   4.420  18.237  0.00  0.00    +0.000 A 
ATOM     31  O   UNL     1      49.539   3.815  17.213  0.00  0.00    +0.000 OA
ATOM     32  C   UNL     1      48.919   5.834  18.284  0.00  0.00    +0.000 A 
ATOM     33  H   UNL     1      49.389   2.793  19.448  0.00  0.00    +0.000 HD
ENDBRANCH  20  23
ENDBRANCH  18  19
ENDBRANCH   4  18
TORSDOF 7
ENDMDL
MODEL 2
REMARK VINA RESULT:    -7.622      1.022      1.587
REMARK INTER + INTRA:         -11.755
REMARK INTER:                 -10.840
REMARK INTRA:                  -0.915
REMARK UNBOUND:                -1.014
REMARK  Name = 
REMARK  8 active torsions:
REMARK  status: ('A' for Active; 'I' for Inactive)
REMARK    1  A    between atoms: C_1  and  C_2
REMARK    2  A    between atoms: C_5  and  C_6
REMARK    3  A    between atoms: C_6  and  N_7
REMARK    4  A    between atoms: N_7  and  C_8
REMARK    5  A    between atoms: C_8  and  C_9
REMARK    6  A    between atoms: C_12  and  C_13
REMARK    7  A    between atoms: C_13  and  N_14
REMARK    8  A    between atoms: C_15  and  C_17
REMARK                            x       y       z     vdW  Elec       q    Type
REMARK                         _______ _______ _______ _____ _____    ______ ____
ROOT
ATOM      1  C   UNL     1      44.832   5.354  11.996  0.00  0.00    +0.000 A 
ATOM      2  C   UNL     1      45.541   4.798  13.069  0.00  0.00    +0.000 A 
ATOM      3  C   UNL     1      46.802   5.288  13.420  0.00  0.00    +0.000 A 
ATOM      4  C   UNL     1      47.375   6.346  12.704  0.00  0.00    +0.000 A 
ATOM      5  C   UNL     1      46.681   6.877  11.608  0.00  0.00    +0.000 A 
ATOM      6  C   UNL     1      45.421   6.389  11.260  0.00  0.00    +0.000 A 
ENDROOT
BRANCH   1   7
ATOM      7  C   UNL     1      43.444   4.866  11.655  0.00  0.00    +0.000 C 
BRANCH   7   8
ATOM      8  N   UNL     1      43.375   4.165  10.369  0.00  0.00    +0.000 NA
ATOM      9  H   UNL     1      42.402   3.921  10.189  0.00  0.00    +0.000 HD
BRANCH   8  10
ATOM     10  C   UNL     1      44.181   2.943  10.357  0.00  0.00    +0.000 C 
BRANCH  10  15
ATOM     11  C   UNL     1      47.490   2.712   5.714  0.00  0.00    +0.000 C 
ATOM     12  C   UNL     1      46.607   2.762   6.920  0.00  0.00    +0.000 A 
ATOM     13  N   UNL     1      46.393   1.617   7.593  0.00  0.00    +0.000 NA
ATOM     14  C   UNL     1      45.613   1.706   8.689  0.00  0.00    +0.000 A 
ATOM     15  C   UNL     1      45.047   2.881   9.139  0.00  0.00    +0.000 A 
ATOM     16  C   UNL     1      45.317   3.986   8.361  0.00  0.00    +0.000 A 
ATOM     17  N   UNL     1      46.091   3.959   7.258  0.00  0.00    +0.000 NA
ENDBRANCH  10  15
ENDBRANCH   8  10
ENDBRANCH   7   8
ENDBRANCH   1   7
BRANCH   4  18
ATOM     18  C   UNL     1      48.731   6.883  13.075  0.00  0.00    +0.000 C 
BRANCH  18  19
ATOM     19  N   UNL     1      48.947   6.802  14.496  0.00  0.00    +0.000 N 
ATOM     20  C   UNL     1      48.560   7.819  15.328  0.00  0.00    +0.000 C 
ATOM     21  O   UNL     1      47.984   8.819  14.906  0.00  0.00    +0.000 OA
ATOM     22  H   UNL     1      49.604   6.102  14.828  0.00  0.00    +0.000 HD
BRANCH  20  23
ATOM     23  C   UNL     1      48.811   7.630  16.761  0.00  0.00    +0.000 A 
ATOM     24  C   UNL     1      49.120   8.728  17.552  0.00  0.00    +0.000 A 
ATOM     25  S   UNL     1      49.329   8.347  19.201  0.00  0.00    +0.000 S 
ATOM     26  C   UNL     1      49.065   6.692  18.908  0.00  0.00    +0.000 A 
ATOM     27  N   UNL     1      49.128   5.785  19.919  0.00  0.00    +0.000 NA
ATOM     28  C   UNL     1      48.941   4.562  19.550  0.00  0.00    +0.000 A 
ATOM     29  N   UNL     1      48.693   4.163  18.263  0.00  0.00    +0.000 N 
ATOM     30  C   UNL     1      48.592   5.046  17.213  0.00  0.00    +0.000 A 
ATOM     31  O   UNL     1      48.329   4.659  16.079  0.00  0.00    +0.000 OA
ATOM     32  C   UNL     1      48.804   6.435  17.572  0.00  0.00    +0.000 A 
ATOM     33  H   UNL     1      48.548   3.189  18.042  0.00  0.00    +0.000 HD
ENDBRANCH  20  23
ENDBRANCH  18  19
ENDBRANCH   4  18
TORSDOF 7
ENDMDL
MODEL 3
REMARK VINA RESULT:    -7.368      1.962      2.269
REMARK INTER + INTRA:         -11.398
REMARK INTER:                 -10.236
REMARK INTRA:                  -1.162
REMARK UNBOUND:                -1.014
REMARK  Name = 
REMARK  8 active torsions:
REMARK  status: ('A' for Active; 'I' for Inactive)
REMARK    1  A    between atoms: C_1  and  C_2
REMARK    2  A    between atoms: C_5  and  C_6
REMARK    3  A    between atoms: C_6  and  N_7
REMARK    4  A    between atoms: N_7  and  C_8
REMARK    5  A    between atoms: C_8  and  C_9
REMARK    6  A    between atoms: C_12  and  C_13
REMARK    7  A    between atoms: C_13  and  N_14
REMARK    8  A    between atoms: C_15  and  C_17
REMARK                            x       y       z     vdW  Elec       q    Type
REMARK                         _______ _______ _______ _____ _____    ______ ____
ROOT
ATOM      1  C   UNL     1      45.358   4.979  12.131  0.00  0.00    +0.000 A 
ATOM      2  C   UNL     1      45.822   5.864  11.147  0.00  0.00    +0.000 A 
ATOM      3  C   UNL     1      46.894   6.721  11.409  0.00  0.00    +0.000 A 
ATOM      4  C   UNL     1      47.523   6.706  12.660  0.00  0.00    +0.000 A 
ATOM      5  C   UNL     1      47.035   5.848  13.654  0.00  0.00    +0.000 A 
ATOM      6  C   UNL     1      45.966   4.991  13.391  0.00  0.00    +0.000 A 
ENDROOT
BRANCH   1   7
ATOM      7  C   UNL     1      44.240   4.010  11.828  0.00  0.00    +0.000 C 
BRANCH   7   8
ATOM      8  N   UNL     1      43.962   3.873  10.395  0.00  0.00    +0.000 NA
ATOM      9  H   UNL     1      42.979   4.092  10.237  0.00  0.00    +0.000 HD
BRANCH   8  10
ATOM     10  C   UNL     1      44.232   2.520   9.902  0.00  0.00    +0.000 C 
BRANCH  10  15
ATOM     11  C   UNL     1      47.778   2.631   5.433  0.00  0.00    +0.000 C 
ATOM     12  C   UNL     1      46.862   2.616   6.615  0.00  0.00    +0.000 A 
ATOM     13  N   UNL     1      46.135   3.720   6.864  0.00  0.00    +0.000 NA
ATOM     14  C   UNL     1      45.301   3.659   7.922  0.00  0.00    +0.000 A 
ATOM     15  C   UNL     1      45.163   2.551   8.731  0.00  0.00    +0.000 A 
ATOM     16  C   UNL     1      45.971   1.487   8.396  0.00  0.00    +0.000 A 
ATOM     17  N   UNL     1      46.821   1.488   7.349  0.00  0.00    +0.000 NA
ENDBRANCH  10  15
ENDBRANCH   8  10
ENDBRANCH   7   8
ENDBRANCH   1   7
BRANCH   4  18
ATOM     18  C   UNL     1      48.679   7.624  12.951  0.00  0.00    +0.000 C 
BRANCH  18  19
ATOM     19  N   UNL     1      49.596   7.020  13.883  0.00  0.00    +0.000 N 
ATOM     20  C   UNL     1      50.335   7.787  14.744  0.00  0.00    +0.000 C 
ATOM     21  O   UNL     1      50.221   9.010  14.785  0.00  0.00    +0.000 OA
ATOM     22  H   UNL     1      49.859   6.054  13.715  0.00  0.00    +0.000 HD
BRANCH  20  23
ATOM     23  C   UNL     1      51.226   7.072  15.664  0.00  0.00    +0.000 A 
ATOM     24  C   UNL     1      52.596   7.282  15.591  0.00  0.00    +0.000 A 
ATOM     25  S   UNL     1      53.485   6.419  16.762  0.00  0.00    +0.000 S 
ATOM     26  C   UNL     1      52.074   5.692  17.376  0.00  0.00    +0.000 A 
ATOM     27  N   UNL     1      52.137   4.802  18.401  0.00  0.00    +0.000 NA
ATOM     28  C   UNL     1      50.996   4.303  18.745  0.00  0.00    +0.000 A 
ATOM     29  N   UNL     1      49.798   4.617  18.159  0.00  0.00    +0.000 N 
ATOM     30  C   UNL     1      49.682   5.532  17.139  0.00  0.00    +0.000 A 
ATOM     31  O   UNL     1      48.588   5.820  16.663  0.00  0.00    +0.000 OA
ATOM     32  C   UNL     1      50.938   6.116  16.707  0.00  0.00    +0.000 A 
ATOM     33  H   UNL     1      48.939   4.196  18.481  0.00  0.00    +0.000 HD
ENDBRANCH  20  23
ENDBRANCH  18  19
ENDBRANCH   4  18
TORSDOF 7
ENDMDL
MODEL 4
REMARK VINA RESULT:    -7.211      2.333      3.222
REMARK INTER + INTRA:         -11.177
REMARK INTER:                 -10.587
REMARK INTRA:                  -0.590
REMARK UNBOUND:                -1.014
REMARK  Name = 
REMARK  8 active torsions:
REMARK  status: ('A' for Active; 'I' for Inactive)
REMARK    1  A    between atoms: C_1  and  C_2
REMARK    2  A    between atoms: C_5  and  C_6
REMARK    3  A    between atoms: C_6  and  N_7
REMARK    4  A    between atoms: N_7  and  C_8
REMARK    5  A    between atoms: C_8  and  C_9
REMARK    6  A    between atoms: C_12  and  C_13
REMARK    7  A    between atoms: C_13  and  N_14
REMARK    8  A    between atoms: C_15  and  C_17
REMARK                            x       y       z     vdW  Elec       q    Type
REMARK                         _______ _______ _______ _____ _____    ______ ____
ROOT
ATOM      1  C   UNL     1      46.763   6.272  12.183  0.00  0.00    +0.000 A 
ATOM      2  C   UNL     1      46.964   5.437  13.290  0.00  0.00    +0.000 A 
ATOM      3  C   UNL     1      47.678   5.889  14.403  0.00  0.00    +0.000 A 
ATOM      4  C   UNL     1      48.201   7.188  14.429  0.00  0.00    +0.000 A 
ATOM      5  C   UNL     1      48.031   8.009  13.307  0.00  0.00    +0.000 A 
ATOM      6  C   UNL     1      47.316   7.558  12.197  0.00  0.00    +0.000 A 
ENDROOT
BRANCH   1   7
ATOM      7  C   UNL     1      45.939   5.805  11.007  0.00  0.00    +0.000 C 
BRANCH   7   8
ATOM      8  N   UNL     1      44.702   5.122  11.398  0.00  0.00    +0.000 NA
ATOM      9  H   UNL     1      44.947   4.335  11.998  0.00  0.00    +0.000 HD
BRANCH   8  10
ATOM     10  C   UNL     1      43.953   4.623  10.243  0.00  0.00    +0.000 C 
BRANCH  10  15
ATOM     11  C   UNL     1      47.220   1.267   6.983  0.00  0.00    +0.000 C 
ATOM     12  C   UNL     1      46.346   2.137   7.829  0.00  0.00    +0.000 A 
ATOM     13  N   UNL     1      45.669   1.562   8.838  0.00  0.00    +0.000 NA
ATOM     14  C   UNL     1      44.912   2.382   9.595  0.00  0.00    +0.000 A 
ATOM     15  C   UNL     1      44.808   3.742   9.387  0.00  0.00    +0.000 A 
ATOM     16  C   UNL     1      45.528   4.219   8.314  0.00  0.00    +0.000 A 
ATOM     17  N   UNL     1      46.303   3.449   7.525  0.00  0.00    +0.000 NA
ENDBRANCH  10  15
ENDBRANCH   8  10
ENDBRANCH   7   8
ENDBRANCH   1   7
BRANCH   4  18
ATOM     18  C   UNL     1      48.970   7.685  15.623  0.00  0.00    +0.000 C 
BRANCH  18  19
ATOM     19  N   UNL     1      49.999   6.751  16.000  0.00  0.00    +0.000 N 
ATOM     20  C   UNL     1      49.977   6.131  17.221  0.00  0.00    +0.000 C 
ATOM     21  O   UNL     1      49.066   6.314  18.026  0.00  0.00    +0.000 OA
ATOM     22  H   UNL     1      50.854   6.756  15.453  0.00  0.00    +0.000 HD
BRANCH  20  23
ATOM     23  C   UNL     1      51.063   5.185  17.500  0.00  0.00    +0.000 A 
ATOM     24  C   UNL     1      52.312   5.666  17.865  0.00  0.00    +0.000 A 
ATOM     25  S   UNL     1      53.446   4.439  18.205  0.00  0.00    +0.000 S 
ATOM     26  C   UNL     1      52.321   3.220  17.826  0.00  0.00    +0.000 A 
ATOM     27  N   UNL     1      52.668   1.906  17.890  0.00  0.00    +0.000 NA
ATOM     28  C   UNL     1      51.728   1.090  17.545  0.00  0.00    +0.000 A 
ATOM     29  N   UNL     1      50.473   1.467  17.145  0.00  0.00    +0.000 N 
ATOM     30  C   UNL     1      50.069   2.781  17.092  0.00  0.00    +0.000 A 
ATOM     31  O   UNL     1      48.925   3.083  16.768  0.00  0.00    +0.000 OA
ATOM     32  C   UNL     1      51.092   3.742  17.461  0.00  0.00    +0.000 A 
ATOM     33  H   UNL     1      49.781   0.778  16.895  0.00  0.00    +0.000 HD
ENDBRANCH  20  23
ENDBRANCH  18  19
ENDBRANCH   4  18
TORSDOF 7
ENDMDL
MODEL 5
REMARK VINA RESULT:    -7.211      1.533      2.594
REMARK INTER + INTRA:         -11.176
REMARK INTER:                 -10.442
REMARK INTRA:                  -0.734
REMARK UNBOUND:                -1.014
REMARK  Name = 
REMARK  8 active torsions:
REMARK  status: ('A' for Active; 'I' for Inactive)
REMARK    1  A    between atoms: C_1  and  C_2
REMARK    2  A    between atoms: C_5  and  C_6
REMARK    3  A    between atoms: C_6  and  N_7
REMARK    4  A    between atoms: N_7  and  C_8
REMARK    5  A    between atoms: C_8  and  C_9
REMARK    6  A    between atoms: C_12  and  C_13
REMARK    7  A    between atoms: C_13  and  N_14
REMARK    8  A    between atoms: C_15  and  C_17
REMARK                            x       y       z     vdW  Elec       q    Type
REMARK                         _______ _______ _______ _____ _____    ______ ____
ROOT
ATOM      1  C   UNL     1      44.580   5.158  12.140  0.00  0.00    +0.000 A 
ATOM      2  C   UNL     1      45.022   4.463  13.275  0.00  0.00    +0.000 A 
ATOM      3  C   UNL     1      46.213   4.823  13.912  0.00  0.00    +0.000 A 
ATOM      4  C   UNL     1      46.982   5.887  13.425  0.00  0.00    +0.000 A 
ATOM      5  C   UNL     1      46.559   6.558  12.270  0.00  0.00    +0.000 A 
ATOM      6  C   UNL     1      45.368   6.200  11.636  0.00  0.00    +0.000 A 
ENDROOT
BRANCH   1   7
ATOM      7  C   UNL     1      43.263   4.810  11.489  0.00  0.00    +0.000 C 
BRANCH   7   8
ATOM      8  N   UNL     1      43.382   3.774  10.457  0.00  0.00    +0.000 NA
ATOM      9  H   UNL     1      42.614   3.114  10.576  0.00  0.00    +0.000 HD
BRANCH   8  10
ATOM     10  C   UNL     1      44.650   3.046  10.544  0.00  0.00    +0.000 C 
BRANCH  10  15
ATOM     11  C   UNL     1      47.205   2.763   5.449  0.00  0.00    +0.000 C 
ATOM     12  C   UNL     1      46.518   2.827   6.776  0.00  0.00    +0.000 A 
ATOM     13  N   UNL     1      46.387   1.685   7.475  0.00  0.00    +0.000 NA
ATOM     14  C   UNL     1      45.787   1.787   8.678  0.00  0.00    +0.000 A 
ATOM     15  C   UNL     1      45.319   2.971   9.207  0.00  0.00    +0.000 A 
ATOM     16  C   UNL     1      45.487   4.072   8.396  0.00  0.00    +0.000 A 
ATOM     17  N   UNL     1      46.082   4.032   7.187  0.00  0.00    +0.000 NA
ENDBRANCH  10  15
ENDBRANCH   8  10
ENDBRANCH   7   8
ENDBRANCH   1   7
BRANCH   4  18
ATOM     18  C   UNL     1      48.265   6.284  14.105  0.00  0.00    +0.000 C 
BRANCH  18  19
ATOM     19  N   UNL     1      48.032   6.645  15.479  0.00  0.00    +0.000 N 
ATOM     20  C   UNL     1      48.554   5.901  16.503  0.00  0.00    +0.000 C 
ATOM     21  O   UNL     1      49.269   4.924  16.296  0.00  0.00    +0.000 OA
ATOM     22  H   UNL     1      47.280   7.303  15.665  0.00  0.00    +0.000 HD
BRANCH  20  23
ATOM     23  C   UNL     1      48.271   6.366  17.866  0.00  0.00    +0.000 A 
ATOM     24  C   UNL     1      47.667   5.504  18.771  0.00  0.00    +0.000 A 
ATOM     25  S   UNL     1      47.456   6.178  20.322  0.00  0.00    +0.000 S 
ATOM     26  C   UNL     1      48.119   7.665  19.826  0.00  0.00    +0.000 A 
ATOM     27  N   UNL     1      48.212   8.710  20.690  0.00  0.00    +0.000 NA
ATOM     28  C   UNL     1      48.704   9.787  20.173  0.00  0.00    +0.000 A 
ATOM     29  N   UNL     1      49.114   9.912  18.871  0.00  0.00    +0.000 N 
ATOM     30  C   UNL     1      49.065   8.873  17.970  0.00  0.00    +0.000 A 
ATOM     31  O   UNL     1      49.479   9.007  16.823  0.00  0.00    +0.000 OA
ATOM     32  C   UNL     1      48.511   7.641  18.498  0.00  0.00    +0.000 A 
ATOM     33  H   UNL     1      49.497  10.780  18.531  0.00  0.00    +0.000 HD
ENDBRANCH  20  23
ENDBRANCH  18  19
ENDBRANCH   4  18
TORSDOF 7
ENDMDL
MODEL 6
REMARK VINA RESULT:    -6.839      2.892      3.693
REMARK INTER + INTRA:         -10.652
REMARK INTER:                  -9.366
REMARK INTRA:                  -1.286
REMARK UNBOUND:                -1.014
REMARK  Name = 
REMARK  8 active torsions:
REMARK  status: ('A' for Active; 'I' for Inactive)
REMARK    1  A    between atoms: C_1  and  C_2
REMARK    2  A    between atoms: C_5  and  C_6
REMARK    3  A    between atoms: C_6  and  N_7
REMARK    4  A    between atoms: N_7  and  C_8
REMARK    5  A    between atoms: C_8  and  C_9
REMARK    6  A    between atoms: C_12  and  C_13
REMARK    7  A    between atoms: C_13  and  N_14
REMARK    8  A    between atoms: C_15  and  C_17
REMARK                            x       y       z     vdW  Elec       q    Type
REMARK                         _______ _______ _______ _____ _____    ______ ____
ROOT
ATOM      1  C   UNL     1      45.091   5.814  12.708  0.00  0.00    +0.000 A 
ATOM      2  C   UNL     1      46.415   5.413  12.935  0.00  0.00    +0.000 A 
ATOM      3  C   UNL     1      47.470   6.314  12.767  0.00  0.00    +0.000 A 
ATOM      4  C   UNL     1      47.218   7.633  12.372  0.00  0.00    +0.000 A 
ATOM      5  C   UNL     1      45.898   8.023  12.110  0.00  0.00    +0.000 A 
ATOM      6  C   UNL     1      44.845   7.124  12.280  0.00  0.00    +0.000 A 
ENDROOT
BRANCH   1   7
ATOM      7  C   UNL     1      43.946   4.858  12.948  0.00  0.00    +0.000 C 
BRANCH   7   8
ATOM      8  N   UNL     1      44.213   3.499  12.467  0.00  0.00    +0.000 NA
ATOM      9  H   UNL     1      45.205   3.428  12.242  0.00  0.00    +0.000 HD
BRANCH   8  10
ATOM     10  C   UNL     1      43.431   3.168  11.273  0.00  0.00    +0.000 C 
BRANCH  10  15
ATOM     11  C   UNL     1      46.700   3.265   6.597  0.00  0.00    +0.000 C 
ATOM     12  C   UNL     1      45.828   3.230   7.811  0.00  0.00    +0.000 A 
ATOM     13  N   UNL     1      45.619   2.041   8.405  0.00  0.00    +0.000 NA
ATOM     14  C   UNL     1      44.849   2.053   9.511  0.00  0.00    +0.000 A 
ATOM     15  C   UNL     1      44.287   3.193  10.046  0.00  0.00    +0.000 A 
ATOM     16  C   UNL     1      44.550   4.350   9.345  0.00  0.00    +0.000 A 
ATOM     17  N   UNL     1      45.314   4.400   8.236  0.00  0.00    +0.000 NA
ENDBRANCH  10  15
ENDBRANCH   8  10
ENDBRANCH   7   8
ENDBRANCH   1   7
BRANCH   4  18
ATOM     18  C   UNL     1      48.347   8.612  12.191  0.00  0.00    +0.000 C 
BRANCH  18  19
ATOM     19  N   UNL     1      49.538   8.156  12.859  0.00  0.00    +0.000 N 
ATOM     20  C   UNL     1      50.448   9.046  13.366  0.00  0.00    +0.000 C 
ATOM     21  O   UNL     1      50.270  10.260  13.306  0.00  0.00    +0.000 OA
ATOM     22  H   UNL     1      49.803   7.184  12.726  0.00  0.00    +0.000 HD
BRANCH  20  23
ATOM     23  C   UNL     1      51.618   8.477  14.044  0.00  0.00    +0.000 A 
ATOM     24  C   UNL     1      52.892   8.810  13.604  0.00  0.00    +0.000 A 
ATOM     25  S   UNL     1      54.140   8.110  14.530  0.00  0.00    +0.000 S 
ATOM     26  C   UNL     1      53.023   7.295  15.521  0.00  0.00    +0.000 A 
ATOM     27  N   UNL     1      53.444   6.481  16.525  0.00  0.00    +0.000 NA
ATOM     28  C   UNL     1      52.492   5.901  17.176  0.00  0.00    +0.000 A 
ATOM     29  N   UNL     1      51.156   6.063  16.916  0.00  0.00    +0.000 N 
ATOM     30  C   UNL     1      50.683   6.896  15.930  0.00  0.00    +0.000 A 
ATOM     31  O   UNL     1      49.479   7.049  15.749  0.00  0.00    +0.000 OA
ATOM     32  C   UNL     1      51.714   7.567  15.161  0.00  0.00    +0.000 A 
ATOM     33  H   UNL     1      50.461   5.584  17.468  0.00  0.00    +0.000 HD
ENDBRANCH  20  23
ENDBRANCH  18  19
ENDBRANCH   4  18
TORSDOF 7
ENDMDL
MODEL 7
REMARK VINA RESULT:    -6.834      5.202      8.361
REMARK INTER + INTRA:         -10.645
REMARK INTER:                  -9.695
REMARK INTRA:                  -0.949
REMARK UNBOUND:                -1.014
REMARK  Name = 
REMARK  8 active torsions:
REMARK  status: ('A' for Active; 'I' for Inactive)
REMARK    1  A    between atoms: C_1  and  C_2
REMARK    2  A    between atoms: C_5  and  C_6
REMARK    3  A    between atoms: C_6  and  N_7
REMARK    4  A    between atoms: N_7  and  C_8
REMARK    5  A    between atoms: C_8  and  C_9
REMARK    6  A    between atoms: C_12  and  C_13
REMARK    7  A    between atoms: C_13  and  N_14
REMARK    8  A    between atoms: C_15  and  C_17
REMARK                            x       y       z     vdW  Elec       q    Type
REMARK                         _______ _______ _______ _____ _____    ______ ____
ROOT
ATOM      1  C   UNL     1      50.453   9.036  11.363  0.00  0.00    +0.000 A 
ATOM      2  C   UNL     1      49.979   7.731  11.561  0.00  0.00    +0.000 A 
ATOM      3  C   UNL     1      48.629   7.498  11.834  0.00  0.00    +0.000 A 
ATOM      4  C   UNL     1      47.727   8.567  11.912  0.00  0.00    +0.000 A 
ATOM      5  C   UNL     1      48.208   9.873  11.750  0.00  0.00    +0.000 A 
ATOM      6  C   UNL     1      49.556  10.105  11.475  0.00  0.00    +0.000 A 
ENDROOT
BRANCH   1   7
ATOM      7  C   UNL     1      51.899   9.283  11.006  0.00  0.00    +0.000 C 
BRANCH   7   8
ATOM      8  N   UNL     1      52.571   8.103  10.453  0.00  0.00    +0.000 NA
ATOM      9  H   UNL     1      53.356   7.867  11.059  0.00  0.00    +0.000 HD
BRANCH   8  10
ATOM     10  C   UNL     1      53.072   8.333   9.096  0.00  0.00    +0.000 C 
BRANCH  10  15
ATOM     11  C   UNL     1      53.988   3.401   6.377  0.00  0.00    +0.000 C 
ATOM     12  C   UNL     1      53.743   4.682   7.107  0.00  0.00    +0.000 A 
ATOM     13  N   UNL     1      54.646   5.066   8.028  0.00  0.00    +0.000 NA
ATOM     14  C   UNL     1      54.405   6.240   8.647  0.00  0.00    +0.000 A 
ATOM     15  C   UNL     1      53.312   7.039   8.384  0.00  0.00    +0.000 A 
ATOM     16  C   UNL     1      52.444   6.538   7.439  0.00  0.00    +0.000 A 
ATOM     17  N   UNL     1      52.633   5.374   6.786  0.00  0.00    +0.000 NA
ENDBRANCH  10  15
ENDBRANCH   8  10
ENDBRANCH   7   8
ENDBRANCH   1   7
BRANCH   4  18
ATOM     18  C   UNL     1      46.271   8.326  12.205  0.00  0.00    +0.000 C 
BRANCH  18  19
ATOM     19  N   UNL     1      45.912   6.955  11.950  0.00  0.00    +0.000 N 
ATOM     20  C   UNL     1      44.647   6.619  11.548  0.00  0.00    +0.000 C 
ATOM     21  O   UNL     1      43.781   7.469  11.352  0.00  0.00    +0.000 OA
ATOM     22  H   UNL     1      46.535   6.237  12.310  0.00  0.00    +0.000 HD
BRANCH  20  23
ATOM     23  C   UNL     1      44.391   5.196  11.298  0.00  0.00    +0.000 A 
ATOM     24  C   UNL     1      43.634   4.468  12.205  0.00  0.00    +0.000 A 
ATOM     25  S   UNL     1      43.384   2.847  11.743  0.00  0.00    +0.000 S 
ATOM     26  C   UNL     1      44.323   3.046  10.338  0.00  0.00    +0.000 A 
ATOM     27  N   UNL     1      44.535   2.006   9.487  0.00  0.00    +0.000 NA
ATOM     28  C   UNL     1      45.292   2.289   8.479  0.00  0.00    +0.000 A 
ATOM     29  N   UNL     1      45.854   3.516   8.243  0.00  0.00    +0.000 N 
ATOM     30  C   UNL     1      45.644   4.603   9.060  0.00  0.00    +0.000 A 
ATOM     31  O   UNL     1      46.129   5.699   8.798  0.00  0.00    +0.000 OA
ATOM     32  C   UNL     1      44.807   4.337  10.214  0.00  0.00    +0.000 A 
ATOM     33  H   UNL     1      46.431   3.673   7.432  0.00  0.00    +0.000 HD
ENDBRANCH  20  23
ENDBRANCH  18  19
ENDBRANCH   4  18
TORSDOF 7
ENDMDL
MODEL 8
REMARK VINA RESULT:    -6.496      3.295      5.249
REMARK INTER + INTRA:         -10.169
REMARK INTER:                  -9.112
REMARK INTRA:                  -1.056
REMARK UNBOUND:                -1.014
REMARK  Name = 
REMARK  8 active torsions:
REMARK  status: ('A' for Active; 'I' for Inactive)
REMARK    1  A    between atoms: C_1  and  C_2
REMARK    2  A    between atoms: C_5  and  C_6
REMARK    3  A    between atoms: C_6  and  N_7
REMARK    4  A    between atoms: N_7  and  C_8
REMARK    5  A    between atoms: C_8  and  C_9
REMARK    6  A    between atoms: C_12  and  C_13
REMARK    7  A    between atoms: C_13  and  N_14
REMARK    8  A    between atoms: C_15  and  C_17
REMARK                            x       y       z     vdW  Elec       q    Type
REMARK                         _______ _______ _______ _____ _____    ______ ____
ROOT
ATOM      1  C   UNL     1      44.502   3.655  12.444  0.00  0.00    +0.000 A 
ATOM      2  C   UNL     1      45.730   3.004  12.624  0.00  0.00    +0.000 A 
ATOM      3  C   UNL     1      46.770   3.625  13.320  0.00  0.00    +0.000 A 
ATOM      4  C   UNL     1      46.599   4.910  13.851  0.00  0.00    +0.000 A 
ATOM      5  C   UNL     1      45.384   5.575  13.638  0.00  0.00    +0.000 A 
ATOM      6  C   UNL     1      44.345   4.953  12.946  0.00  0.00    +0.000 A 
ENDROOT
BRANCH   1   7
ATOM      7  C   UNL     1      43.357   2.960  11.746  0.00  0.00    +0.000 C 
BRANCH   7   8
ATOM      8  N   UNL     1      43.625   2.678  10.332  0.00  0.00    +0.000 NA
ATOM      9  H   UNL     1      44.260   1.882  10.279  0.00  0.00    +0.000 HD
BRANCH   8  10
ATOM     10  C   UNL     1      44.235   3.817   9.643  0.00  0.00    +0.000 C 
BRANCH  10  15
ATOM     11  C   UNL     1      48.057   2.075   5.781  0.00  0.00    +0.000 C 
ATOM     12  C   UNL     1      47.041   2.519   6.784  0.00  0.00    +0.000 A 
ATOM     13  N   UNL     1      46.650   1.636   7.720  0.00  0.00    +0.000 NA
ATOM     14  C   UNL     1      45.752   2.080   8.623  0.00  0.00    +0.000 A 
ATOM     15  C   UNL     1      45.236   3.360   8.630  0.00  0.00    +0.000 A 
ATOM     16  C   UNL     1      45.691   4.171   7.614  0.00  0.00    +0.000 A 
ATOM     17  N   UNL     1      46.588   3.784   6.686  0.00  0.00    +0.000 NA
ENDBRANCH  10  15
ENDBRANCH   8  10
ENDBRANCH   7   8
ENDBRANCH   1   7
BRANCH   4  18
ATOM     18  C   UNL     1      47.713   5.587  14.603  0.00  0.00    +0.000 C 
BRANCH  18  19
ATOM     19  N   UNL     1      48.264   6.676  13.839  0.00  0.00    +0.000 N 
ATOM     20  C   UNL     1      48.768   7.788  14.459  0.00  0.00    +0.000 C 
ATOM     21  O   UNL     1      48.806   7.889  15.683  0.00  0.00    +0.000 OA
ATOM     22  H   UNL     1      48.045   6.706  12.848  0.00  0.00    +0.000 HD
BRANCH  20  23
ATOM     23  C   UNL     1      49.322   8.833  13.589  0.00  0.00    +0.000 A 
ATOM     24  C   UNL     1      50.677   9.127  13.652  0.00  0.00    +0.000 A 
ATOM     25  S   UNL     1      51.170  10.323  12.542  0.00  0.00    +0.000 S 
ATOM     26  C   UNL     1      49.579  10.528  11.974  0.00  0.00    +0.000 A 
ATOM     27  N   UNL     1      49.295  11.443  11.008  0.00  0.00    +0.000 NA
ATOM     28  C   UNL     1      48.044  11.516  10.695  0.00  0.00    +0.000 A 
ATOM     29  N   UNL     1      47.052  10.755  11.257  0.00  0.00    +0.000 N 
ATOM     30  C   UNL     1      47.296   9.799  12.215  0.00  0.00    +0.000 A 
ATOM     31  O   UNL     1      46.390   9.107  12.668  0.00  0.00    +0.000 OA
ATOM     32  C   UNL     1      48.686   9.682  12.610  0.00  0.00    +0.000 A 
ATOM     33  H   UNL     1      46.093  10.857  10.961  0.00  0.00    +0.000 HD
ENDBRANCH  20  23
ENDBRANCH  18  19
ENDBRANCH   4  18
TORSDOF 7
ENDMDL
MODEL 9
REMARK VINA RESULT:    -6.381      3.716      5.161
REMARK INTER + INTRA:         -10.006
REMARK INTER:                  -9.487
REMARK INTRA:                  -0.520
REMARK UNBOUND:                -1.014
REMARK  Name = 
REMARK  8 active torsions:
REMARK  status: ('A' for Active; 'I' for Inactive)
REMARK    1  A    between atoms: C_1  and  C_2
REMARK    2  A    between atoms: C_5  and  C_6
REMARK    3  A    between atoms: C_6  and  N_7
REMARK    4  A    between atoms: N_7  and  C_8
REMARK    5  A    between atoms: C_8  and  C_9
REMARK    6  A    between atoms: C_12  and  C_13
REMARK    7  A    between atoms: C_13  and  N_14
REMARK    8  A    between atoms: C_15  and  C_17
REMARK                            x       y       z     vdW  Elec       q    Type
REMARK                         _______ _______ _______ _____ _____    ______ ____
ROOT
ATOM      1  C   UNL     1      44.584   4.914  11.597  0.00  0.00    +0.000 A 
ATOM      2  C   UNL     1      44.960   4.251  12.773  0.00  0.00    +0.000 A 
ATOM      3  C   UNL     1      46.059   4.688  13.517  0.00  0.00    +0.000 A 
ATOM      4  C   UNL     1      46.801   5.799  13.098  0.00  0.00    +0.000 A 
ATOM      5  C   UNL     1      46.447   6.439  11.903  0.00  0.00    +0.000 A 
ATOM      6  C   UNL     1      45.347   6.003  11.162  0.00  0.00    +0.000 A 
ENDROOT
BRANCH   1   7
ATOM      7  C   UNL     1      43.359   4.480  10.827  0.00  0.00    +0.000 C 
BRANCH   7   8
ATOM      8  N   UNL     1      43.572   3.264  10.035  0.00  0.00    +0.000 NA
ATOM      9  H   UNL     1      42.923   2.550  10.364  0.00  0.00    +0.000 HD
BRANCH   8  10
ATOM     10  C   UNL     1      44.940   2.754  10.158  0.00  0.00    +0.000 C 
BRANCH  10  15
ATOM     11  C   UNL     1      47.519   2.572   5.070  0.00  0.00    +0.000 C 
ATOM     12  C   UNL     1      46.860   2.630   6.412  0.00  0.00    +0.000 A 
ATOM     13  N   UNL     1      46.399   3.820   6.838  0.00  0.00    +0.000 NA
ATOM     14  C   UNL     1      45.788   3.828   8.040  0.00  0.00    +0.000 A 
ATOM     15  C   UNL     1      45.617   2.707   8.824  0.00  0.00    +0.000 A 
ATOM     16  C   UNL     1      46.146   1.548   8.299  0.00  0.00    +0.000 A 
ATOM     17  N   UNL     1      46.764   1.478   7.103  0.00  0.00    +0.000 NA
ENDBRANCH  10  15
ENDBRANCH   8  10
ENDBRANCH   7   8
ENDBRANCH   1   7
BRANCH   4  18
ATOM     18  C   UNL     1      47.985   6.278  13.893  0.00  0.00    +0.000 C 
BRANCH  18  19
ATOM     19  N   UNL     1      48.777   7.207  13.129  0.00  0.00    +0.000 N 
ATOM     20  C   UNL     1      48.644   8.559  13.303  0.00  0.00    +0.000 C 
ATOM     21  O   UNL     1      47.876   9.033  14.137  0.00  0.00    +0.000 OA
ATOM     22  H   UNL     1      49.244   6.849  12.301  0.00  0.00    +0.000 HD
BRANCH  20  23
ATOM     23  C   UNL     1      49.511   9.417  12.488  0.00  0.00    +0.000 A 
ATOM     24  C   UNL     1      48.946  10.239  11.522  0.00  0.00    +0.000 A 
ATOM     25  S   UNL     1      50.081  11.210  10.701  0.00  0.00    +0.000 S 
ATOM     26  C   UNL     1      51.375  10.529  11.572  0.00  0.00    +0.000 A 
ATOM     27  N   UNL     1      52.657  10.915  11.333  0.00  0.00    +0.000 NA
ATOM     28  C   UNL     1      53.541  10.294  12.042  0.00  0.00    +0.000 A 
ATOM     29  N   UNL     1      53.259   9.327  12.971  0.00  0.00    +0.000 N 
ATOM     30  C   UNL     1      51.977   8.926  13.266  0.00  0.00    +0.000 A 
ATOM     31  O   UNL     1      51.757   8.086  14.132  0.00  0.00    +0.000 OA
ATOM     32  C   UNL     1      50.945   9.586  12.490  0.00  0.00    +0.000 A 
ATOM     33  H   UNL     1      53.997   8.886  13.497  0.00  0.00    +0.000 HD
ENDBRANCH  20  23
ENDBRANCH  18  19
ENDBRANCH   4  18
TORSDOF 7
ENDMDL
