MODEL 1
REMARK VINA RESULT:    -7.418      0.000      0.000
REMARK INTER + INTRA:         -11.550
REMARK INTER:                 -10.453
REMARK INTRA:                  -1.097
REMARK UNBOUND:                -1.097
REMARK  Name = 
REMARK  7 active torsions:
REMARK  status: ('A' for Active; 'I' for Inactive)
REMARK    1  A    between atoms: C_2  and  C_20
REMARK    2  A    between atoms: N_3  and  C_4
REMARK    3  A    between atoms: C_4  and  C_5
REMARK    4  A    between atoms: C_8  and  C_9
REMARK    5  A    between atoms: C_9  and  N_10
REMARK    6  A    between atoms: N_10  and  C_11
REMARK    7  A    between atoms: C_11  and  C_12
REMARK                            x       y       z     vdW  Elec       q    Type
REMARK                         _______ _______ _______ _____ _____    ______ ____
ROOT
ATOM      1  C   UNL     1      46.270   5.988  12.376  0.00  0.00    +0.000 A 
ATOM      2  C   UNL     1      45.999   4.787  13.037  0.00  0.00    +0.000 A 
ATOM      3  C   UNL     1      45.292   3.776  12.383  0.00  0.00    +0.000 A 
ATOM      4  C   UNL     1      44.871   3.988  11.071  0.00  0.00    +0.000 A 
ATOM      5  N   UNL     1      45.089   5.168  10.435  0.00  0.00    +0.000 NA
ATOM      6  C   UNL     1      45.768   6.133  11.092  0.00  0.00    +0.000 A 
ENDROOT
BRANCH   1   7
ATOM      7  C   UNL     1      47.048   7.099  13.015  0.00  0.00    +0.000 C 
BRANCH   7  10
ATOM      8  O   UNL     1      49.659   6.944  14.040  0.00  0.00    +0.000 OA
ATOM      9  C   UNL     1      48.715   6.768  14.803  0.00  0.00    +0.000 C 
ATOM     10  N   UNL     1      47.413   6.776  14.369  0.00  0.00    +0.000 N 
ATOM     11  H   UNL     1      46.665   6.804  15.053  0.00  0.00    +0.000 HD
BRANCH   9  12
ATOM     12  C   UNL     1      48.919   6.481  16.228  0.00  0.00    +0.000 A 
ATOM     13  C   UNL     1      49.420   7.468  17.066  0.00  0.00    +0.000 A 
ATOM     14  S   UNL     1      49.621   6.958  18.680  0.00  0.00    +0.000 S 
ATOM     15  C   UNL     1      48.999   5.413  18.328  0.00  0.00    +0.000 A 
ATOM     16  N   UNL     1      48.871   4.473  19.302  0.00  0.00    +0.000 NA
ATOM     17  C   UNL     1      48.345   3.363  18.905  0.00  0.00    +0.000 A 
ATOM     18  N   UNL     1      47.946   3.103  17.621  0.00  0.00    +0.000 N 
ATOM     19  C   UNL     1      48.123   3.994  16.591  0.00  0.00    +0.000 A 
ATOM     20  O   UNL     1      47.874   3.679  15.431  0.00  0.00    +0.000 OA
ATOM     21  C   UNL     1      48.668   5.278  16.992  0.00  0.00    +0.000 A 
ATOM     22  H   UNL     1      47.566   2.202  17.370  0.00  0.00    +0.000 HD
ENDBRANCH   9  12
ENDBRANCH   7  10
ENDBRANCH   1   7
BRANCH   4  23
ATOM     23  C   UNL     1      44.120   2.897  10.313  0.00  0.00    +0.000 C 
BRANCH  23  24
ATOM     24  N   UNL     1      44.158   3.116   8.867  0.00  0.00    +0.000 NA
ATOM     25  H   UNL     1      44.491   4.057   8.674  0.00  0.00    +0.000 HD
BRANCH  24  26
ATOM     26  C   UNL     1      44.886   2.107   8.112  0.00  0.00    +0.000 C 
BRANCH  26  27
ATOM     27  C   UNL     1      46.399   2.430   8.154  0.00  0.00    +0.000 C 
ATOM     28  C   UNL     1      46.764   3.694   7.351  0.00  0.00    +0.000 C 
ATOM     29  C   UNL     1      46.675   3.442   5.848  0.00  0.00    +0.000 C 
ATOM     30  C   UNL     1      47.502   2.223   5.448  0.00  0.00    +0.000 C 
ATOM     31  N   UNL     1      47.133   1.027   6.211  0.00  0.00    +0.000 NA
ATOM     32  C   UNL     1      47.255   1.254   7.653  0.00  0.00    +0.000 C 
ATOM     33  H   UNL     1      47.754   0.265   5.942  0.00  0.00    +0.000 HD
ENDBRANCH  26  27
ENDBRANCH  24  26
ENDBRANCH  23  24
ENDBRANCH   4  23
TORSDOF 7
ENDMDL
MODEL 2
REMARK VINA RESULT:    -7.288      3.061      8.721
REMARK INTER + INTRA:         -11.368
REMARK INTER:                  -9.721
REMARK INTRA:                  -1.646
REMARK UNBOUND:                -1.097
REMARK  Name = 
REMARK  7 active torsions:
REMARK  status: ('A' for Active; 'I' for Inactive)
REMARK    1  A    between atoms: C_2  and  C_20
REMARK    2  A    between atoms: N_3  and  C_4
REMARK    3  A    between atoms: C_4  and  C_5
REMARK    4  A    between atoms: C_8  and  C_9
REMARK    5  A    between atoms: C_9  and  N_10
REMARK    6  A    between atoms: N_10  and  C_11
REMARK    7  A    between atoms: C_11  and  C_12
REMARK                            x       y       z     vdW  Elec       q    Type
REMARK                         _______ _______ _______ _____ _____    ______ ____
ROOT
ATOM      1  C   UNL     1      48.324   7.683  13.093  0.00  0.00    +0.000 A 
ATOM      2  C   UNL     1      49.329   8.628  13.321  0.00  0.00    +0.000 A 
ATOM      3  C   UNL     1      50.232   8.445  14.370  0.00  0.00    +0.000 A 
ATOM      4  C   UNL     1      50.113   7.312  15.173  0.00  0.00    +0.000 A 
ATOM      5  N   UNL     1      49.113   6.411  14.990  0.00  0.00    +0.000 NA
ATOM      6  C   UNL     1      48.247   6.615  13.974  0.00  0.00    +0.000 A 
ENDROOT
BRANCH   1   7
ATOM      7  C   UNL     1      47.344   7.810  11.968  0.00  0.00    +0.000 C 
BRANCH   7  10
ATOM      8  O   UNL     1      44.559   7.428  11.959  0.00  0.00    +0.000 OA
ATOM      9  C   UNL     1      45.286   6.476  11.692  0.00  0.00    +0.000 C 
ATOM     10  N   UNL     1      46.655   6.569  11.727  0.00  0.00    +0.000 N 
ATOM     11  H   UNL     1      47.210   5.818  11.332  0.00  0.00    +0.000 HD
BRANCH   9  12
ATOM     12  C   UNL     1      44.735   5.154  11.372  0.00  0.00    +0.000 A 
ATOM     13  C   UNL     1      43.919   4.506  12.289  0.00  0.00    +0.000 A 
ATOM     14  S   UNL     1      43.391   2.970  11.769  0.00  0.00    +0.000 S 
ATOM     15  C   UNL     1      44.195   3.137  10.278  0.00  0.00    +0.000 A 
ATOM     16  N   UNL     1      44.123   2.162   9.332  0.00  0.00    +0.000 NA
ATOM     17  C   UNL     1      44.742   2.439   8.234  0.00  0.00    +0.000 A 
ATOM     18  N   UNL     1      45.435   3.596   7.998  0.00  0.00    +0.000 N 
ATOM     19  C   UNL     1      45.596   4.576   8.948  0.00  0.00    +0.000 A 
ATOM     20  O   UNL     1      46.330   5.538   8.747  0.00  0.00    +0.000 OA
ATOM     21  C   UNL     1      44.879   4.336  10.187  0.00  0.00    +0.000 A 
ATOM     22  H   UNL     1      45.921   3.740   7.124  0.00  0.00    +0.000 HD
ENDBRANCH   9  12
ENDBRANCH   7  10
ENDBRANCH   1   7
BRANCH   4  23
ATOM     23  C   UNL     1      51.097   7.063  16.313  0.00  0.00    +0.000 C 
BRANCH  23  24
ATOM     24  N   UNL     1      50.472   6.340  17.421  0.00  0.00    +0.000 NA
ATOM     25  H   UNL     1      49.477   6.551  17.448  0.00  0.00    +0.000 HD
BRANCH  24  26
ATOM     26  C   UNL     1      50.734   4.908  17.446  0.00  0.00    +0.000 C 
BRANCH  26  27
ATOM     27  C   UNL     1      49.677   4.212  18.338  0.00  0.00    +0.000 C 
ATOM     28  C   UNL     1      49.170   2.885  17.741  0.00  0.00    +0.000 C 
ATOM     29  C   UNL     1      48.260   3.128  16.540  0.00  0.00    +0.000 C 
ATOM     30  C   UNL     1      47.131   4.091  16.894  0.00  0.00    +0.000 C 
ATOM     31  N   UNL     1      47.630   5.353  17.448  0.00  0.00    +0.000 NA
ATOM     32  C   UNL     1      48.472   5.124  18.625  0.00  0.00    +0.000 C 
ATOM     33  H   UNL     1      46.833   5.929  17.717  0.00  0.00    +0.000 HD
ENDBRANCH  26  27
ENDBRANCH  24  26
ENDBRANCH  23  24
ENDBRANCH   4  23
TORSDOF 7
ENDMDL
MODEL 3
REMARK VINA RESULT:    -7.105      3.488      8.536
REMARK INTER + INTRA:         -11.110
REMARK INTER:                  -9.505
REMARK INTRA:                  -1.605
REMARK UNBOUND:                -1.097
REMARK  Name = 
REMARK  7 active torsions:
REMARK  status: ('A' for Active; 'I' for Inactive)
REMARK    1  A    between atoms: C_2  and  C_20
REMARK    2  A    between atoms: N_3  and  C_4
REMARK    3  A    between atoms: C_4  and  C_5
REMARK    4  A    between atoms: C_8  and  C_9
REMARK    5  A    between atoms: C_9  and  N_10
REMARK    6  A    between atoms: N_10  and  C_11
REMARK    7  A    between atoms: C_11  and  C_12
REMARK                            x       y       z     vdW  Elec       q    Type
REMARK                         _______ _______ _______ _____ _____    ______ ____
ROOT
ATOM      1  C   UNL     1      48.798   7.833  13.340  0.00  0.00    +0.000 A 
ATOM      2  C   UNL     1      49.769   8.680  13.882  0.00  0.00    +0.000 A 
ATOM      3  C   UNL     1      50.438   8.313  15.051  0.00  0.00    +0.000 A 
ATOM      4  C   UNL     1      50.124   7.097  15.656  0.00  0.00    +0.000 A 
ATOM      5  N   UNL     1      49.151   6.288  15.164  0.00  0.00    +0.000 NA
ATOM      6  C   UNL     1      48.512   6.668  14.037  0.00  0.00    +0.000 A 
ENDROOT
BRANCH   1   7
ATOM      7  C   UNL     1      48.065   8.157  12.074  0.00  0.00    +0.000 C 
BRANCH   7  10
ATOM      8  O   UNL     1      45.293   7.888  11.700  0.00  0.00    +0.000 OA
ATOM      9  C   UNL     1      46.027   6.969  11.351  0.00  0.00    +0.000 C 
ATOM     10  N   UNL     1      47.385   7.003  11.548  0.00  0.00    +0.000 N 
ATOM     11  H   UNL     1      47.966   6.310  11.090  0.00  0.00    +0.000 HD
BRANCH   9  12
ATOM     12  C   UNL     1      45.492   5.742  10.748  0.00  0.00    +0.000 A 
ATOM     13  C   UNL     1      45.751   5.460   9.414  0.00  0.00    +0.000 A 
ATOM     14  S   UNL     1      45.032   4.013   8.868  0.00  0.00    +0.000 S 
ATOM     15  C   UNL     1      44.389   3.687  10.410  0.00  0.00    +0.000 A 
ATOM     16  N   UNL     1      43.669   2.556  10.641  0.00  0.00    +0.000 NA
ATOM     17  C   UNL     1      43.279   2.414  11.863  0.00  0.00    +0.000 A 
ATOM     18  N   UNL     1      43.534   3.304  12.874  0.00  0.00    +0.000 N 
ATOM     19  C   UNL     1      44.192   4.492  12.671  0.00  0.00    +0.000 A 
ATOM     20  O   UNL     1      44.289   5.324  13.569  0.00  0.00    +0.000 OA
ATOM     21  C   UNL     1      44.694   4.681  11.322  0.00  0.00    +0.000 A 
ATOM     22  H   UNL     1      43.176   3.146  13.804  0.00  0.00    +0.000 HD
ENDBRANCH   9  12
ENDBRANCH   7  10
ENDBRANCH   1   7
BRANCH   4  23
ATOM     23  C   UNL     1      50.854   6.650  16.919  0.00  0.00    +0.000 C 
BRANCH  23  24
ATOM     24  N   UNL     1      49.926   6.404  18.023  0.00  0.00    +0.000 NA
ATOM     25  H   UNL     1      48.970   6.525  17.698  0.00  0.00    +0.000 HD
BRANCH  24  26
ATOM     26  C   UNL     1      50.117   5.139  18.718  0.00  0.00    +0.000 C 
BRANCH  26  27
ATOM     27  C   UNL     1      48.744   4.609  19.199  0.00  0.00    +0.000 C 
ATOM     28  C   UNL     1      48.493   3.144  18.796  0.00  0.00    +0.000 C 
ATOM     29  C   UNL     1      48.220   3.018  17.300  0.00  0.00    +0.000 C 
ATOM     30  C   UNL     1      47.095   3.955  16.868  0.00  0.00    +0.000 C 
ATOM     31  N   UNL     1      47.356   5.347  17.247  0.00  0.00    +0.000 NA
ATOM     32  C   UNL     1      47.580   5.475  18.690  0.00  0.00    +0.000 C 
ATOM     33  H   UNL     1      46.549   5.913  16.985  0.00  0.00    +0.000 HD
ENDBRANCH  26  27
ENDBRANCH  24  26
ENDBRANCH  23  24
ENDBRANCH   4  23
TORSDOF 7
ENDMDL
MODEL 4
REMARK VINA RESULT:    -6.939      3.504      5.914
REMARK INTER + INTRA:         -10.876
REMARK INTER:                  -9.401
REMARK INTRA:                  -1.475
REMARK UNBOUND:                -1.097
REMARK  Name = 
REMARK  7 active torsions:
REMARK  status: ('A' for Active; 'I' for Inactive)
REMARK    1  A    between atoms: C_2  and  C_20
REMARK    2  A    between atoms: N_3  and  C_4
REMARK    3  A    between atoms: C_4  and  C_5
REMARK    4  A    between atoms: C_8  and  C_9
REMARK    5  A    between atoms: C_9  and  N_10
REMARK    6  A    between atoms: N_10  and  C_11
REMARK    7  A    between atoms: C_11  and  C_12
REMARK                            x       y       z     vdW  Elec       q    Type
REMARK                         _______ _______ _______ _____ _____    ______ ____
ROOT
ATOM      1  C   UNL     1      48.007   4.271  16.699  0.00  0.00    +0.000 A 
ATOM      2  C   UNL     1      48.677   5.494  16.598  0.00  0.00    +0.000 A 
ATOM      3  C   UNL     1      48.474   6.309  15.484  0.00  0.00    +0.000 A 
ATOM      4  C   UNL     1      47.595   5.885  14.488  0.00  0.00    +0.000 A 
ATOM      5  N   UNL     1      46.973   4.680  14.554  0.00  0.00    +0.000 NA
ATOM      6  C   UNL     1      47.193   3.905  15.638  0.00  0.00    +0.000 A 
ENDROOT
BRANCH   1   7
ATOM      7  C   UNL     1      48.162   3.365  17.882  0.00  0.00    +0.000 C 
BRANCH   7  10
ATOM      8  O   UNL     1      49.746   1.715  16.249  0.00  0.00    +0.000 OA
ATOM      9  C   UNL     1      50.261   2.243  17.230  0.00  0.00    +0.000 C 
ATOM     10  N   UNL     1      49.541   3.020  18.104  0.00  0.00    +0.000 N 
ATOM     11  H   UNL     1      50.036   3.575  18.793  0.00  0.00    +0.000 HD
BRANCH   9  12
ATOM     12  C   UNL     1      51.674   2.033  17.565  0.00  0.00    +0.000 A 
ATOM     13  C   UNL     1      52.173   0.742  17.673  0.00  0.00    +0.000 A 
ATOM     14  S   UNL     1      53.823   0.679  18.095  0.00  0.00    +0.000 S 
ATOM     15  C   UNL     1      53.943   2.377  18.102  0.00  0.00    +0.000 A 
ATOM     16  N   UNL     1      55.127   2.993  18.368  0.00  0.00    +0.000 NA
ATOM     17  C   UNL     1      55.085   4.280  18.296  0.00  0.00    +0.000 A 
ATOM     18  N   UNL     1      53.966   5.011  17.994  0.00  0.00    +0.000 N 
ATOM     19  C   UNL     1      52.734   4.436  17.790  0.00  0.00    +0.000 A 
ATOM     20  O   UNL     1      51.729   5.126  17.649  0.00  0.00    +0.000 OA
ATOM     21  C   UNL     1      52.735   2.985  17.813  0.00  0.00    +0.000 A 
ATOM     22  H   UNL     1      53.994   6.020  17.980  0.00  0.00    +0.000 HD
ENDBRANCH   9  12
ENDBRANCH   7  10
ENDBRANCH   1   7
BRANCH   4  23
ATOM     23  C   UNL     1      47.326   6.762  13.268  0.00  0.00    +0.000 C 
BRANCH  23  24
ATOM     24  N   UNL     1      46.742   5.995  12.168  0.00  0.00    +0.000 NA
ATOM     25  H   UNL     1      46.601   5.031  12.461  0.00  0.00    +0.000 HD
BRANCH  24  26
ATOM     26  C   UNL     1      45.541   6.575  11.583  0.00  0.00    +0.000 C 
BRANCH  26  27
ATOM     27  C   UNL     1      44.688   5.450  10.949  0.00  0.00    +0.000 C 
ATOM     28  C   UNL     1      43.180   5.616  11.220  0.00  0.00    +0.000 C 
ATOM     29  C   UNL     1      42.840   5.302  12.675  0.00  0.00    +0.000 C 
ATOM     30  C   UNL     1      43.369   3.928  13.076  0.00  0.00    +0.000 C 
ATOM     31  N   UNL     1      44.807   3.791  12.824  0.00  0.00    +0.000 NA
ATOM     32  C   UNL     1      45.131   4.054  11.419  0.00  0.00    +0.000 C 
ATOM     33  H   UNL     1      45.089   2.840  13.057  0.00  0.00    +0.000 HD
ENDBRANCH  26  27
ENDBRANCH  24  26
ENDBRANCH  23  24
ENDBRANCH   4  23
TORSDOF 7
ENDMDL
MODEL 5
REMARK VINA RESULT:    -6.687      4.088      9.495
REMARK INTER + INTRA:         -10.521
REMARK INTER:                  -9.205
REMARK INTRA:                  -1.316
REMARK UNBOUND:                -1.097
REMARK  Name = 
REMARK  7 active torsions:
REMARK  status: ('A' for Active; 'I' for Inactive)
REMARK    1  A    between atoms: C_2  and  C_20
REMARK    2  A    between atoms: N_3  and  C_4
REMARK    3  A    between atoms: C_4  and  C_5
REMARK    4  A    between atoms: C_8  and  C_9
REMARK    5  A    between atoms: C_9  and  N_10
REMARK    6  A    between atoms: N_10  and  C_11
REMARK    7  A    between atoms: C_11  and  C_12
REMARK                            x       y       z     vdW  Elec       q    Type
REMARK                         _______ _______ _______ _____ _____    ______ ____
ROOT
ATOM      1  C   UNL     1      48.319   4.490  17.598  0.00  0.00    +0.000 A 
ATOM      2  C   UNL     1      48.980   5.680  17.279  0.00  0.00    +0.000 A 
ATOM      3  C   UNL     1      49.810   6.290  18.221  0.00  0.00    +0.000 A 
ATOM      4  C   UNL     1      49.966   5.691  19.471  0.00  0.00    +0.000 A 
ATOM      5  N   UNL     1      49.294   4.561  19.807  0.00  0.00    +0.000 NA
ATOM      6  C   UNL     1      48.491   3.995  18.881  0.00  0.00    +0.000 A 
ENDROOT
BRANCH   1   7
ATOM      7  C   UNL     1      47.438   3.774  16.620  0.00  0.00    +0.000 C 
BRANCH   7  10
ATOM      8  O   UNL     1      47.149   3.233  13.878  0.00  0.00    +0.000 OA
ATOM      9  C   UNL     1      46.760   4.313  14.310  0.00  0.00    +0.000 C 
ATOM     10  N   UNL     1      46.914   4.672  15.626  0.00  0.00    +0.000 N 
ATOM     11  H   UNL     1      46.425   5.489  15.974  0.00  0.00    +0.000 HD
BRANCH   9  12
ATOM     12  C   UNL     1      46.152   5.320  13.432  0.00  0.00    +0.000 A 
ATOM     13  C   UNL     1      46.877   6.448  13.072  0.00  0.00    +0.000 A 
ATOM     14  S   UNL     1      46.012   7.526  12.073  0.00  0.00    +0.000 S 
ATOM     15  C   UNL     1      44.655   6.500  12.046  0.00  0.00    +0.000 A 
ATOM     16  N   UNL     1      43.546   6.827  11.330  0.00  0.00    +0.000 NA
ATOM     17  C   UNL     1      42.610   5.939  11.361  0.00  0.00    +0.000 A 
ATOM     18  N   UNL     1      42.676   4.758  12.053  0.00  0.00    +0.000 N 
ATOM     19  C   UNL     1      43.745   4.419  12.848  0.00  0.00    +0.000 A 
ATOM     20  O   UNL     1      43.716   3.416  13.554  0.00  0.00    +0.000 OA
ATOM     21  C   UNL     1      44.847   5.363  12.810  0.00  0.00    +0.000 A 
ATOM     22  H   UNL     1      41.897   4.117  12.059  0.00  0.00    +0.000 HD
ENDBRANCH   9  12
ENDBRANCH   7  10
ENDBRANCH   1   7
BRANCH   4  23
ATOM     23  C   UNL     1      50.885   6.314  20.518  0.00  0.00    +0.000 C 
BRANCH  23  24
ATOM     24  N   UNL     1      52.296   6.090  20.203  0.00  0.00    +0.000 NA
ATOM     25  H   UNL     1      52.873   6.715  20.760  0.00  0.00    +0.000 HD
BRANCH  24  26
ATOM     26  C   UNL     1      52.735   4.705  20.295  0.00  0.00    +0.000 C 
BRANCH  26  27
ATOM     27  C   UNL     1      53.602   4.362  19.059  0.00  0.00    +0.000 C 
ATOM     28  C   UNL     1      52.781   4.272  17.758  0.00  0.00    +0.000 C 
ATOM     29  C   UNL     1      51.920   3.012  17.731  0.00  0.00    +0.000 C 
ATOM     30  C   UNL     1      52.764   1.766  17.989  0.00  0.00    +0.000 C 
ATOM     31  N   UNL     1      53.529   1.863  19.236  0.00  0.00    +0.000 NA
ATOM     32  C   UNL     1      54.385   3.052  19.248  0.00  0.00    +0.000 C 
ATOM     33  H   UNL     1      54.113   1.032  19.325  0.00  0.00    +0.000 HD
ENDBRANCH  26  27
ENDBRANCH  24  26
ENDBRANCH  23  24
ENDBRANCH   4  23
TORSDOF 7
ENDMDL
MODEL 6
REMARK VINA RESULT:    -6.526      2.559      3.392
REMARK INTER + INTRA:         -10.294
REMARK INTER:                  -9.531
REMARK INTRA:                  -0.763
REMARK UNBOUND:                -1.097
REMARK  Name = 
REMARK  7 active torsions:
REMARK  status: ('A' for Active; 'I' for Inactive)
REMARK    1  A    between atoms: C_2  and  C_20
REMARK    2  A    between atoms: N_3  and  C_4
REMARK    3  A    between atoms: C_4  and  C_5
REMARK    4  A    between atoms: C_8  and  C_9
REMARK    5  A    between atoms: C_9  and  N_10
REMARK    6  A    between atoms: N_10  and  C_11
REMARK    7  A    between atoms: C_11  and  C_12
REMARK                            x       y       z     vdW  Elec       q    Type
REMARK                         _______ _______ _______ _____ _____    ______ ____
ROOT
ATOM      1  C   UNL     1      46.748   7.111  12.905  0.00  0.00    +0.000 A 
ATOM      2  C   UNL     1      47.103   5.869  13.438  0.00  0.00    +0.000 A 
ATOM      3  C   UNL     1      46.157   4.845  13.508  0.00  0.00    +0.000 A 
ATOM      4  C   UNL     1      44.868   5.085  13.036  0.00  0.00    +0.000 A 
ATOM      5  N   UNL     1      44.499   6.301  12.558  0.00  0.00    +0.000 NA
ATOM      6  C   UNL     1      45.430   7.277  12.509  0.00  0.00    +0.000 A 
ENDROOT
BRANCH   1   7
ATOM      7  C   UNL     1      47.726   8.240  12.778  0.00  0.00    +0.000 C 
BRANCH   7  10
ATOM      8  O   UNL     1      49.523   9.982  14.056  0.00  0.00    +0.000 OA
ATOM      9  C   UNL     1      49.811   8.792  13.975  0.00  0.00    +0.000 C 
ATOM     10  N   UNL     1      49.011   7.888  13.321  0.00  0.00    +0.000 N 
ATOM     11  H   UNL     1      49.195   6.897  13.431  0.00  0.00    +0.000 HD
BRANCH   9  12
ATOM     12  C   UNL     1      51.065   8.264  14.528  0.00  0.00    +0.000 A 
ATOM     13  C   UNL     1      52.280   8.742  14.059  0.00  0.00    +0.000 A 
ATOM     14  S   UNL     1      53.633   8.002  14.787  0.00  0.00    +0.000 S 
ATOM     15  C   UNL     1      52.642   7.050  15.790  0.00  0.00    +0.000 A 
ATOM     16  N   UNL     1      53.184   6.193  16.697  0.00  0.00    +0.000 NA
ATOM     17  C   UNL     1      52.318   5.567  17.421  0.00  0.00    +0.000 A 
ATOM     18  N   UNL     1      50.960   5.711  17.315  0.00  0.00    +0.000 N 
ATOM     19  C   UNL     1      50.367   6.509  16.367  0.00  0.00    +0.000 A 
ATOM     20  O   UNL     1      49.149   6.514  16.215  0.00  0.00    +0.000 OA
ATOM     21  C   UNL     1      51.297   7.273  15.555  0.00  0.00    +0.000 A 
ATOM     22  H   UNL     1      50.335   5.170  17.896  0.00  0.00    +0.000 HD
ENDBRANCH   9  12
ENDBRANCH   7  10
ENDBRANCH   1   7
BRANCH   4  23
ATOM     23  C   UNL     1      43.813   3.982  13.071  0.00  0.00    +0.000 C 
BRANCH  23  24
ATOM     24  N   UNL     1      44.215   2.822  12.276  0.00  0.00    +0.000 NA
ATOM     25  H   UNL     1      43.390   2.292  12.004  0.00  0.00    +0.000 HD
BRANCH  24  26
ATOM     26  C   UNL     1      45.076   3.122  11.141  0.00  0.00    +0.000 C 
BRANCH  26  27
ATOM     27  C   UNL     1      44.259   2.994   9.832  0.00  0.00    +0.000 C 
ATOM     28  C   UNL     1      44.690   1.791   8.972  0.00  0.00    +0.000 C 
ATOM     29  C   UNL     1      46.046   2.036   8.315  0.00  0.00    +0.000 C 
ATOM     30  C   UNL     1      46.050   3.352   7.542  0.00  0.00    +0.000 C 
ATOM     31  N   UNL     1      45.650   4.488   8.378  0.00  0.00    +0.000 NA
ATOM     32  C   UNL     1      44.331   4.271   8.979  0.00  0.00    +0.000 C 
ATOM     33  H   UNL     1      45.616   5.324   7.796  0.00  0.00    +0.000 HD
ENDBRANCH  26  27
ENDBRANCH  24  26
ENDBRANCH  23  24
ENDBRANCH   4  23
TORSDOF 7
ENDMDL
MODEL 7
REMARK VINA RESULT:    -6.337      3.296      9.300
REMARK INTER + INTRA:         -10.027
REMARK INTER:                  -8.857
REMARK INTRA:                  -1.170
REMARK UNBOUND:                -1.097
REMARK  Name = 
REMARK  7 active torsions:
REMARK  status: ('A' for Active; 'I' for Inactive)
REMARK    1  A    between atoms: C_2  and  C_20
REMARK    2  A    between atoms: N_3  and  C_4
REMARK    3  A    between atoms: C_4  and  C_5
REMARK    4  A    between atoms: C_8  and  C_9
REMARK    5  A    between atoms: C_9  and  N_10
REMARK    6  A    between atoms: N_10  and  C_11
REMARK    7  A    between atoms: C_11  and  C_12
REMARK                            x       y       z     vdW  Elec       q    Type
REMARK                         _______ _______ _______ _____ _____    ______ ____
ROOT
ATOM      1  C   UNL     1      45.939   6.115  12.079  0.00  0.00    +0.000 A 
ATOM      2  C   UNL     1      46.277   5.259  13.131  0.00  0.00    +0.000 A 
ATOM      3  C   UNL     1      47.179   5.680  14.110  0.00  0.00    +0.000 A 
ATOM      4  C   UNL     1      47.726   6.959  14.018  0.00  0.00    +0.000 A 
ATOM      5  N   UNL     1      47.440   7.782  12.976  0.00  0.00    +0.000 NA
ATOM      6  C   UNL     1      46.571   7.348  12.038  0.00  0.00    +0.000 A 
ENDROOT
BRANCH   1   7
ATOM      7  C   UNL     1      44.957   5.730  11.015  0.00  0.00    +0.000 C 
BRANCH   7  10
ATOM      8  O   UNL     1      43.456   3.503  10.190  0.00  0.00    +0.000 OA
ATOM      9  C   UNL     1      44.624   3.594   9.826  0.00  0.00    +0.000 C 
ATOM     10  N   UNL     1      45.437   4.624  10.229  0.00  0.00    +0.000 N 
ATOM     11  H   UNL     1      46.330   4.756   9.769  0.00  0.00    +0.000 HD
BRANCH   9  12
ATOM     12  C   UNL     1      45.248   2.573   8.976  0.00  0.00    +0.000 A 
ATOM     13  C   UNL     1      44.917   1.236   9.149  0.00  0.00    +0.000 A 
ATOM     14  S   UNL     1      45.753   0.184   8.100  0.00  0.00    +0.000 S 
ATOM     15  C   UNL     1      46.552   1.482   7.344  0.00  0.00    +0.000 A 
ATOM     16  N   UNL     1      47.415   1.268   6.314  0.00  0.00    +0.000 NA
ATOM     17  C   UNL     1      47.916   2.343   5.806  0.00  0.00    +0.000 A 
ATOM     18  N   UNL     1      47.641   3.614   6.239  0.00  0.00    +0.000 N 
ATOM     19  C   UNL     1      46.834   3.874   7.320  0.00  0.00    +0.000 A 
ATOM     20  O   UNL     1      46.714   5.013   7.761  0.00  0.00    +0.000 OA
ATOM     21  C   UNL     1      46.207   2.701   7.901  0.00  0.00    +0.000 A 
ATOM     22  H   UNL     1      48.088   4.413   5.815  0.00  0.00    +0.000 HD
ENDBRANCH   9  12
ENDBRANCH   7  10
ENDBRANCH   1   7
BRANCH   4  23
ATOM     23  C   UNL     1      48.694   7.466  15.082  0.00  0.00    +0.000 C 
BRANCH  23  24
ATOM     24  N   UNL     1      48.482   6.803  16.369  0.00  0.00    +0.000 NA
ATOM     25  H   UNL     1      47.598   6.301  16.352  0.00  0.00    +0.000 HD
BRANCH  24  26
ATOM     26  C   UNL     1      49.584   5.965  16.818  0.00  0.00    +0.000 C 
BRANCH  26  27
ATOM     27  C   UNL     1      49.167   5.224  18.112  0.00  0.00    +0.000 C 
ATOM     28  C   UNL     1      49.584   3.741  18.113  0.00  0.00    +0.000 C 
ATOM     29  C   UNL     1      48.726   2.922  17.152  0.00  0.00    +0.000 C 
ATOM     30  C   UNL     1      47.240   3.123  17.437  0.00  0.00    +0.000 C 
ATOM     31  N   UNL     1      46.858   4.538  17.419  0.00  0.00    +0.000 NA
ATOM     32  C   UNL     1      47.654   5.319  18.369  0.00  0.00    +0.000 C 
ATOM     33  H   UNL     1      45.873   4.613  17.671  0.00  0.00    +0.000 HD
ENDBRANCH  26  27
ENDBRANCH  24  26
ENDBRANCH  23  24
ENDBRANCH   4  23
TORSDOF 7
ENDMDL
MODEL 8
REMARK VINA RESULT:    -6.317      1.874      2.347
REMARK INTER + INTRA:         -10.000
REMARK INTER:                  -8.979
REMARK INTRA:                  -1.021
REMARK UNBOUND:                -1.097
REMARK  Name = 
REMARK  7 active torsions:
REMARK  status: ('A' for Active; 'I' for Inactive)
REMARK    1  A    between atoms: C_2  and  C_20
REMARK    2  A    between atoms: N_3  and  C_4
REMARK    3  A    between atoms: C_4  and  C_5
REMARK    4  A    between atoms: C_8  and  C_9
REMARK    5  A    between atoms: C_9  and  N_10
REMARK    6  A    between atoms: N_10  and  C_11
REMARK    7  A    between atoms: C_11  and  C_12
REMARK                            x       y       z     vdW  Elec       q    Type
REMARK                         _______ _______ _______ _____ _____    ______ ____
ROOT
ATOM      1  C   UNL     1      47.153   7.005  13.526  0.00  0.00    +0.000 A 
ATOM      2  C   UNL     1      47.251   5.612  13.463  0.00  0.00    +0.000 A 
ATOM      3  C   UNL     1      46.318   4.881  12.726  0.00  0.00    +0.000 A 
ATOM      4  C   UNL     1      45.301   5.562  12.059  0.00  0.00    +0.000 A 
ATOM      5  N   UNL     1      45.170   6.911  12.150  0.00  0.00    +0.000 NA
ATOM      6  C   UNL     1      46.080   7.594  12.875  0.00  0.00    +0.000 A 
ENDROOT
BRANCH   1   7
ATOM      7  C   UNL     1      48.139   7.847  14.277  0.00  0.00    +0.000 C 
BRANCH   7  10
ATOM      8  O   UNL     1      48.965   8.071  16.953  0.00  0.00    +0.000 OA
ATOM      9  C   UNL     1      49.446   7.180  16.260  0.00  0.00    +0.000 C 
ATOM     10  N   UNL     1      49.133   7.038  14.932  0.00  0.00    +0.000 N 
ATOM     11  H   UNL     1      49.411   6.192  14.447  0.00  0.00    +0.000 HD
BRANCH   9  12
ATOM     12  C   UNL     1      50.435   6.237  16.796  0.00  0.00    +0.000 A 
ATOM     13  C   UNL     1      51.695   6.692  17.159  0.00  0.00    +0.000 A 
ATOM     14  S   UNL     1      52.726   5.462  17.734  0.00  0.00    +0.000 S 
ATOM     15  C   UNL     1      51.509   4.284  17.564  0.00  0.00    +0.000 A 
ATOM     16  N   UNL     1      51.735   2.990  17.916  0.00  0.00    +0.000 NA
ATOM     17  C   UNL     1      50.713   2.214  17.776  0.00  0.00    +0.000 A 
ATOM     18  N   UNL     1      49.489   2.611  17.306  0.00  0.00    +0.000 N 
ATOM     19  C   UNL     1      49.237   3.890  16.870  0.00  0.00    +0.000 A 
ATOM     20  O   UNL     1      48.171   4.178  16.335  0.00  0.00    +0.000 OA
ATOM     21  C   UNL     1      50.340   4.816  17.050  0.00  0.00    +0.000 A 
ATOM     22  H   UNL     1      48.736   1.947  17.195  0.00  0.00    +0.000 HD
ENDBRANCH   9  12
ENDBRANCH   7  10
ENDBRANCH   1   7
BRANCH   4  23
ATOM     23  C   UNL     1      44.279   4.800  11.221  0.00  0.00    +0.000 C 
BRANCH  23  24
ATOM     24  N   UNL     1      44.364   5.156   9.805  0.00  0.00    +0.000 NA
ATOM     25  H   UNL     1      44.268   6.163   9.700  0.00  0.00    +0.000 HD
BRANCH  24  26
ATOM     26  C   UNL     1      45.533   4.637   9.109  0.00  0.00    +0.000 C 
BRANCH  26  27
ATOM     27  C   UNL     1      45.072   3.789   7.899  0.00  0.00    +0.000 C 
ATOM     28  C   UNL     1      44.592   2.381   8.301  0.00  0.00    +0.000 C 
ATOM     29  C   UNL     1      45.764   1.492   8.708  0.00  0.00    +0.000 C 
ATOM     30  C   UNL     1      46.836   1.467   7.623  0.00  0.00    +0.000 C 
ATOM     31  N   UNL     1      47.290   2.813   7.261  0.00  0.00    +0.000 NA
ATOM     32  C   UNL     1      46.172   3.658   6.833  0.00  0.00    +0.000 C 
ATOM     33  H   UNL     1      47.960   2.737   6.496  0.00  0.00    +0.000 HD
ENDBRANCH  26  27
ENDBRANCH  24  26
ENDBRANCH  23  24
ENDBRANCH   4  23
TORSDOF 7
ENDMDL
MODEL 9
REMARK VINA RESULT:    -6.171      4.971      7.689
REMARK INTER + INTRA:          -9.794
REMARK INTER:                  -9.074
REMARK INTRA:                  -0.720
REMARK UNBOUND:                -1.097
REMARK  Name = 
REMARK  7 active torsions:
REMARK  status: ('A' for Active; 'I' for Inactive)
REMARK    1  A    between atoms: C_2  and  C_20
REMARK    2  A    between atoms: N_3  and  C_4
REMARK    3  A    between atoms: C_4  and  C_5
REMARK    4  A    between atoms: C_8  and  C_9
REMARK    5  A    between atoms: C_9  and  N_10
REMARK    6  A    between atoms: N_10  and  C_11
REMARK    7  A    between atoms: C_11  and  C_12
REMARK                            x       y       z     vdW  Elec       q    Type
REMARK                         _______ _______ _______ _____ _____    ______ ____
ROOT
ATOM      1  C   UNL     1      47.772   8.273  12.475  0.00  0.00    +0.000 A 
ATOM      2  C   UNL     1      48.712   7.248  12.611  0.00  0.00    +0.000 A 
ATOM      3  C   UNL     1      50.032   7.455  12.207  0.00  0.00    +0.000 A 
ATOM      4  C   UNL     1      50.389   8.693  11.676  0.00  0.00    +0.000 A 
ATOM      5  N   UNL     1      49.475   9.681  11.496  0.00  0.00    +0.000 NA
ATOM      6  C   UNL     1      48.203   9.453  11.887  0.00  0.00    +0.000 A 
ENDROOT
BRANCH   1   7
ATOM      7  C   UNL     1      46.348   8.122  12.915  0.00  0.00    +0.000 C 
BRANCH   7  10
ATOM      8  O   UNL     1      44.264   7.555  11.117  0.00  0.00    +0.000 OA
ATOM      9  C   UNL     1      44.841   6.621  11.664  0.00  0.00    +0.000 C 
ATOM     10  N   UNL     1      45.833   6.817  12.593  0.00  0.00    +0.000 N 
ATOM     11  H   UNL     1      46.398   6.028  12.884  0.00  0.00    +0.000 HD
BRANCH   9  12
ATOM     12  C   UNL     1      44.469   5.226  11.401  0.00  0.00    +0.000 A 
ATOM     13  C   UNL     1      43.676   4.541  12.312  0.00  0.00    +0.000 A 
ATOM     14  S   UNL     1      43.363   2.925  11.867  0.00  0.00    +0.000 S 
ATOM     15  C   UNL     1      44.235   3.098  10.415  0.00  0.00    +0.000 A 
ATOM     16  N   UNL     1      44.336   2.066   9.534  0.00  0.00    +0.000 NA
ATOM     17  C   UNL     1      44.987   2.349   8.456  0.00  0.00    +0.000 A 
ATOM     18  N   UNL     1      45.556   3.565   8.183  0.00  0.00    +0.000 N 
ATOM     19  C   UNL     1      45.542   4.611   9.073  0.00  0.00    +0.000 A 
ATOM     20  O   UNL     1      46.172   5.641   8.851  0.00  0.00    +0.000 OA
ATOM     21  C   UNL     1      44.781   4.362  10.284  0.00  0.00    +0.000 A 
ATOM     22  H   UNL     1      46.077   3.713   7.331  0.00  0.00    +0.000 HD
ENDBRANCH   9  12
ENDBRANCH   7  10
ENDBRANCH   1   7
BRANCH   4  23
ATOM     23  C   UNL     1      51.828   8.966  11.248  0.00  0.00    +0.000 C 
BRANCH  23  24
ATOM     24  N   UNL     1      52.622   7.738  11.197  0.00  0.00    +0.000 NA
ATOM     25  H   UNL     1      52.419   7.167  12.014  0.00  0.00    +0.000 HD
BRANCH  24  26
ATOM     26  C   UNL     1      52.511   6.985   9.956  0.00  0.00    +0.000 C 
BRANCH  26  27
ATOM     27  C   UNL     1      53.868   7.023   9.213  0.00  0.00    +0.000 C 
ATOM     28  C   UNL     1      53.759   7.617   7.796  0.00  0.00    +0.000 C 
ATOM     29  C   UNL     1      53.058   6.653   6.842  0.00  0.00    +0.000 C 
ATOM     30  C   UNL     1      53.726   5.281   6.862  0.00  0.00    +0.000 C 
ATOM     31  N   UNL     1      53.811   4.724   8.216  0.00  0.00    +0.000 NA
ATOM     32  C   UNL     1      54.517   5.631   9.124  0.00  0.00    +0.000 C 
ATOM     33  H   UNL     1      54.315   3.839   8.173  0.00  0.00    +0.000 HD
ENDBRANCH  26  27
ENDBRANCH  24  26
ENDBRANCH  23  24
ENDBRANCH   4  23
TORSDOF 7
ENDMDL
