MODEL 1
REMARK VINA RESULT:    -7.878      0.000      0.000
REMARK INTER + INTRA:         -10.426
REMARK INTER:                  -9.951
REMARK INTRA:                  -0.475
REMARK UNBOUND:                -0.475
REMARK  Name = 
REMARK  5 active torsions:
REMARK  status: ('A' for Active; 'I' for Inactive)
REMARK    1  A    between atoms: N_1  and  C_2
REMARK    2  A    between atoms: C_2  and  C_3
REMARK    3  A    between atoms: C_6  and  C_7
REMARK    4  A    between atoms: C_7  and  N_8
REMARK    5  A    between atoms: C_13  and  C_14
REMARK                            x       y       z     vdW  Elec       q    Type
REMARK                         _______ _______ _______ _____ _____    ______ ____
ROOT
ATOM      1  N   UNL     1      44.322   2.763  11.465  0.00  0.00    +0.000 N 
ATOM      2  C   UNL     1      45.092   3.711  12.111  0.00  0.00    +0.000 A 
ATOM      3  N   UNL     1      46.039   3.217  12.921  0.00  0.00    +0.000 NA
ATOM      4  C   UNL     1      46.761   4.087  13.652  0.00  0.00    +0.000 A 
ATOM      5  C   UNL     1      46.578   5.439  13.604  0.00  0.00    +0.000 A 
ATOM      6  C   UNL     1      45.596   5.851  12.733  0.00  0.00    +0.000 A 
ATOM      7  N   UNL     1      44.842   5.018  11.968  0.00  0.00    +0.000 NA
ATOM      8  H   UNL     1      44.843   1.891  11.490  0.00  0.00    +0.000 HD
ENDROOT
BRANCH   6   9
ATOM      9  C   UNL     1      45.312   7.316  12.617  0.00  0.00    +0.000 C 
ATOM     10  N   UNL     1      44.306   7.658  11.755  0.00  0.00    +0.000 N 
ATOM     11  O   UNL     1      45.930   8.160  13.252  0.00  0.00    +0.000 OA
ATOM     12  H   UNL     1      43.790   6.937  11.266  0.00  0.00    +0.000 HD
ATOM     13  H   UNL     1      44.045   8.630  11.662  0.00  0.00    +0.000 HD
ENDBRANCH   6   9
BRANCH   1  14
ATOM     14  C   UNL     1      43.854   3.108  10.135  0.00  0.00    +0.000 C 
BRANCH  14  18
ATOM     15  C   UNL     1      46.977   2.351   7.290  0.00  0.00    +0.000 A 
ATOM     16  C   UNL     1      46.491   3.649   7.445  0.00  0.00    +0.000 A 
ATOM     17  C   UNL     1      45.468   3.904   8.361  0.00  0.00    +0.000 A 
ATOM     18  C   UNL     1      44.959   2.854   9.121  0.00  0.00    +0.000 A 
ATOM     19  N   UNL     1      45.396   1.576   8.969  0.00  0.00    +0.000 NA
ATOM     20  C   UNL     1      46.384   1.358   8.064  0.00  0.00    +0.000 A 
BRANCH  15  21
ATOM     21  C   UNL     1      48.112   2.040   6.357  0.00  0.00    +0.000 C 
BRANCH  21  22
ATOM     22  N   UNL     1      48.033   2.802   5.119  0.00  0.00    +0.000 NA
ATOM     23  H   UNL     1      47.190   3.375   5.132  0.00  0.00    +0.000 HD
ATOM     24  H   UNL     1      47.923   2.155   4.336  0.00  0.00    +0.000 HD
ENDBRANCH  21  22
ENDBRANCH  15  21
ENDBRANCH  14  18
ENDBRANCH   1  14
TORSDOF 5
ENDMDL
MODEL 2
REMARK VINA RESULT:    -7.728      1.402      1.649
REMARK INTER + INTRA:         -10.236
REMARK INTER:                  -9.787
REMARK INTRA:                  -0.449
REMARK UNBOUND:                -0.475
REMARK  Name = 
REMARK  5 active torsions:
REMARK  status: ('A' for Active; 'I' for Inactive)
REMARK    1  A    between atoms: N_1  and  C_2
REMARK    2  A    between atoms: C_2  and  C_3
REMARK    3  A    between atoms: C_6  and  C_7
REMARK    4  A    between atoms: C_7  and  N_8
REMARK    5  A    between atoms: C_13  and  C_14
REMARK                            x       y       z     vdW  Elec       q    Type
REMARK                         _______ _______ _______ _____ _____    ______ ____
ROOT
ATOM      1  N   UNL     1      44.069   4.083  11.535  0.00  0.00    +0.000 N 
ATOM      2  C   UNL     1      45.131   4.618  12.238  0.00  0.00    +0.000 A 
ATOM      3  N   UNL     1      45.703   3.788  13.123  0.00  0.00    +0.000 NA
ATOM      4  C   UNL     1      46.682   4.277  13.905  0.00  0.00    +0.000 A 
ATOM      5  C   UNL     1      47.120   5.568  13.840  0.00  0.00    +0.000 A 
ATOM      6  C   UNL     1      46.485   6.338  12.893  0.00  0.00    +0.000 A 
ATOM      7  N   UNL     1      45.496   5.895  12.072  0.00  0.00    +0.000 NA
ATOM      8  H   UNL     1      44.147   3.072  11.605  0.00  0.00    +0.000 HD
ENDROOT
BRANCH   6   9
ATOM      9  C   UNL     1      46.887   7.773  12.751  0.00  0.00    +0.000 C 
ATOM     10  N   UNL     1      46.299   8.643  13.629  0.00  0.00    +0.000 N 
ATOM     11  O   UNL     1      47.692   8.153  11.911  0.00  0.00    +0.000 OA
ATOM     12  H   UNL     1      45.660   8.296  14.334  0.00  0.00    +0.000 HD
ATOM     13  H   UNL     1      46.558   9.619  13.604  0.00  0.00    +0.000 HD
ENDBRANCH   6   9
BRANCH   1  14
ATOM     14  C   UNL     1      43.897   4.549  10.172  0.00  0.00    +0.000 C 
BRANCH  14  18
ATOM     15  C   UNL     1      46.555   2.444   7.540  0.00  0.00    +0.000 A 
ATOM     16  C   UNL     1      45.806   1.728   8.475  0.00  0.00    +0.000 A 
ATOM     17  C   UNL     1      44.946   2.404   9.342  0.00  0.00    +0.000 A 
ATOM     18  C   UNL     1      44.837   3.790   9.248  0.00  0.00    +0.000 A 
ATOM     19  N   UNL     1      45.575   4.513   8.365  0.00  0.00    +0.000 NA
ATOM     20  C   UNL     1      46.410   3.828   7.542  0.00  0.00    +0.000 A 
BRANCH  15  21
ATOM     21  C   UNL     1      47.451   1.753   6.553  0.00  0.00    +0.000 C 
BRANCH  21  22
ATOM     22  N   UNL     1      48.660   2.515   6.279  0.00  0.00    +0.000 NA
ATOM     23  H   UNL     1      48.665   3.355   6.856  0.00  0.00    +0.000 HD
ATOM     24  H   UNL     1      48.639   2.839   5.311  0.00  0.00    +0.000 HD
ENDBRANCH  21  22
ENDBRANCH  15  21
ENDBRANCH  14  18
ENDBRANCH   1  14
TORSDOF 5
ENDMDL
MODEL 3
REMARK VINA RESULT:    -7.491      1.716      2.807
REMARK INTER + INTRA:          -9.937
REMARK INTER:                  -9.532
REMARK INTRA:                  -0.406
REMARK UNBOUND:                -0.475
REMARK  Name = 
REMARK  5 active torsions:
REMARK  status: ('A' for Active; 'I' for Inactive)
REMARK    1  A    between atoms: N_1  and  C_2
REMARK    2  A    between atoms: C_2  and  C_3
REMARK    3  A    between atoms: C_6  and  C_7
REMARK    4  A    between atoms: C_7  and  N_8
REMARK    5  A    between atoms: C_13  and  C_14
REMARK                            x       y       z     vdW  Elec       q    Type
REMARK                         _______ _______ _______ _____ _____    ______ ____
ROOT
ATOM      1  N   UNL     1      44.942   5.913  10.037  0.00  0.00    +0.000 N 
ATOM      2  C   UNL     1      45.452   6.193  11.289  0.00  0.00    +0.000 A 
ATOM      3  N   UNL     1      45.441   7.490  11.630  0.00  0.00    +0.000 NA
ATOM      4  C   UNL     1      46.011   7.840  12.798  0.00  0.00    +0.000 A 
ATOM      5  C   UNL     1      46.593   6.944  13.647  0.00  0.00    +0.000 A 
ATOM      6  C   UNL     1      46.540   5.638  13.220  0.00  0.00    +0.000 A 
ATOM      7  N   UNL     1      45.973   5.227  12.055  0.00  0.00    +0.000 NA
ATOM      8  H   UNL     1      44.369   6.708   9.766  0.00  0.00    +0.000 HD
ENDROOT
BRANCH   6   9
ATOM      9  C   UNL     1      47.162   4.579  14.077  0.00  0.00    +0.000 C 
ATOM     10  N   UNL     1      46.883   3.288  13.721  0.00  0.00    +0.000 N 
ATOM     11  O   UNL     1      47.877   4.842  15.034  0.00  0.00    +0.000 OA
ATOM     12  H   UNL     1      46.313   3.099  12.905  0.00  0.00    +0.000 HD
ATOM     13  H   UNL     1      47.303   2.530  14.241  0.00  0.00    +0.000 HD
ENDBRANCH   6   9
BRANCH   1  14
ATOM     14  C   UNL     1      44.257   4.642   9.888  0.00  0.00    +0.000 C 
BRANCH  14  18
ATOM     15  C   UNL     1      46.600   2.051   7.394  0.00  0.00    +0.000 A 
ATOM     16  C   UNL     1      45.870   1.509   8.452  0.00  0.00    +0.000 A 
ATOM     17  C   UNL     1      45.113   2.344   9.276  0.00  0.00    +0.000 A 
ATOM     18  C   UNL     1      45.086   3.712   9.014  0.00  0.00    +0.000 A 
ATOM     19  N   UNL     1      45.808   4.269   8.007  0.00  0.00    +0.000 NA
ATOM     20  C   UNL     1      46.542   3.432   7.230  0.00  0.00    +0.000 A 
BRANCH  15  21
ATOM     21  C   UNL     1      47.384   1.185   6.451  0.00  0.00    +0.000 C 
BRANCH  21  22
ATOM     22  N   UNL     1      48.532   1.880   5.889  0.00  0.00    +0.000 NA
ATOM     23  H   UNL     1      49.044   1.245   5.279  0.00  0.00    +0.000 HD
ATOM     24  H   UNL     1      49.176   2.126   6.643  0.00  0.00    +0.000 HD
ENDBRANCH  21  22
ENDBRANCH  15  21
ENDBRANCH  14  18
ENDBRANCH   1  14
TORSDOF 5
ENDMDL
MODEL 4
REMARK VINA RESULT:    -6.408      3.484      7.470
REMARK INTER + INTRA:          -8.568
REMARK INTER:                  -8.291
REMARK INTRA:                  -0.278
REMARK UNBOUND:                -0.475
REMARK  Name = 
REMARK  5 active torsions:
REMARK  status: ('A' for Active; 'I' for Inactive)
REMARK    1  A    between atoms: N_1  and  C_2
REMARK    2  A    between atoms: C_2  and  C_3
REMARK    3  A    between atoms: C_6  and  C_7
REMARK    4  A    between atoms: C_7  and  N_8
REMARK    5  A    between atoms: C_13  and  C_14
REMARK                            x       y       z     vdW  Elec       q    Type
REMARK                         _______ _______ _______ _____ _____    ______ ____
ROOT
ATOM      1  N   UNL     1      45.474   4.398  14.000  0.00  0.00    +0.000 N 
ATOM      2  C   UNL     1      44.754   4.671  12.853  0.00  0.00    +0.000 A 
ATOM      3  N   UNL     1      43.471   5.006  13.053  0.00  0.00    +0.000 NA
ATOM      4  C   UNL     1      42.692   5.193  11.972  0.00  0.00    +0.000 A 
ATOM      5  C   UNL     1      43.142   5.061  10.691  0.00  0.00    +0.000 A 
ATOM      6  C   UNL     1      44.474   4.732  10.586  0.00  0.00    +0.000 A 
ATOM      7  N   UNL     1      45.308   4.538  11.642  0.00  0.00    +0.000 NA
ATOM      8  H   UNL     1      44.968   4.820  14.774  0.00  0.00    +0.000 HD
ENDROOT
BRANCH   6   9
ATOM      9  C   UNL     1      45.061   4.554   9.221  0.00  0.00    +0.000 C 
ATOM     10  N   UNL     1      44.459   3.609   8.435  0.00  0.00    +0.000 N 
ATOM     11  O   UNL     1      46.015   5.209   8.822  0.00  0.00    +0.000 OA
ATOM     12  H   UNL     1      43.651   3.103   8.779  0.00  0.00    +0.000 HD
ATOM     13  H   UNL     1      44.789   3.469   7.490  0.00  0.00    +0.000 HD
ENDBRANCH   6   9
BRANCH   1  14
ATOM     14  C   UNL     1      46.881   4.751  13.979  0.00  0.00    +0.000 C 
BRANCH  14  18
ATOM     15  C   UNL     1      48.482   4.412  17.947  0.00  0.00    +0.000 A 
ATOM     16  C   UNL     1      48.798   5.529  17.173  0.00  0.00    +0.000 A 
ATOM     17  C   UNL     1      48.290   5.644  15.877  0.00  0.00    +0.000 A 
ATOM     18  C   UNL     1      47.458   4.642  15.383  0.00  0.00    +0.000 A 
ATOM     19  N   UNL     1      47.157   3.531  16.105  0.00  0.00    +0.000 NA
ATOM     20  C   UNL     1      47.674   3.444  17.357  0.00  0.00    +0.000 A 
BRANCH  15  21
ATOM     21  C   UNL     1      48.961   4.273  19.363  0.00  0.00    +0.000 C 
BRANCH  21  22
ATOM     22  N   UNL     1      48.330   3.156  20.051  0.00  0.00    +0.000 NA
ATOM     23  H   UNL     1      49.025   2.680  20.625  0.00  0.00    +0.000 HD
ATOM     24  H   UNL     1      48.019   2.471  19.361  0.00  0.00    +0.000 HD
ENDBRANCH  21  22
ENDBRANCH  15  21
ENDBRANCH  14  18
ENDBRANCH   1  14
TORSDOF 5
ENDMDL
MODEL 5
REMARK VINA RESULT:    -6.405      4.014      5.750
REMARK INTER + INTRA:          -8.565
REMARK INTER:                  -8.284
REMARK INTRA:                  -0.281
REMARK UNBOUND:                -0.475
REMARK  Name = 
REMARK  5 active torsions:
REMARK  status: ('A' for Active; 'I' for Inactive)
REMARK    1  A    between atoms: N_1  and  C_2
REMARK    2  A    between atoms: C_2  and  C_3
REMARK    3  A    between atoms: C_6  and  C_7
REMARK    4  A    between atoms: C_7  and  N_8
REMARK    5  A    between atoms: C_13  and  C_14
REMARK                            x       y       z     vdW  Elec       q    Type
REMARK                         _______ _______ _______ _____ _____    ______ ____
ROOT
ATOM      1  N   UNL     1      47.223   3.240  14.989  0.00  0.00    +0.000 N 
ATOM      2  C   UNL     1      48.140   3.168  16.020  0.00  0.00    +0.000 A 
ATOM      3  N   UNL     1      49.036   2.176  15.916  0.00  0.00    +0.000 NA
ATOM      4  C   UNL     1      49.897   1.994  16.934  0.00  0.00    +0.000 A 
ATOM      5  C   UNL     1      49.903   2.767  18.059  0.00  0.00    +0.000 A 
ATOM      6  C   UNL     1      48.959   3.768  18.067  0.00  0.00    +0.000 A 
ATOM      7  N   UNL     1      48.070   4.001  17.066  0.00  0.00    +0.000 NA
ATOM      8  H   UNL     1      47.618   2.726  14.206  0.00  0.00    +0.000 HD
ENDROOT
BRANCH   6   9
ATOM      9  C   UNL     1      48.878   4.664  19.264  0.00  0.00    +0.000 C 
ATOM     10  N   UNL     1      48.560   4.050  20.444  0.00  0.00    +0.000 N 
ATOM     11  O   UNL     1      49.086   5.868  19.201  0.00  0.00    +0.000 OA
ATOM     12  H   UNL     1      48.423   3.046  20.473  0.00  0.00    +0.000 HD
ATOM     13  H   UNL     1      48.525   4.598  21.292  0.00  0.00    +0.000 HD
ENDBRANCH   6   9
BRANCH   1  14
ATOM     14  C   UNL     1      46.763   4.567  14.626  0.00  0.00    +0.000 C 
BRANCH  14  18
ATOM     15  C   UNL     1      44.944   4.412  10.741  0.00  0.00    +0.000 A 
ATOM     16  C   UNL     1      45.550   5.594  11.168  0.00  0.00    +0.000 A 
ATOM     17  C   UNL     1      46.136   5.658  12.434  0.00  0.00    +0.000 A 
ATOM     18  C   UNL     1      46.119   4.527  13.248  0.00  0.00    +0.000 A 
ATOM     19  N   UNL     1      45.512   3.373  12.866  0.00  0.00    +0.000 NA
ATOM     20  C   UNL     1      44.943   3.345  11.634  0.00  0.00    +0.000 A 
BRANCH  15  21
ATOM     21  C   UNL     1      44.351   4.282   9.368  0.00  0.00    +0.000 C 
BRANCH  21  22
ATOM     22  N   UNL     1      45.292   4.658   8.323  0.00  0.00    +0.000 NA
ATOM     23  H   UNL     1      45.882   5.417   8.660  0.00  0.00    +0.000 HD
ATOM     24  H   UNL     1      44.774   5.035   7.527  0.00  0.00    +0.000 HD
ENDBRANCH  21  22
ENDBRANCH  15  21
ENDBRANCH  14  18
ENDBRANCH   1  14
TORSDOF 5
ENDMDL
MODEL 6
REMARK VINA RESULT:    -6.246      4.211      7.503
REMARK INTER + INTRA:          -8.364
REMARK INTER:                  -8.018
REMARK INTRA:                  -0.346
REMARK UNBOUND:                -0.475
REMARK  Name = 
REMARK  5 active torsions:
REMARK  status: ('A' for Active; 'I' for Inactive)
REMARK    1  A    between atoms: N_1  and  C_2
REMARK    2  A    between atoms: C_2  and  C_3
REMARK    3  A    between atoms: C_6  and  C_7
REMARK    4  A    between atoms: C_7  and  N_8
REMARK    5  A    between atoms: C_13  and  C_14
REMARK                            x       y       z     vdW  Elec       q    Type
REMARK                         _______ _______ _______ _____ _____    ______ ____
ROOT
ATOM      1  N   UNL     1      47.210   4.984  15.594  0.00  0.00    +0.000 N 
ATOM      2  C   UNL     1      46.773   5.074  14.287  0.00  0.00    +0.000 A 
ATOM      3  N   UNL     1      47.417   5.978  13.534  0.00  0.00    +0.000 NA
ATOM      4  C   UNL     1      46.976   6.181  12.278  0.00  0.00    +0.000 A 
ATOM      5  C   UNL     1      45.915   5.515  11.739  0.00  0.00    +0.000 A 
ATOM      6  C   UNL     1      45.330   4.598  12.581  0.00  0.00    +0.000 A 
ATOM      7  N   UNL     1      45.736   4.348  13.853  0.00  0.00    +0.000 NA
ATOM      8  H   UNL     1      48.141   5.391  15.624  0.00  0.00    +0.000 HD
ENDROOT
BRANCH   6   9
ATOM      9  C   UNL     1      44.149   3.823  12.085  0.00  0.00    +0.000 C 
ATOM     10  N   UNL     1      44.033   2.548  12.565  0.00  0.00    +0.000 N 
ATOM     11  O   UNL     1      43.333   4.293  11.303  0.00  0.00    +0.000 OA
ATOM     12  H   UNL     1      44.706   2.195  13.235  0.00  0.00    +0.000 HD
ATOM     13  H   UNL     1      43.237   1.988  12.294  0.00  0.00    +0.000 HD
ENDBRANCH   6   9
BRANCH   1  14
ATOM     14  C   UNL     1      47.144   3.670  16.208  0.00  0.00    +0.000 C 
BRANCH  14  18
ATOM     15  C   UNL     1      51.066   2.391  17.392  0.00  0.00    +0.000 A 
ATOM     16  C   UNL     1      50.595   3.636  17.810  0.00  0.00    +0.000 A 
ATOM     17  C   UNL     1      49.325   4.066  17.422  0.00  0.00    +0.000 A 
ATOM     18  C   UNL     1      48.537   3.231  16.632  0.00  0.00    +0.000 A 
ATOM     19  N   UNL     1      48.983   2.026  16.189  0.00  0.00    +0.000 NA
ATOM     20  C   UNL     1      50.226   1.641  16.575  0.00  0.00    +0.000 A 
BRANCH  15  21
ATOM     21  C   UNL     1      52.403   1.866  17.829  0.00  0.00    +0.000 C 
BRANCH  21  22
ATOM     22  N   UNL     1      52.628   0.496  17.391  0.00  0.00    +0.000 NA
ATOM     23  H   UNL     1      53.578   0.411  17.032  0.00  0.00    +0.000 HD
ATOM     24  H   UNL     1      52.010   0.292  16.603  0.00  0.00    +0.000 HD
ENDBRANCH  21  22
ENDBRANCH  15  21
ENDBRANCH  14  18
ENDBRANCH   1  14
TORSDOF 5
ENDMDL
MODEL 7
REMARK VINA RESULT:    -6.119      4.067      8.089
REMARK INTER + INTRA:          -8.204
REMARK INTER:                  -7.922
REMARK INTRA:                  -0.282
REMARK UNBOUND:                -0.475
REMARK  Name = 
REMARK  5 active torsions:
REMARK  status: ('A' for Active; 'I' for Inactive)
REMARK    1  A    between atoms: N_1  and  C_2
REMARK    2  A    between atoms: C_2  and  C_3
REMARK    3  A    between atoms: C_6  and  C_7
REMARK    4  A    between atoms: C_7  and  N_8
REMARK    5  A    between atoms: C_13  and  C_14
REMARK                            x       y       z     vdW  Elec       q    Type
REMARK                         _______ _______ _______ _____ _____    ______ ____
ROOT
ATOM      1  N   UNL     1      46.624   5.179  14.286  0.00  0.00    +0.000 N 
ATOM      2  C   UNL     1      46.139   5.103  12.994  0.00  0.00    +0.000 A 
ATOM      3  N   UNL     1      46.387   6.176  12.230  0.00  0.00    +0.000 NA
ATOM      4  C   UNL     1      45.861   6.205  10.992  0.00  0.00    +0.000 A 
ATOM      5  C   UNL     1      45.094   5.199  10.480  0.00  0.00    +0.000 A 
ATOM      6  C   UNL     1      44.909   4.134  11.330  0.00  0.00    +0.000 A 
ATOM      7  N   UNL     1      45.421   4.050  12.587  0.00  0.00    +0.000 NA
ATOM      8  H   UNL     1      47.345   5.895  14.290  0.00  0.00    +0.000 HD
ENDROOT
BRANCH   6   9
ATOM      9  C   UNL     1      44.072   2.983  10.864  0.00  0.00    +0.000 C 
ATOM     10  N   UNL     1      44.600   2.242   9.843  0.00  0.00    +0.000 N 
ATOM     11  O   UNL     1      42.987   2.713  11.362  0.00  0.00    +0.000 OA
ATOM     12  H   UNL     1      45.515   2.469   9.471  0.00  0.00    +0.000 HD
ATOM     13  H   UNL     1      44.097   1.431   9.510  0.00  0.00    +0.000 HD
ENDBRANCH   6   9
BRANCH   1  14
ATOM     14  C   UNL     1      47.057   3.932  14.887  0.00  0.00    +0.000 C 
BRANCH  14  18
ATOM     15  C   UNL     1      49.074   4.758  18.585  0.00  0.00    +0.000 A 
ATOM     16  C   UNL     1      48.161   3.705  18.522  0.00  0.00    +0.000 A 
ATOM     17  C   UNL     1      47.492   3.434  17.327  0.00  0.00    +0.000 A 
ATOM     18  C   UNL     1      47.762   4.215  16.205  0.00  0.00    +0.000 A 
ATOM     19  N   UNL     1      48.626   5.263  16.247  0.00  0.00    +0.000 NA
ATOM     20  C   UNL     1      49.253   5.508  17.426  0.00  0.00    +0.000 A 
BRANCH  15  21
ATOM     21  C   UNL     1      49.855   5.051  19.833  0.00  0.00    +0.000 C 
BRANCH  21  22
ATOM     22  N   UNL     1      49.330   4.343  20.991  0.00  0.00    +0.000 NA
ATOM     23  H   UNL     1      48.811   3.525  20.677  0.00  0.00    +0.000 HD
ATOM     24  H   UNL     1      48.654   4.940  21.469  0.00  0.00    +0.000 HD
ENDBRANCH  21  22
ENDBRANCH  15  21
ENDBRANCH  14  18
ENDBRANCH   1  14
TORSDOF 5
ENDMDL
MODEL 8
REMARK VINA RESULT:    -5.991      3.960      7.402
REMARK INTER + INTRA:          -8.042
REMARK INTER:                  -7.734
REMARK INTRA:                  -0.308
REMARK UNBOUND:                -0.475
REMARK  Name = 
REMARK  5 active torsions:
REMARK  status: ('A' for Active; 'I' for Inactive)
REMARK    1  A    between atoms: N_1  and  C_2
REMARK    2  A    between atoms: C_2  and  C_3
REMARK    3  A    between atoms: C_6  and  C_7
REMARK    4  A    between atoms: C_7  and  N_8
REMARK    5  A    between atoms: C_13  and  C_14
REMARK                            x       y       z     vdW  Elec       q    Type
REMARK                         _______ _______ _______ _____ _____    ______ ____
ROOT
ATOM      1  N   UNL     1      47.116   3.541  14.599  0.00  0.00    +0.000 N 
ATOM      2  C   UNL     1      46.271   4.148  13.691  0.00  0.00    +0.000 A 
ATOM      3  N   UNL     1      45.641   3.312  12.854  0.00  0.00    +0.000 NA
ATOM      4  C   UNL     1      44.876   3.846  11.884  0.00  0.00    +0.000 A 
ATOM      5  C   UNL     1      44.710   5.190  11.715  0.00  0.00    +0.000 A 
ATOM      6  C   UNL     1      45.382   5.967  12.630  0.00  0.00    +0.000 A 
ATOM      7  N   UNL     1      46.162   5.481  13.632  0.00  0.00    +0.000 NA
ATOM      8  H   UNL     1      46.839   2.565  14.656  0.00  0.00    +0.000 HD
ENDROOT
BRANCH   6   9
ATOM      9  C   UNL     1      45.273   7.456  12.522  0.00  0.00    +0.000 C 
ATOM     10  N   UNL     1      44.383   7.919  11.592  0.00  0.00    +0.000 N 
ATOM     11  O   UNL     1      45.929   8.218  13.220  0.00  0.00    +0.000 OA
ATOM     12  H   UNL     1      43.830   7.266  11.050  0.00  0.00    +0.000 HD
ATOM     13  H   UNL     1      44.240   8.915  11.498  0.00  0.00    +0.000 HD
ENDBRANCH   6   9
BRANCH   1  14
ATOM     14  C   UNL     1      47.230   4.176  15.899  0.00  0.00    +0.000 C 
BRANCH  14  18
ATOM     15  C   UNL     1      51.048   3.269  17.638  0.00  0.00    +0.000 A 
ATOM     16  C   UNL     1      50.181   2.228  17.306  0.00  0.00    +0.000 A 
ATOM     17  C   UNL     1      48.933   2.513  16.749  0.00  0.00    +0.000 A 
ATOM     18  C   UNL     1      48.579   3.840  16.518  0.00  0.00    +0.000 A 
ATOM     19  N   UNL     1      49.394   4.874  16.857  0.00  0.00    +0.000 NA
ATOM     20  C   UNL     1      50.597   4.565  17.406  0.00  0.00    +0.000 A 
BRANCH  15  21
ATOM     21  C   UNL     1      52.421   3.007  18.188  0.00  0.00    +0.000 C 
BRANCH  21  22
ATOM     22  N   UNL     1      52.662   1.590  18.416  0.00  0.00    +0.000 NA
ATOM     23  H   UNL     1      52.146   1.291  19.242  0.00  0.00    +0.000 HD
ATOM     24  H   UNL     1      53.650   1.451  18.635  0.00  0.00    +0.000 HD
ENDBRANCH  21  22
ENDBRANCH  15  21
ENDBRANCH  14  18
ENDBRANCH   1  14
TORSDOF 5
ENDMDL
MODEL 9
REMARK VINA RESULT:    -5.919      3.017      4.641
REMARK INTER + INTRA:          -7.951
REMARK INTER:                  -7.562
REMARK INTRA:                  -0.388
REMARK UNBOUND:                -0.475
REMARK  Name = 
REMARK  5 active torsions:
REMARK  status: ('A' for Active; 'I' for Inactive)
REMARK    1  A    between atoms: N_1  and  C_2
REMARK    2  A    between atoms: C_2  and  C_3
REMARK    3  A    between atoms: C_6  and  C_7
REMARK    4  A    between atoms: C_7  and  N_8
REMARK    5  A    between atoms: C_13  and  C_14
REMARK                            x       y       z     vdW  Elec       q    Type
REMARK                         _______ _______ _______ _____ _____    ______ ____
ROOT
ATOM      1  N   UNL     1      47.039   6.310  13.116  0.00  0.00    +0.000 N 
ATOM      2  C   UNL     1      47.652   6.034  14.323  0.00  0.00    +0.000 A 
ATOM      3  N   UNL     1      48.655   6.861  14.653  0.00  0.00    +0.000 NA
ATOM      4  C   UNL     1      49.354   6.589  15.770  0.00  0.00    +0.000 A 
ATOM      5  C   UNL     1      49.092   5.522  16.579  0.00  0.00    +0.000 A 
ATOM      6  C   UNL     1      48.037   4.741  16.167  0.00  0.00    +0.000 A 
ATOM      7  N   UNL     1      47.293   4.971  15.053  0.00  0.00    +0.000 NA
ATOM      8  H   UNL     1      47.263   7.274  12.885  0.00  0.00    +0.000 HD
ENDROOT
BRANCH   6   9
ATOM      9  C   UNL     1      47.677   3.538  16.982  0.00  0.00    +0.000 C 
ATOM     10  N   UNL     1      48.727   2.758  17.383  0.00  0.00    +0.000 N 
ATOM     11  O   UNL     1      46.522   3.264  17.279  0.00  0.00    +0.000 OA
ATOM     12  H   UNL     1      49.676   3.025  17.150  0.00  0.00    +0.000 HD
ATOM     13  H   UNL     1      48.549   1.952  17.966  0.00  0.00    +0.000 HD
ENDBRANCH   6   9
BRANCH   1  14
ATOM     14  C   UNL     1      45.620   6.019  13.032  0.00  0.00    +0.000 C 
BRANCH  14  18
ATOM     15  C   UNL     1      44.907   3.169   9.902  0.00  0.00    +0.000 A 
ATOM     16  C   UNL     1      45.215   4.489   9.571  0.00  0.00    +0.000 A 
ATOM     17  C   UNL     1      45.439   5.426  10.582  0.00  0.00    +0.000 A 
ATOM     18  C   UNL     1      45.367   5.020  11.912  0.00  0.00    +0.000 A 
ATOM     19  N   UNL     1      45.042   3.748  12.262  0.00  0.00    +0.000 NA
ATOM     20  C   UNL     1      44.820   2.863  11.257  0.00  0.00    +0.000 A 
BRANCH  15  21
ATOM     21  C   UNL     1      44.713   2.117   8.849  0.00  0.00    +0.000 C 
BRANCH  21  22
ATOM     22  N   UNL     1      45.952   1.424   8.527  0.00  0.00    +0.000 NA
ATOM     23  H   UNL     1      46.701   2.107   8.425  0.00  0.00    +0.000 HD
ATOM     24  H   UNL     1      45.855   0.974   7.615  0.00  0.00    +0.000 HD
ENDBRANCH  21  22
ENDBRANCH  15  21
ENDBRANCH  14  18
ENDBRANCH   1  14
TORSDOF 5
ENDMDL
