MODEL 1
REMARK VINA RESULT:    -6.757      0.000      0.000
REMARK INTER + INTRA:          -9.666
REMARK INTER:                  -9.127
REMARK INTRA:                  -0.540
REMARK UNBOUND:                -0.540
REMARK  Name = 
REMARK  7 active torsions:
REMARK  status: ('A' for Active; 'I' for Inactive)
REMARK    1  A    between atoms: N_1  and  C_2
REMARK    2  A    between atoms: C_2  and  C_3
REMARK    3  A    between atoms: C_6  and  C_7
REMARK    4  A    between atoms: C_7  and  C_8
REMARK    5  A    between atoms: C_8  and  N_9
REMARK    6  A    between atoms: C_12  and  C_13
REMARK    7  A    between atoms: C_13  and  O_14
REMARK                            x       y       z     vdW  Elec       q    Type
REMARK                         _______ _______ _______ _____ _____    ______ ____
ROOT
ATOM      1  C   UNL     1      43.903   4.400   9.634  0.00  0.00    +0.000 C 
ENDROOT
BRANCH   1   5
ATOM      2  C   UNL     1      46.837   2.298   7.444  0.00  0.00    +0.000 A 
ATOM      3  C   UNL     1      46.007   1.685   8.358  0.00  0.00    +0.000 A 
ATOM      4  N   UNL     1      45.067   2.335   9.073  0.00  0.00    +0.000 NA
ATOM      5  C   UNL     1      44.949   3.658   8.849  0.00  0.00    +0.000 A 
ATOM      6  N   UNL     1      45.709   4.357   7.986  0.00  0.00    +0.000 NA
ATOM      7  C   UNL     1      46.636   3.655   7.302  0.00  0.00    +0.000 A 
BRANCH   2   8
ATOM      8  C   UNL     1      47.901   1.558   6.702  0.00  0.00    +0.000 C 
BRANCH   8   9
ATOM      9  N   UNL     1      48.331   2.270   5.505  0.00  0.00    +0.000 NA
ATOM     10  H   UNL     1      49.246   2.688   5.674  0.00  0.00    +0.000 HD
ATOM     11  H   UNL     1      47.695   3.046   5.325  0.00  0.00    +0.000 HD
ENDBRANCH   8   9
ENDBRANCH   2   8
ENDBRANCH   1   5
BRANCH   1  12
ATOM     12  C   UNL     1      43.665   3.723  10.988  0.00  0.00    +0.000 C 
BRANCH  12  13
ATOM     13  N   UNL     1      44.230   4.468  12.142  0.00  0.00    +0.000 NA
ATOM     14  C   UNL     1      45.482   3.849  12.614  0.00  0.00    +0.000 C 
ATOM     15  C   UNL     1      46.117   4.632  13.764  0.00  0.00    +0.000 C 
ATOM     16  C   UNL     1      46.366   6.098  13.391  0.00  0.00    +0.000 C 
ATOM     17  C   UNL     1      45.047   6.702  12.899  0.00  0.00    +0.000 C 
ATOM     18  C   UNL     1      44.422   5.880  11.768  0.00  0.00    +0.000 C 
BRANCH  16  19
ATOM     19  C   UNL     1      47.484   6.256  12.351  0.00  0.00    +0.000 C 
BRANCH  19  20
ATOM     20  O   UNL     1      48.763   6.244  12.973  0.00  0.00    +0.000 OA
ATOM     21  H   UNL     1      48.667   5.800  13.830  0.00  0.00    +0.000 HD
ENDBRANCH  19  20
ENDBRANCH  16  19
ENDBRANCH  12  13
ENDBRANCH   1  12
TORSDOF 7
ENDMDL
MODEL 2
REMARK VINA RESULT:    -6.500      1.246      2.066
REMARK INTER + INTRA:          -9.319
REMARK INTER:                  -9.052
REMARK INTRA:                  -0.268
REMARK UNBOUND:                -0.540
REMARK  Name = 
REMARK  7 active torsions:
REMARK  status: ('A' for Active; 'I' for Inactive)
REMARK    1  A    between atoms: N_1  and  C_2
REMARK    2  A    between atoms: C_2  and  C_3
REMARK    3  A    between atoms: C_6  and  C_7
REMARK    4  A    between atoms: C_7  and  C_8
REMARK    5  A    between atoms: C_8  and  N_9
REMARK    6  A    between atoms: C_12  and  C_13
REMARK    7  A    between atoms: C_13  and  O_14
REMARK                            x       y       z     vdW  Elec       q    Type
REMARK                         _______ _______ _______ _____ _____    ______ ____
ROOT
ATOM      1  C   UNL     1      43.979   4.492   9.788  0.00  0.00    +0.000 C 
ENDROOT
BRANCH   1   5
ATOM      2  C   UNL     1      46.649   2.189   7.466  0.00  0.00    +0.000 A 
ATOM      3  C   UNL     1      46.437   3.533   7.246  0.00  0.00    +0.000 A 
ATOM      4  N   UNL     1      45.587   4.289   7.969  0.00  0.00    +0.000 NA
ATOM      5  C   UNL     1      44.930   3.665   8.967  0.00  0.00    +0.000 A 
ATOM      6  N   UNL     1      45.055   2.359   9.265  0.00  0.00    +0.000 NA
ATOM      7  C   UNL     1      45.916   1.654   8.504  0.00  0.00    +0.000 A 
BRANCH   2   8
ATOM      8  C   UNL     1      47.563   1.369   6.615  0.00  0.00    +0.000 C 
BRANCH   8   9
ATOM      9  N   UNL     1      48.533   2.192   5.904  0.00  0.00    +0.000 NA
ATOM     10  H   UNL     1      48.148   3.127   5.772  0.00  0.00    +0.000 HD
ATOM     11  H   UNL     1      48.680   1.812   4.969  0.00  0.00    +0.000 HD
ENDBRANCH   8   9
ENDBRANCH   2   8
ENDBRANCH   1   5
BRANCH   1  12
ATOM     12  C   UNL     1      44.307   4.365  11.280  0.00  0.00    +0.000 C 
BRANCH  12  13
ATOM     13  N   UNL     1      45.616   4.953  11.662  0.00  0.00    +0.000 NA
ATOM     14  C   UNL     1      45.874   6.204  10.927  0.00  0.00    +0.000 C 
ATOM     15  C   UNL     1      47.189   6.862  11.347  0.00  0.00    +0.000 C 
ATOM     16  C   UNL     1      47.245   7.121  12.856  0.00  0.00    +0.000 C 
ATOM     17  C   UNL     1      46.965   5.802  13.583  0.00  0.00    +0.000 C 
ATOM     18  C   UNL     1      45.657   5.154  13.120  0.00  0.00    +0.000 C 
BRANCH  16  19
ATOM     19  C   UNL     1      46.275   8.228  13.297  0.00  0.00    +0.000 C 
BRANCH  19  20
ATOM     20  O   UNL     1      46.797   8.947  14.408  0.00  0.00    +0.000 OA
ATOM     21  H   UNL     1      47.697   9.227  14.178  0.00  0.00    +0.000 HD
ENDBRANCH  19  20
ENDBRANCH  16  19
ENDBRANCH  12  13
ENDBRANCH   1  12
TORSDOF 7
ENDMDL
MODEL 3
REMARK VINA RESULT:    -5.903      3.818      6.625
REMARK INTER + INTRA:          -8.513
REMARK INTER:                  -7.984
REMARK INTRA:                  -0.529
REMARK UNBOUND:                -0.540
REMARK  Name = 
REMARK  7 active torsions:
REMARK  status: ('A' for Active; 'I' for Inactive)
REMARK    1  A    between atoms: N_1  and  C_2
REMARK    2  A    between atoms: C_2  and  C_3
REMARK    3  A    between atoms: C_6  and  C_7
REMARK    4  A    between atoms: C_7  and  C_8
REMARK    5  A    between atoms: C_8  and  N_9
REMARK    6  A    between atoms: C_12  and  C_13
REMARK    7  A    between atoms: C_13  and  O_14
REMARK                            x       y       z     vdW  Elec       q    Type
REMARK                         _______ _______ _______ _____ _____    ______ ____
ROOT
ATOM      1  C   UNL     1      47.433   6.319  12.458  0.00  0.00    +0.000 C 
ENDROOT
BRANCH   1   5
ATOM      2  C   UNL     1      47.735   4.395  16.204  0.00  0.00    +0.000 A 
ATOM      3  C   UNL     1      47.041   3.856  15.141  0.00  0.00    +0.000 A 
ATOM      4  N   UNL     1      46.925   4.452  13.938  0.00  0.00    +0.000 NA
ATOM      5  C   UNL     1      47.547   5.639  13.794  0.00  0.00    +0.000 A 
ATOM      6  N   UNL     1      48.245   6.259  14.764  0.00  0.00    +0.000 NA
ATOM      7  C   UNL     1      48.322   5.616  15.947  0.00  0.00    +0.000 A 
BRANCH   2   8
ATOM      8  C   UNL     1      47.804   3.730  17.539  0.00  0.00    +0.000 C 
BRANCH   8   9
ATOM      9  N   UNL     1      46.660   2.859  17.777  0.00  0.00    +0.000 NA
ATOM     10  H   UNL     1      46.965   2.040  18.302  0.00  0.00    +0.000 HD
ATOM     11  H   UNL     1      46.309   2.509  16.886  0.00  0.00    +0.000 HD
ENDBRANCH   8   9
ENDBRANCH   2   8
ENDBRANCH   1   5
BRANCH   1  12
ATOM     12  C   UNL     1      46.154   7.160  12.388  0.00  0.00    +0.000 C 
BRANCH  12  13
ATOM     13  N   UNL     1      45.049   6.515  11.635  0.00  0.00    +0.000 NA
ATOM     14  C   UNL     1      45.544   5.390  10.821  0.00  0.00    +0.000 C 
ATOM     15  C   UNL     1      44.416   4.670  10.082  0.00  0.00    +0.000 C 
ATOM     16  C   UNL     1      43.323   4.181  11.039  0.00  0.00    +0.000 C 
ATOM     17  C   UNL     1      42.841   5.374  11.870  0.00  0.00    +0.000 C 
ATOM     18  C   UNL     1      43.996   6.091  12.574  0.00  0.00    +0.000 C 
BRANCH  16  19
ATOM     19  C   UNL     1      43.799   3.024  11.930  0.00  0.00    +0.000 C 
BRANCH  19  20
ATOM     20  O   UNL     1      43.047   1.844  11.675  0.00  0.00    +0.000 OA
ATOM     21  H   UNL     1      42.253   2.104  11.182  0.00  0.00    +0.000 HD
ENDBRANCH  19  20
ENDBRANCH  16  19
ENDBRANCH  12  13
ENDBRANCH   1  12
TORSDOF 7
ENDMDL
MODEL 4
REMARK VINA RESULT:    -5.829      4.200      7.803
REMARK INTER + INTRA:          -8.413
REMARK INTER:                  -7.991
REMARK INTRA:                  -0.422
REMARK UNBOUND:                -0.540
REMARK  Name = 
REMARK  7 active torsions:
REMARK  status: ('A' for Active; 'I' for Inactive)
REMARK    1  A    between atoms: N_1  and  C_2
REMARK    2  A    between atoms: C_2  and  C_3
REMARK    3  A    between atoms: C_6  and  C_7
REMARK    4  A    between atoms: C_7  and  C_8
REMARK    5  A    between atoms: C_8  and  N_9
REMARK    6  A    between atoms: C_12  and  C_13
REMARK    7  A    between atoms: C_13  and  O_14
REMARK                            x       y       z     vdW  Elec       q    Type
REMARK                         _______ _______ _______ _____ _____    ______ ____
ROOT
ATOM      1  C   UNL     1      46.837   4.338  14.172  0.00  0.00    +0.000 C 
ENDROOT
BRANCH   1   5
ATOM      2  C   UNL     1      48.300   4.601  18.124  0.00  0.00    +0.000 A 
ATOM      3  C   UNL     1      48.802   5.362  17.089  0.00  0.00    +0.000 A 
ATOM      4  N   UNL     1      48.357   5.292  15.819  0.00  0.00    +0.000 NA
ATOM      5  C   UNL     1      47.351   4.427  15.582  0.00  0.00    +0.000 A 
ATOM      6  N   UNL     1      46.792   3.633  16.513  0.00  0.00    +0.000 NA
ATOM      7  C   UNL     1      47.282   3.743  17.764  0.00  0.00    +0.000 A 
BRANCH   2   8
ATOM      8  C   UNL     1      48.849   4.667  19.511  0.00  0.00    +0.000 C 
BRANCH   8   9
ATOM      9  N   UNL     1      48.334   3.597  20.355  0.00  0.00    +0.000 NA
ATOM     10  H   UNL     1      47.759   2.971  19.792  0.00  0.00    +0.000 HD
ATOM     11  H   UNL     1      47.713   3.991  21.062  0.00  0.00    +0.000 HD
ENDBRANCH   8   9
ENDBRANCH   2   8
ENDBRANCH   1   5
BRANCH   1  12
ATOM     12  C   UNL     1      46.488   5.731  13.637  0.00  0.00    +0.000 C 
BRANCH  12  13
ATOM     13  N   UNL     1      45.307   5.752  12.737  0.00  0.00    +0.000 NA
ATOM     14  C   UNL     1      45.679   5.382  11.359  0.00  0.00    +0.000 C 
ATOM     15  C   UNL     1      44.469   5.337  10.425  0.00  0.00    +0.000 C 
ATOM     16  C   UNL     1      43.378   4.394  10.943  0.00  0.00    +0.000 C 
ATOM     17  C   UNL     1      43.025   4.805  12.376  0.00  0.00    +0.000 C 
ATOM     18  C   UNL     1      44.260   4.869  13.279  0.00  0.00    +0.000 C 
BRANCH  16  19
ATOM     19  C   UNL     1      43.794   2.917  10.864  0.00  0.00    +0.000 C 
BRANCH  19  20
ATOM     20  O   UNL     1      42.920   2.102  11.635  0.00  0.00    +0.000 OA
ATOM     21  H   UNL     1      42.011   2.322  11.377  0.00  0.00    +0.000 HD
ENDBRANCH  19  20
ENDBRANCH  16  19
ENDBRANCH  12  13
ENDBRANCH   1  12
TORSDOF 7
ENDMDL
MODEL 5
REMARK VINA RESULT:    -5.752      4.075      7.536
REMARK INTER + INTRA:          -8.309
REMARK INTER:                  -7.905
REMARK INTRA:                  -0.404
REMARK UNBOUND:                -0.540
REMARK  Name = 
REMARK  7 active torsions:
REMARK  status: ('A' for Active; 'I' for Inactive)
REMARK    1  A    between atoms: N_1  and  C_2
REMARK    2  A    between atoms: C_2  and  C_3
REMARK    3  A    between atoms: C_6  and  C_7
REMARK    4  A    between atoms: C_7  and  C_8
REMARK    5  A    between atoms: C_8  and  N_9
REMARK    6  A    between atoms: C_12  and  C_13
REMARK    7  A    between atoms: C_13  and  O_14
REMARK                            x       y       z     vdW  Elec       q    Type
REMARK                         _______ _______ _______ _____ _____    ______ ____
ROOT
ATOM      1  C   UNL     1      46.878   4.951  14.062  0.00  0.00    +0.000 C 
ENDROOT
BRANCH   1   5
ATOM      2  C   UNL     1      48.555   4.408  17.899  0.00  0.00    +0.000 A 
ATOM      3  C   UNL     1      47.545   3.610  17.406  0.00  0.00    +0.000 A 
ATOM      4  N   UNL     1      46.989   3.766  16.188  0.00  0.00    +0.000 NA
ATOM      5  C   UNL     1      47.481   4.763  15.427  0.00  0.00    +0.000 A 
ATOM      6  N   UNL     1      48.460   5.604  15.808  0.00  0.00    +0.000 NA
ATOM      7  C   UNL     1      48.974   5.402  17.039  0.00  0.00    +0.000 A 
BRANCH   2   8
ATOM      8  C   UNL     1      49.116   4.239  19.272  0.00  0.00    +0.000 C 
BRANCH   8   9
ATOM      9  N   UNL     1      48.323   3.320  20.078  0.00  0.00    +0.000 NA
ATOM     10  H   UNL     1      48.003   2.549  19.493  0.00  0.00    +0.000 HD
ATOM     11  H   UNL     1      47.481   3.795  20.405  0.00  0.00    +0.000 HD
ENDBRANCH   8   9
ENDBRANCH   2   8
ENDBRANCH   1   5
BRANCH   1  12
ATOM     12  C   UNL     1      46.443   3.604  13.475  0.00  0.00    +0.000 C 
BRANCH  12  13
ATOM     13  N   UNL     1      45.632   3.719  12.236  0.00  0.00    +0.000 NA
ATOM     14  C   UNL     1      44.252   3.250  12.457  0.00  0.00    +0.000 C 
ATOM     15  C   UNL     1      43.378   3.416  11.214  0.00  0.00    +0.000 C 
ATOM     16  C   UNL     1      43.364   4.864  10.711  0.00  0.00    +0.000 C 
ATOM     17  C   UNL     1      44.812   5.316  10.501  0.00  0.00    +0.000 C 
ATOM     18  C   UNL     1      45.668   5.111  11.754  0.00  0.00    +0.000 C 
BRANCH  16  19
ATOM     19  C   UNL     1      42.608   5.806  11.658  0.00  0.00    +0.000 C 
BRANCH  19  20
ATOM     20  O   UNL     1      42.604   7.137  11.156  0.00  0.00    +0.000 OA
ATOM     21  H   UNL     1      43.188   7.158  10.382  0.00  0.00    +0.000 HD
ENDBRANCH  19  20
ENDBRANCH  16  19
ENDBRANCH  12  13
ENDBRANCH   1  12
TORSDOF 7
ENDMDL
MODEL 6
REMARK VINA RESULT:    -5.263      4.453      7.347
REMARK INTER + INTRA:          -7.649
REMARK INTER:                  -7.375
REMARK INTRA:                  -0.274
REMARK UNBOUND:                -0.540
REMARK  Name = 
REMARK  7 active torsions:
REMARK  status: ('A' for Active; 'I' for Inactive)
REMARK    1  A    between atoms: N_1  and  C_2
REMARK    2  A    between atoms: C_2  and  C_3
REMARK    3  A    between atoms: C_6  and  C_7
REMARK    4  A    between atoms: C_7  and  C_8
REMARK    5  A    between atoms: C_8  and  N_9
REMARK    6  A    between atoms: C_12  and  C_13
REMARK    7  A    between atoms: C_13  and  O_14
REMARK                            x       y       z     vdW  Elec       q    Type
REMARK                         _______ _______ _______ _____ _____    ______ ____
ROOT
ATOM      1  C   UNL     1      46.892   4.510  15.206  0.00  0.00    +0.000 C 
ENDROOT
BRANCH   1   5
ATOM      2  C   UNL     1      50.192   2.795  17.206  0.00  0.00    +0.000 A 
ATOM      3  C   UNL     1      49.893   4.138  17.276  0.00  0.00    +0.000 A 
ATOM      4  N   UNL     1      48.850   4.711  16.643  0.00  0.00    +0.000 NA
ATOM      5  C   UNL     1      48.065   3.891  15.917  0.00  0.00    +0.000 A 
ATOM      6  N   UNL     1      48.266   2.569  15.774  0.00  0.00    +0.000 NA
ATOM      7  C   UNL     1      49.328   2.053  16.427  0.00  0.00    +0.000 A 
BRANCH   2   8
ATOM      8  C   UNL     1      51.383   2.200  17.881  0.00  0.00    +0.000 C 
BRANCH   8   9
ATOM      9  N   UNL     1      51.425   0.750  17.741  0.00  0.00    +0.000 NA
ATOM     10  H   UNL     1      52.319   0.477  17.335  0.00  0.00    +0.000 HD
ATOM     11  H   UNL     1      50.710   0.452  17.077  0.00  0.00    +0.000 HD
ENDBRANCH   8   9
ENDBRANCH   2   8
ENDBRANCH   1   5
BRANCH   1  12
ATOM     12  C   UNL     1      46.933   4.178  13.710  0.00  0.00    +0.000 C 
BRANCH  12  13
ATOM     13  N   UNL     1      45.662   4.460  12.995  0.00  0.00    +0.000 NA
ATOM     14  C   UNL     1      45.841   5.524  11.990  0.00  0.00    +0.000 C 
ATOM     15  C   UNL     1      44.562   5.792  11.196  0.00  0.00    +0.000 C 
ATOM     16  C   UNL     1      44.028   4.523  10.524  0.00  0.00    +0.000 C 
ATOM     17  C   UNL     1      43.863   3.441  11.596  0.00  0.00    +0.000 C 
ATOM     18  C   UNL     1      45.152   3.217  12.393  0.00  0.00    +0.000 C 
BRANCH  16  19
ATOM     19  C   UNL     1      44.926   4.047   9.373  0.00  0.00    +0.000 C 
BRANCH  19  20
ATOM     20  O   UNL     1      45.384   5.147   8.597  0.00  0.00    +0.000 OA
ATOM     21  H   UNL     1      46.262   4.917   8.254  0.00  0.00    +0.000 HD
ENDBRANCH  19  20
ENDBRANCH  16  19
ENDBRANCH  12  13
ENDBRANCH   1  12
TORSDOF 7
ENDMDL
MODEL 7
REMARK VINA RESULT:    -5.152      3.989      6.149
REMARK INTER + INTRA:          -7.499
REMARK INTER:                  -7.175
REMARK INTRA:                  -0.324
REMARK UNBOUND:                -0.540
REMARK  Name = 
REMARK  7 active torsions:
REMARK  status: ('A' for Active; 'I' for Inactive)
REMARK    1  A    between atoms: N_1  and  C_2
REMARK    2  A    between atoms: C_2  and  C_3
REMARK    3  A    between atoms: C_6  and  C_7
REMARK    4  A    between atoms: C_7  and  C_8
REMARK    5  A    between atoms: C_8  and  N_9
REMARK    6  A    between atoms: C_12  and  C_13
REMARK    7  A    between atoms: C_13  and  O_14
REMARK                            x       y       z     vdW  Elec       q    Type
REMARK                         _______ _______ _______ _____ _____    ______ ____
ROOT
ATOM      1  C   UNL     1      48.136   6.217  13.615  0.00  0.00    +0.000 C 
ENDROOT
BRANCH   1   5
ATOM      2  C   UNL     1      44.653   4.952  11.591  0.00  0.00    +0.000 A 
ATOM      3  C   UNL     1      44.987   4.507  12.853  0.00  0.00    +0.000 A 
ATOM      4  N   UNL     1      46.094   4.891  13.517  0.00  0.00    +0.000 NA
ATOM      5  C   UNL     1      46.896   5.772  12.888  0.00  0.00    +0.000 A 
ATOM      6  N   UNL     1      46.672   6.266  11.657  0.00  0.00    +0.000 NA
ATOM      7  C   UNL     1      45.551   5.842  11.040  0.00  0.00    +0.000 A 
BRANCH   2   8
ATOM      8  C   UNL     1      43.442   4.470  10.863  0.00  0.00    +0.000 C 
BRANCH   8   9
ATOM      9  N   UNL     1      42.924   3.228  11.423  0.00  0.00    +0.000 NA
ATOM     10  H   UNL     1      41.909   3.290  11.496  0.00  0.00    +0.000 HD
ATOM     11  H   UNL     1      43.270   3.115  12.376  0.00  0.00    +0.000 HD
ENDBRANCH   8   9
ENDBRANCH   2   8
ENDBRANCH   1   5
BRANCH   1  12
ATOM     12  C   UNL     1      47.908   6.199  15.130  0.00  0.00    +0.000 C 
BRANCH  12  13
ATOM     13  N   UNL     1      48.645   5.122  15.839  0.00  0.00    +0.000 NA
ATOM     14  C   UNL     1      49.650   5.681  16.761  0.00  0.00    +0.000 C 
ATOM     15  C   UNL     1      50.381   4.594  17.549  0.00  0.00    +0.000 C 
ATOM     16  C   UNL     1      49.410   3.692  18.319  0.00  0.00    +0.000 C 
ATOM     17  C   UNL     1      48.379   3.138  17.330  0.00  0.00    +0.000 C 
ATOM     18  C   UNL     1      47.685   4.249  16.536  0.00  0.00    +0.000 C 
BRANCH  16  19
ATOM     19  C   UNL     1      48.736   4.420  19.490  0.00  0.00    +0.000 C 
BRANCH  19  20
ATOM     20  O   UNL     1      48.374   3.505  20.517  0.00  0.00    +0.000 OA
ATOM     21  H   UNL     1      48.117   4.025  21.295  0.00  0.00    +0.000 HD
ENDBRANCH  19  20
ENDBRANCH  16  19
ENDBRANCH  12  13
ENDBRANCH   1  12
TORSDOF 7
ENDMDL
MODEL 8
REMARK VINA RESULT:    -5.081      3.127      4.795
REMARK INTER + INTRA:          -7.403
REMARK INTER:                  -7.118
REMARK INTRA:                  -0.285
REMARK UNBOUND:                -0.540
REMARK  Name = 
REMARK  7 active torsions:
REMARK  status: ('A' for Active; 'I' for Inactive)
REMARK    1  A    between atoms: N_1  and  C_2
REMARK    2  A    between atoms: C_2  and  C_3
REMARK    3  A    between atoms: C_6  and  C_7
REMARK    4  A    between atoms: C_7  and  C_8
REMARK    5  A    between atoms: C_8  and  N_9
REMARK    6  A    between atoms: C_12  and  C_13
REMARK    7  A    between atoms: C_13  and  O_14
REMARK                            x       y       z     vdW  Elec       q    Type
REMARK                         _______ _______ _______ _____ _____    ______ ____
ROOT
ATOM      1  C   UNL     1      45.934   5.656  13.627  0.00  0.00    +0.000 C 
ENDROOT
BRANCH   1   5
ATOM      2  C   UNL     1      44.868   3.286  10.299  0.00  0.00    +0.000 A 
ATOM      3  C   UNL     1      45.249   4.606  10.184  0.00  0.00    +0.000 A 
ATOM      4  N   UNL     1      45.588   5.385  11.230  0.00  0.00    +0.000 NA
ATOM      5  C   UNL     1      45.555   4.805  12.446  0.00  0.00    +0.000 A 
ATOM      6  N   UNL     1      45.193   3.529  12.674  0.00  0.00    +0.000 NA
ATOM      7  C   UNL     1      44.860   2.800  11.590  0.00  0.00    +0.000 A 
BRANCH   2   8
ATOM      8  C   UNL     1      44.452   2.464   9.124  0.00  0.00    +0.000 C 
BRANCH   8   9
ATOM      9  N   UNL     1      45.369   1.359   8.876  0.00  0.00    +0.000 NA
ATOM     10  H   UNL     1      45.563   0.880   9.755  0.00  0.00    +0.000 HD
ATOM     11  H   UNL     1      46.263   1.725   8.551  0.00  0.00    +0.000 HD
ENDBRANCH   8   9
ENDBRANCH   2   8
ENDBRANCH   1   5
BRANCH   1  12
ATOM     12  C   UNL     1      47.425   6.005  13.582  0.00  0.00    +0.000 C 
BRANCH  12  13
ATOM     13  N   UNL     1      48.203   5.477  14.732  0.00  0.00    +0.000 NA
ATOM     14  C   UNL     1      48.774   6.573  15.537  0.00  0.00    +0.000 C 
ATOM     15  C   UNL     1      49.528   6.058  16.763  0.00  0.00    +0.000 C 
ATOM     16  C   UNL     1      48.649   5.165  17.645  0.00  0.00    +0.000 C 
ATOM     17  C   UNL     1      48.070   4.046  16.773  0.00  0.00    +0.000 C 
ATOM     18  C   UNL     1      47.346   4.592  15.539  0.00  0.00    +0.000 C 
BRANCH  16  19
ATOM     19  C   UNL     1      47.544   5.954  18.362  0.00  0.00    +0.000 C 
BRANCH  19  20
ATOM     20  O   UNL     1      46.393   5.143  18.569  0.00  0.00    +0.000 OA
ATOM     21  H   UNL     1      45.982   5.426  19.400  0.00  0.00    +0.000 HD
ENDBRANCH  19  20
ENDBRANCH  16  19
ENDBRANCH  12  13
ENDBRANCH   1  12
TORSDOF 7
ENDMDL
MODEL 9
REMARK VINA RESULT:    -4.958      3.971      5.676
REMARK INTER + INTRA:          -7.236
REMARK INTER:                  -6.900
REMARK INTRA:                  -0.337
REMARK UNBOUND:                -0.540
REMARK  Name = 
REMARK  7 active torsions:
REMARK  status: ('A' for Active; 'I' for Inactive)
REMARK    1  A    between atoms: N_1  and  C_2
REMARK    2  A    between atoms: C_2  and  C_3
REMARK    3  A    between atoms: C_6  and  C_7
REMARK    4  A    between atoms: C_7  and  C_8
REMARK    5  A    between atoms: C_8  and  N_9
REMARK    6  A    between atoms: C_12  and  C_13
REMARK    7  A    between atoms: C_13  and  O_14
REMARK                            x       y       z     vdW  Elec       q    Type
REMARK                         _______ _______ _______ _____ _____    ______ ____
ROOT
ATOM      1  C   UNL     1      47.096   5.227  14.348  0.00  0.00    +0.000 C 
ENDROOT
BRANCH   1   5
ATOM      2  C   UNL     1      44.918   4.260  10.862  0.00  0.00    +0.000 A 
ATOM      3  C   UNL     1      45.581   5.459  11.020  0.00  0.00    +0.000 A 
ATOM      4  N   UNL     1      46.278   5.793  12.124  0.00  0.00    +0.000 NA
ATOM      5  C   UNL     1      46.320   4.875  13.108  0.00  0.00    +0.000 A 
ATOM      6  N   UNL     1      45.706   3.679  13.064  0.00  0.00    +0.000 NA
ATOM      7  C   UNL     1      45.021   3.401  11.936  0.00  0.00    +0.000 A 
BRANCH   2   8
ATOM      8  C   UNL     1      44.115   3.939   9.645  0.00  0.00    +0.000 C 
BRANCH   8   9
ATOM      9  N   UNL     1      44.689   4.525   8.440  0.00  0.00    +0.000 NA
ATOM     10  H   UNL     1      44.106   4.285   7.639  0.00  0.00    +0.000 HD
ATOM     11  H   UNL     1      45.602   4.105   8.260  0.00  0.00    +0.000 HD
ENDBRANCH   8   9
ENDBRANCH   2   8
ENDBRANCH   1   5
BRANCH   1  12
ATOM     12  C   UNL     1      47.144   4.036  15.310  0.00  0.00    +0.000 C 
BRANCH  12  13
ATOM     13  N   UNL     1      47.607   4.384  16.678  0.00  0.00    +0.000 NA
ATOM     14  C   UNL     1      48.133   3.199  17.380  0.00  0.00    +0.000 C 
ATOM     15  C   UNL     1      48.673   3.542  18.769  0.00  0.00    +0.000 C 
ATOM     16  C   UNL     1      49.745   4.636  18.714  0.00  0.00    +0.000 C 
ATOM     17  C   UNL     1      49.164   5.844  17.973  0.00  0.00    +0.000 C 
ATOM     18  C   UNL     1      48.606   5.463  16.598  0.00  0.00    +0.000 C 
BRANCH  16  19
ATOM     19  C   UNL     1      51.049   4.147  18.067  0.00  0.00    +0.000 C 
BRANCH  19  20
ATOM     20  O   UNL     1      51.854   3.450  19.010  0.00  0.00    +0.000 OA
ATOM     21  H   UNL     1      52.739   3.353  18.624  0.00  0.00    +0.000 HD
ENDBRANCH  19  20
ENDBRANCH  16  19
ENDBRANCH  12  13
ENDBRANCH   1  12
TORSDOF 7
ENDMDL
