MODEL 1
REMARK VINA RESULT:    -8.889      0.000      0.000
REMARK INTER + INTRA:         -11.769
REMARK INTER:                 -10.967
REMARK INTRA:                  -0.801
REMARK UNBOUND:                -0.801
REMARK  Name = 
REMARK  4 active torsions:
REMARK  status: ('A' for Active; 'I' for Inactive)
REMARK    1  A    between atoms: C_2  and  C_4
REMARK    2  A    between atoms: N_8  and  C_9
REMARK    3  A    between atoms: C_9  and  C_10
REMARK    4  A    between atoms: C_15  and  C_16
REMARK                            x       y       z     vdW  Elec       q    Type
REMARK                         _______ _______ _______ _____ _____    ______ ____
ROOT
ATOM      1  C   UNL     1      43.649   4.815  11.138  0.00  0.00    +0.000 C 
ENDROOT
BRANCH   1   6
ATOM      2  C   UNL     1      46.413   2.293   7.598  0.00  0.00    +0.000 A 
ATOM      3  C   UNL     1      45.813   1.802   8.754  0.00  0.00    +0.000 A 
ATOM      4  C   UNL     1      44.994   2.645   9.508  0.00  0.00    +0.000 A 
ATOM      5  C   UNL     1      44.797   3.961   9.105  0.00  0.00    +0.000 A 
ATOM      6  N   UNL     1      43.927   4.830   9.719  0.00  0.00    +0.000 N 
ATOM      7  N   UNL     1      45.397   4.452   8.001  0.00  0.00    +0.000 NA
ATOM      8  C   UNL     1      46.195   3.622   7.277  0.00  0.00    +0.000 A 
ATOM      9  H   UNL     1      44.041   5.746   9.297  0.00  0.00    +0.000 HD
BRANCH   2  11
ATOM     10  N   UNL     1      48.287   2.087   6.070  0.00  0.00    +0.000 N 
ATOM     11  C   UNL     1      47.250   1.462   6.710  0.00  0.00    +0.000 C 
ATOM     12  O   UNL     1      47.052   0.262   6.575  0.00  0.00    +0.000 OA
ATOM     13  H   UNL     1      48.923   1.488   5.558  0.00  0.00    +0.000 HD
ATOM     14  H   UNL     1      48.633   2.992   6.354  0.00  0.00    +0.000 HD
ENDBRANCH   2  11
ENDBRANCH   1   6
BRANCH   1  15
ATOM     15  C   UNL     1      44.869   5.124  11.973  0.00  0.00    +0.000 A 
ATOM     16  C   UNL     1      45.346   4.187  12.897  0.00  0.00    +0.000 A 
ATOM     17  C   UNL     1      46.419   4.510  13.719  0.00  0.00    +0.000 A 
ATOM     18  F   UNL     1      46.851   3.615  14.619  0.00  0.00    +0.000 F 
ATOM     19  C   UNL     1      47.041   5.749  13.636  0.00  0.00    +0.000 A 
ATOM     20  C   UNL     1      46.600   6.700  12.706  0.00  0.00    +0.000 A 
ATOM     21  C   UNL     1      45.511   6.375  11.879  0.00  0.00    +0.000 A 
BRANCH  20  22
ATOM     22  C   UNL     1      47.318   8.033  12.616  0.00  0.00    +0.000 C 
ATOM     23  C   UNL     1      46.434   9.172  12.089  0.00  0.00    +0.000 C 
ATOM     24  C   UNL     1      47.240  10.466  12.052  0.00  0.00    +0.000 C 
ATOM     25  O   UNL     1      48.414  10.310  11.254  0.00  0.00    +0.000 OA
ATOM     26  C   UNL     1      49.292   9.304  11.760  0.00  0.00    +0.000 C 
ATOM     27  C   UNL     1      48.601   7.947  11.777  0.00  0.00    +0.000 C 
ENDBRANCH  20  22
ENDBRANCH   1  15
TORSDOF 4
ENDMDL
MODEL 2
REMARK VINA RESULT:    -8.330      2.424      3.446
REMARK INTER + INTRA:         -11.079
REMARK INTER:                 -10.309
REMARK INTRA:                  -0.770
REMARK UNBOUND:                -0.801
REMARK  Name = 
REMARK  4 active torsions:
REMARK  status: ('A' for Active; 'I' for Inactive)
REMARK    1  A    between atoms: C_2  and  C_4
REMARK    2  A    between atoms: N_8  and  C_9
REMARK    3  A    between atoms: C_9  and  C_10
REMARK    4  A    between atoms: C_15  and  C_16
REMARK                            x       y       z     vdW  Elec       q    Type
REMARK                         _______ _______ _______ _____ _____    ______ ____
ROOT
ATOM      1  C   UNL     1      43.601   4.912  11.062  0.00  0.00    +0.000 C 
ENDROOT
BRANCH   1   6
ATOM      2  C   UNL     1      46.420   2.228   7.690  0.00  0.00    +0.000 A 
ATOM      3  C   UNL     1      45.822   1.797   8.869  0.00  0.00    +0.000 A 
ATOM      4  C   UNL     1      44.986   2.670   9.569  0.00  0.00    +0.000 A 
ATOM      5  C   UNL     1      44.772   3.958   9.088  0.00  0.00    +0.000 A 
ATOM      6  N   UNL     1      43.886   4.848   9.646  0.00  0.00    +0.000 N 
ATOM      7  N   UNL     1      45.370   4.391   7.959  0.00  0.00    +0.000 NA
ATOM      8  C   UNL     1      46.184   3.532   7.290  0.00  0.00    +0.000 A 
ATOM      9  H   UNL     1      43.988   5.739   9.171  0.00  0.00    +0.000 HD
BRANCH   2  11
ATOM     10  N   UNL     1      48.320   1.956   6.204  0.00  0.00    +0.000 N 
ATOM     11  C   UNL     1      47.274   1.359   6.855  0.00  0.00    +0.000 C 
ATOM     12  O   UNL     1      47.082   0.153   6.775  0.00  0.00    +0.000 OA
ATOM     13  H   UNL     1      48.965   1.336   5.731  0.00  0.00    +0.000 HD
ATOM     14  H   UNL     1      48.658   2.875   6.450  0.00  0.00    +0.000 HD
ENDBRANCH   2  11
ENDBRANCH   1   6
BRANCH   1  15
ATOM     15  C   UNL     1      44.584   5.777  11.814  0.00  0.00    +0.000 A 
ATOM     16  C   UNL     1      44.639   7.155  11.571  0.00  0.00    +0.000 A 
ATOM     17  C   UNL     1      45.600   7.932  12.206  0.00  0.00    +0.000 A 
ATOM     18  F   UNL     1      45.660   9.246  11.947  0.00  0.00    +0.000 F 
ATOM     19  C   UNL     1      46.509   7.369  13.092  0.00  0.00    +0.000 A 
ATOM     20  C   UNL     1      46.466   5.997  13.373  0.00  0.00    +0.000 A 
ATOM     21  C   UNL     1      45.496   5.210  12.725  0.00  0.00    +0.000 A 
BRANCH  20  22
ATOM     22  C   UNL     1      47.451   5.415  14.368  0.00  0.00    +0.000 C 
ATOM     23  C   UNL     1      46.823   4.391  15.326  0.00  0.00    +0.000 C 
ATOM     24  C   UNL     1      47.894   3.856  16.271  0.00  0.00    +0.000 C 
ATOM     25  O   UNL     1      48.517   4.922  16.988  0.00  0.00    +0.000 OA
ATOM     26  C   UNL     1      49.171   5.855  16.127  0.00  0.00    +0.000 C 
ATOM     27  C   UNL     1      48.171   6.503  15.178  0.00  0.00    +0.000 C 
ENDBRANCH  20  22
ENDBRANCH   1  15
TORSDOF 4
ENDMDL
MODEL 3
REMARK VINA RESULT:    -7.925      3.242      7.304
REMARK INTER + INTRA:         -10.580
REMARK INTER:                 -10.198
REMARK INTRA:                  -0.382
REMARK UNBOUND:                -0.801
REMARK  Name = 
REMARK  4 active torsions:
REMARK  status: ('A' for Active; 'I' for Inactive)
REMARK    1  A    between atoms: C_2  and  C_4
REMARK    2  A    between atoms: N_8  and  C_9
REMARK    3  A    between atoms: C_9  and  C_10
REMARK    4  A    between atoms: C_15  and  C_16
REMARK                            x       y       z     vdW  Elec       q    Type
REMARK                         _______ _______ _______ _____ _____    ______ ____
ROOT
ATOM      1  C   UNL     1      45.222   6.520  11.005  0.00  0.00    +0.000 C 
ENDROOT
BRANCH   1   6
ATOM      2  C   UNL     1      47.809   5.445  15.327  0.00  0.00    +0.000 A 
ATOM      3  C   UNL     1      46.721   4.781  14.770  0.00  0.00    +0.000 A 
ATOM      4  C   UNL     1      46.254   5.170  13.512  0.00  0.00    +0.000 A 
ATOM      5  C   UNL     1      46.872   6.220  12.840  0.00  0.00    +0.000 A 
ATOM      6  N   UNL     1      46.555   6.603  11.559  0.00  0.00    +0.000 N 
ATOM      7  N   UNL     1      47.910   6.886  13.386  0.00  0.00    +0.000 NA
ATOM      8  C   UNL     1      48.352   6.499  14.612  0.00  0.00    +0.000 A 
ATOM      9  H   UNL     1      47.078   7.444  11.339  0.00  0.00    +0.000 HD
BRANCH   2  11
ATOM     10  N   UNL     1      47.625   5.238  17.738  0.00  0.00    +0.000 N 
ATOM     11  C   UNL     1      48.404   5.068  16.625  0.00  0.00    +0.000 C 
ATOM     12  O   UNL     1      49.528   4.592  16.704  0.00  0.00    +0.000 OA
ATOM     13  H   UNL     1      47.997   4.870  18.605  0.00  0.00    +0.000 HD
ATOM     14  H   UNL     1      46.626   5.376  17.686  0.00  0.00    +0.000 HD
ENDBRANCH   2  11
ENDBRANCH   1   6
BRANCH   1  15
ATOM     15  C   UNL     1      44.866   5.125  10.552  0.00  0.00    +0.000 A 
ATOM     16  C   UNL     1      43.975   4.346  11.301  0.00  0.00    +0.000 A 
ATOM     17  C   UNL     1      43.716   3.035  10.922  0.00  0.00    +0.000 A 
ATOM     18  F   UNL     1      42.882   2.289  11.662  0.00  0.00    +0.000 F 
ATOM     19  C   UNL     1      44.316   2.477   9.802  0.00  0.00    +0.000 A 
ATOM     20  C   UNL     1      45.196   3.238   9.019  0.00  0.00    +0.000 A 
ATOM     21  C   UNL     1      45.462   4.563   9.406  0.00  0.00    +0.000 A 
BRANCH  20  22
ATOM     22  C   UNL     1      45.813   2.613   7.782  0.00  0.00    +0.000 C 
ATOM     23  C   UNL     1      46.522   1.279   8.057  0.00  0.00    +0.000 C 
ATOM     24  C   UNL     1      47.091   0.728   6.754  0.00  0.00    +0.000 C 
ATOM     25  O   UNL     1      47.977   1.670   6.149  0.00  0.00    +0.000 OA
ATOM     26  C   UNL     1      47.329   2.898   5.816  0.00  0.00    +0.000 C 
ATOM     27  C   UNL     1      46.777   3.570   7.067  0.00  0.00    +0.000 C 
ENDBRANCH  20  22
ENDBRANCH   1  15
TORSDOF 4
ENDMDL
MODEL 4
REMARK VINA RESULT:    -7.787      2.357      3.059
REMARK INTER + INTRA:         -10.410
REMARK INTER:                  -9.873
REMARK INTRA:                  -0.537
REMARK UNBOUND:                -0.801
REMARK  Name = 
REMARK  4 active torsions:
REMARK  status: ('A' for Active; 'I' for Inactive)
REMARK    1  A    between atoms: C_2  and  C_4
REMARK    2  A    between atoms: N_8  and  C_9
REMARK    3  A    between atoms: C_9  and  C_10
REMARK    4  A    between atoms: C_15  and  C_16
REMARK                            x       y       z     vdW  Elec       q    Type
REMARK                         _______ _______ _______ _____ _____    ______ ____
ROOT
ATOM      1  C   UNL     1      43.391   3.536  11.260  0.00  0.00    +0.000 C 
ENDROOT
BRANCH   1   6
ATOM      2  C   UNL     1      46.509   2.768   7.234  0.00  0.00    +0.000 A 
ATOM      3  C   UNL     1      45.939   3.953   7.686  0.00  0.00    +0.000 A 
ATOM      4  C   UNL     1      45.224   3.953   8.885  0.00  0.00    +0.000 A 
ATOM      5  C   UNL     1      45.080   2.771   9.605  0.00  0.00    +0.000 A 
ATOM      6  N   UNL     1      44.490   2.694  10.844  0.00  0.00    +0.000 N 
ATOM      7  N   UNL     1      45.608   1.612   9.159  0.00  0.00    +0.000 NA
ATOM      8  C   UNL     1      46.299   1.626   7.988  0.00  0.00    +0.000 A 
ATOM      9  H   UNL     1      44.426   1.715  11.106  0.00  0.00    +0.000 HD
BRANCH   2  11
ATOM     10  N   UNL     1      48.659   2.408   6.166  0.00  0.00    +0.000 N 
ATOM     11  C   UNL     1      47.327   2.683   6.007  0.00  0.00    +0.000 C 
ATOM     12  O   UNL     1      46.834   2.816   4.895  0.00  0.00    +0.000 OA
ATOM     13  H   UNL     1      49.185   2.237   5.318  0.00  0.00    +0.000 HD
ATOM     14  H   UNL     1      49.038   2.041   7.026  0.00  0.00    +0.000 HD
ENDBRANCH   2  11
ENDBRANCH   1   6
BRANCH   1  15
ATOM     15  C   UNL     1      43.817   4.961  11.521  0.00  0.00    +0.000 A 
ATOM     16  C   UNL     1      43.065   6.026  11.009  0.00  0.00    +0.000 A 
ATOM     17  C   UNL     1      43.507   7.331  11.184  0.00  0.00    +0.000 A 
ATOM     18  F   UNL     1      42.794   8.342  10.667  0.00  0.00    +0.000 F 
ATOM     19  C   UNL     1      44.682   7.607  11.870  0.00  0.00    +0.000 A 
ATOM     20  C   UNL     1      45.446   6.564  12.413  0.00  0.00    +0.000 A 
ATOM     21  C   UNL     1      45.001   5.243  12.231  0.00  0.00    +0.000 A 
BRANCH  20  22
ATOM     22  C   UNL     1      46.708   6.897  13.184  0.00  0.00    +0.000 C 
ATOM     23  C   UNL     1      47.873   7.346  12.291  0.00  0.00    +0.000 C 
ATOM     24  C   UNL     1      49.084   7.671  13.159  0.00  0.00    +0.000 C 
ATOM     25  O   UNL     1      49.449   6.547  13.961  0.00  0.00    +0.000 OA
ATOM     26  C   UNL     1      48.410   6.149  14.855  0.00  0.00    +0.000 C 
ATOM     27  C   UNL     1      47.164   5.737  14.081  0.00  0.00    +0.000 C 
ENDBRANCH  20  22
ENDBRANCH   1  15
TORSDOF 4
ENDMDL
MODEL 5
REMARK VINA RESULT:    -7.591      2.943      7.335
REMARK INTER + INTRA:         -10.168
REMARK INTER:                  -9.527
REMARK INTRA:                  -0.641
REMARK UNBOUND:                -0.801
REMARK  Name = 
REMARK  4 active torsions:
REMARK  status: ('A' for Active; 'I' for Inactive)
REMARK    1  A    between atoms: C_2  and  C_4
REMARK    2  A    between atoms: N_8  and  C_9
REMARK    3  A    between atoms: C_9  and  C_10
REMARK    4  A    between atoms: C_15  and  C_16
REMARK                            x       y       z     vdW  Elec       q    Type
REMARK                         _______ _______ _______ _____ _____    ______ ____
ROOT
ATOM      1  C   UNL     1      45.098   6.544  10.944  0.00  0.00    +0.000 C 
ENDROOT
BRANCH   1   6
ATOM      2  C   UNL     1      49.468   7.683  13.419  0.00  0.00    +0.000 A 
ATOM      3  C   UNL     1      48.967   8.217  12.237  0.00  0.00    +0.000 A 
ATOM      4  C   UNL     1      47.688   7.853  11.811  0.00  0.00    +0.000 A 
ATOM      5  C   UNL     1      46.938   6.954  12.563  0.00  0.00    +0.000 A 
ATOM      6  N   UNL     1      45.635   6.620  12.284  0.00  0.00    +0.000 N 
ATOM      7  N   UNL     1      47.428   6.412  13.697  0.00  0.00    +0.000 NA
ATOM      8  C   UNL     1      48.676   6.773  14.098  0.00  0.00    +0.000 A 
ATOM      9  H   UNL     1      45.352   5.882  12.920  0.00  0.00    +0.000 HD
BRANCH   2  11
ATOM     10  N   UNL     1      51.226   7.335  15.056  0.00  0.00    +0.000 N 
ATOM     11  C   UNL     1      50.786   8.051  13.976  0.00  0.00    +0.000 C 
ATOM     12  O   UNL     1      51.473   8.932  13.475  0.00  0.00    +0.000 OA
ATOM     13  H   UNL     1      52.176   7.515  15.356  0.00  0.00    +0.000 HD
ATOM     14  H   UNL     1      50.817   6.451  15.324  0.00  0.00    +0.000 HD
ENDBRANCH   2  11
ENDBRANCH   1   6
BRANCH   1  15
ATOM     15  C   UNL     1      44.790   5.128  10.520  0.00  0.00    +0.000 A 
ATOM     16  C   UNL     1      43.942   4.329  11.298  0.00  0.00    +0.000 A 
ATOM     17  C   UNL     1      43.727   3.002  10.947  0.00  0.00    +0.000 A 
ATOM     18  F   UNL     1      42.934   2.239  11.713  0.00  0.00    +0.000 F 
ATOM     19  C   UNL     1      44.332   2.448   9.827  0.00  0.00    +0.000 A 
ATOM     20  C   UNL     1      45.169   3.227   9.016  0.00  0.00    +0.000 A 
ATOM     21  C   UNL     1      45.390   4.569   9.375  0.00  0.00    +0.000 A 
BRANCH  20  22
ATOM     22  C   UNL     1      45.791   2.604   7.782  0.00  0.00    +0.000 C 
ATOM     23  C   UNL     1      46.537   1.292   8.065  0.00  0.00    +0.000 C 
ATOM     24  C   UNL     1      47.108   0.740   6.764  0.00  0.00    +0.000 C 
ATOM     25  O   UNL     1      47.964   1.698   6.139  0.00  0.00    +0.000 OA
ATOM     26  C   UNL     1      47.281   2.905   5.798  0.00  0.00    +0.000 C 
ATOM     27  C   UNL     1      46.723   3.577   7.046  0.00  0.00    +0.000 C 
ENDBRANCH  20  22
ENDBRANCH   1  15
TORSDOF 4
ENDMDL
MODEL 6
REMARK VINA RESULT:    -7.556      2.180      2.703
REMARK INTER + INTRA:         -10.124
REMARK INTER:                  -9.448
REMARK INTRA:                  -0.676
REMARK UNBOUND:                -0.801
REMARK  Name = 
REMARK  4 active torsions:
REMARK  status: ('A' for Active; 'I' for Inactive)
REMARK    1  A    between atoms: C_2  and  C_4
REMARK    2  A    between atoms: N_8  and  C_9
REMARK    3  A    between atoms: C_9  and  C_10
REMARK    4  A    between atoms: C_15  and  C_16
REMARK                            x       y       z     vdW  Elec       q    Type
REMARK                         _______ _______ _______ _____ _____    ______ ____
ROOT
ATOM      1  C   UNL     1      43.744   5.394  10.907  0.00  0.00    +0.000 C 
ENDROOT
BRANCH   1   6
ATOM      2  C   UNL     1      46.281   2.040   7.935  0.00  0.00    +0.000 A 
ATOM      3  C   UNL     1      45.685   1.834   9.175  0.00  0.00    +0.000 A 
ATOM      4  C   UNL     1      44.930   2.860   9.748  0.00  0.00    +0.000 A 
ATOM      5  C   UNL     1      44.794   4.074   9.082  0.00  0.00    +0.000 A 
ATOM      6  N   UNL     1      43.987   5.100   9.513  0.00  0.00    +0.000 N 
ATOM      7  N   UNL     1      45.392   4.290   7.892  0.00  0.00    +0.000 NA
ATOM      8  C   UNL     1      46.126   3.284   7.347  0.00  0.00    +0.000 A 
ATOM      9  H   UNL     1      44.139   5.900   8.908  0.00  0.00    +0.000 HD
BRANCH   2  11
ATOM     10  N   UNL     1      46.801  -0.304   7.578  0.00  0.00    +0.000 N 
ATOM     11  C   UNL     1      47.050   0.996   7.228  0.00  0.00    +0.000 C 
ATOM     12  O   UNL     1      47.849   1.274   6.343  0.00  0.00    +0.000 OA
ATOM     13  H   UNL     1      47.246  -1.013   7.009  0.00  0.00    +0.000 HD
ATOM     14  H   UNL     1      45.983  -0.577   8.101  0.00  0.00    +0.000 HD
ENDBRANCH   2  11
ENDBRANCH   1   6
BRANCH   1  15
ATOM     15  C   UNL     1      44.580   6.546  11.413  0.00  0.00    +0.000 A 
ATOM     16  C   UNL     1      44.017   7.822  11.540  0.00  0.00    +0.000 A 
ATOM     17  C   UNL     1      44.812   8.893  11.928  0.00  0.00    +0.000 A 
ATOM     18  F   UNL     1      44.270  10.115  12.022  0.00  0.00    +0.000 F 
ATOM     19  C   UNL     1      46.162   8.723  12.204  0.00  0.00    +0.000 A 
ATOM     20  C   UNL     1      46.750   7.455  12.106  0.00  0.00    +0.000 A 
ATOM     21  C   UNL     1      45.946   6.372  11.708  0.00  0.00    +0.000 A 
BRANCH  20  22
ATOM     22  C   UNL     1      48.220   7.293  12.444  0.00  0.00    +0.000 C 
ATOM     23  C   UNL     1      48.611   7.914  13.793  0.00  0.00    +0.000 C 
ATOM     24  C   UNL     1      50.097   7.684  14.046  0.00  0.00    +0.000 C 
ATOM     25  O   UNL     1      50.882   8.222  12.981  0.00  0.00    +0.000 OA
ATOM     26  C   UNL     1      50.591   7.614  11.723  0.00  0.00    +0.000 C 
ATOM     27  C   UNL     1      49.134   7.843  11.340  0.00  0.00    +0.000 C 
ENDBRANCH  20  22
ENDBRANCH   1  15
TORSDOF 4
ENDMDL
MODEL 7
REMARK VINA RESULT:    -6.728      5.720      8.095
REMARK INTER + INTRA:          -9.103
REMARK INTER:                  -8.447
REMARK INTRA:                  -0.655
REMARK UNBOUND:                -0.801
REMARK  Name = 
REMARK  4 active torsions:
REMARK  status: ('A' for Active; 'I' for Inactive)
REMARK    1  A    between atoms: C_2  and  C_4
REMARK    2  A    between atoms: N_8  and  C_9
REMARK    3  A    between atoms: C_9  and  C_10
REMARK    4  A    between atoms: C_15  and  C_16
REMARK                            x       y       z     vdW  Elec       q    Type
REMARK                         _______ _______ _______ _____ _____    ______ ____
ROOT
ATOM      1  C   UNL     1      48.699   6.770  15.893  0.00  0.00    +0.000 C 
ENDROOT
BRANCH   1   6
ATOM      2  C   UNL     1      51.317   2.675  17.599  0.00  0.00    +0.000 A 
ATOM      3  C   UNL     1      51.716   4.006  17.538  0.00  0.00    +0.000 A 
ATOM      4  C   UNL     1      50.790   4.980  17.158  0.00  0.00    +0.000 A 
ATOM      5  C   UNL     1      49.489   4.609  16.834  0.00  0.00    +0.000 A 
ATOM      6  N   UNL     1      48.483   5.502  16.555  0.00  0.00    +0.000 N 
ATOM      7  N   UNL     1      49.102   3.317  16.865  0.00  0.00    +0.000 NA
ATOM      8  C   UNL     1      50.015   2.379  17.233  0.00  0.00    +0.000 A 
ATOM      9  H   UNL     1      47.665   4.979  16.260  0.00  0.00    +0.000 HD
BRANCH   2  11
ATOM     10  N   UNL     1      51.682   0.322  18.067  0.00  0.00    +0.000 N 
ATOM     11  C   UNL     1      52.210   1.585  18.041  0.00  0.00    +0.000 C 
ATOM     12  O   UNL     1      53.379   1.791  18.337  0.00  0.00    +0.000 OA
ATOM     13  H   UNL     1      52.332  -0.431  18.259  0.00  0.00    +0.000 HD
ATOM     14  H   UNL     1      50.825   0.082  17.591  0.00  0.00    +0.000 HD
ENDBRANCH   2  11
ENDBRANCH   1   6
BRANCH   1  15
ATOM     15  C   UNL     1      48.309   6.738  14.435  0.00  0.00    +0.000 A 
ATOM     16  C   UNL     1      49.045   7.468  13.493  0.00  0.00    +0.000 A 
ATOM     17  C   UNL     1      48.632   7.499  12.167  0.00  0.00    +0.000 A 
ATOM     18  F   UNL     1      49.328   8.222  11.278  0.00  0.00    +0.000 F 
ATOM     19  C   UNL     1      47.501   6.810  11.749  0.00  0.00    +0.000 A 
ATOM     20  C   UNL     1      46.756   6.054  12.664  0.00  0.00    +0.000 A 
ATOM     21  C   UNL     1      47.171   6.026  14.007  0.00  0.00    +0.000 A 
BRANCH  20  22
ATOM     22  C   UNL     1      45.544   5.286  12.173  0.00  0.00    +0.000 C 
ATOM     23  C   UNL     1      45.307   5.413  10.661  0.00  0.00    +0.000 C 
ATOM     24  C   UNL     1      44.081   4.595  10.267  0.00  0.00    +0.000 C 
ATOM     25  O   UNL     1      42.934   5.012  11.009  0.00  0.00    +0.000 OA
ATOM     26  C   UNL     1      43.097   4.840  12.417  0.00  0.00    +0.000 C 
ATOM     27  C   UNL     1      44.264   5.673  12.929  0.00  0.00    +0.000 C 
ENDBRANCH  20  22
ENDBRANCH   1  15
TORSDOF 4
ENDMDL
MODEL 8
REMARK VINA RESULT:    -6.642      3.917      7.702
REMARK INTER + INTRA:          -8.997
REMARK INTER:                  -8.462
REMARK INTRA:                  -0.535
REMARK UNBOUND:                -0.801
REMARK  Name = 
REMARK  4 active torsions:
REMARK  status: ('A' for Active; 'I' for Inactive)
REMARK    1  A    between atoms: C_2  and  C_4
REMARK    2  A    between atoms: N_8  and  C_9
REMARK    3  A    between atoms: C_9  and  C_10
REMARK    4  A    between atoms: C_15  and  C_16
REMARK                            x       y       z     vdW  Elec       q    Type
REMARK                         _______ _______ _______ _____ _____    ______ ____
ROOT
ATOM      1  C   UNL     1      46.429   7.482  12.041  0.00  0.00    +0.000 C 
ENDROOT
BRANCH   1   6
ATOM      2  C   UNL     1      50.370   7.131  15.337  0.00  0.00    +0.000 A 
ATOM      3  C   UNL     1      50.240   7.936  14.210  0.00  0.00    +0.000 A 
ATOM      4  C   UNL     1      49.021   7.966  13.529  0.00  0.00    +0.000 A 
ATOM      5  C   UNL     1      47.960   7.186  13.976  0.00  0.00    +0.000 A 
ATOM      6  N   UNL     1      46.696   7.230  13.439  0.00  0.00    +0.000 N 
ATOM      7  N   UNL     1      48.087   6.383  15.052  0.00  0.00    +0.000 NA
ATOM      8  C   UNL     1      49.280   6.360  15.704  0.00  0.00    +0.000 A 
ATOM      9  H   UNL     1      46.138   6.503  13.876  0.00  0.00    +0.000 HD
BRANCH   2  11
ATOM     10  N   UNL     1      52.791   7.032  15.476  0.00  0.00    +0.000 N 
ATOM     11  C   UNL     1      51.601   7.076  16.151  0.00  0.00    +0.000 C 
ATOM     12  O   UNL     1      51.566   7.106  17.374  0.00  0.00    +0.000 OA
ATOM     13  H   UNL     1      53.629   7.112  16.038  0.00  0.00    +0.000 HD
ATOM     14  H   UNL     1      52.868   7.266  14.497  0.00  0.00    +0.000 HD
ENDBRANCH   2  11
ENDBRANCH   1   6
BRANCH   1  15
ATOM     15  C   UNL     1      45.394   6.543  11.468  0.00  0.00    +0.000 A 
ATOM     16  C   UNL     1      44.093   6.527  11.988  0.00  0.00    +0.000 A 
ATOM     17  C   UNL     1      43.170   5.604  11.512  0.00  0.00    +0.000 A 
ATOM     18  F   UNL     1      41.935   5.580  12.034  0.00  0.00    +0.000 F 
ATOM     19  C   UNL     1      43.508   4.696  10.518  0.00  0.00    +0.000 A 
ATOM     20  C   UNL     1      44.795   4.701   9.963  0.00  0.00    +0.000 A 
ATOM     21  C   UNL     1      45.730   5.631  10.448  0.00  0.00    +0.000 A 
BRANCH  20  22
ATOM     22  C   UNL     1      45.126   3.719   8.856  0.00  0.00    +0.000 C 
ATOM     23  C   UNL     1      45.543   2.333   9.369  0.00  0.00    +0.000 C 
ATOM     24  C   UNL     1      45.837   1.419   8.185  0.00  0.00    +0.000 C 
ATOM     25  O   UNL     1      46.845   1.985   7.345  0.00  0.00    +0.000 OA
ATOM     26  C   UNL     1      46.457   3.244   6.794  0.00  0.00    +0.000 C 
ATOM     27  C   UNL     1      46.201   4.258   7.902  0.00  0.00    +0.000 C 
ENDBRANCH  20  22
ENDBRANCH   1  15
TORSDOF 4
ENDMDL
MODEL 9
REMARK VINA RESULT:    -6.491      3.143      7.067
REMARK INTER + INTRA:          -8.810
REMARK INTER:                  -8.116
REMARK INTRA:                  -0.694
REMARK UNBOUND:                -0.801
REMARK  Name = 
REMARK  4 active torsions:
REMARK  status: ('A' for Active; 'I' for Inactive)
REMARK    1  A    between atoms: C_2  and  C_4
REMARK    2  A    between atoms: N_8  and  C_9
REMARK    3  A    between atoms: C_9  and  C_10
REMARK    4  A    between atoms: C_15  and  C_16
REMARK                            x       y       z     vdW  Elec       q    Type
REMARK                         _______ _______ _______ _____ _____    ______ ____
ROOT
ATOM      1  C   UNL     1      46.205   7.060  12.726  0.00  0.00    +0.000 C 
ENDROOT
BRANCH   1   6
ATOM      2  C   UNL     1      50.698   9.113  11.269  0.00  0.00    +0.000 A 
ATOM      3  C   UNL     1      50.345   7.773  11.387  0.00  0.00    +0.000 A 
ATOM      4  C   UNL     1      49.020   7.439  11.675  0.00  0.00    +0.000 A 
ATOM      5  C   UNL     1      48.076   8.444  11.853  0.00  0.00    +0.000 A 
ATOM      6  N   UNL     1      46.733   8.213  12.032  0.00  0.00    +0.000 N 
ATOM      7  N   UNL     1      48.417   9.747  11.768  0.00  0.00    +0.000 NA
ATOM      8  C   UNL     1      49.711  10.058  11.490  0.00  0.00    +0.000 A 
ATOM      9  H   UNL     1      46.281   9.100  12.232  0.00  0.00    +0.000 HD
BRANCH   2  11
ATOM     10  N   UNL     1      52.732   8.820   9.978  0.00  0.00    +0.000 N 
ATOM     11  C   UNL     1      52.060   9.560  10.914  0.00  0.00    +0.000 C 
ATOM     12  O   UNL     1      52.556  10.565  11.404  0.00  0.00    +0.000 OA
ATOM     13  H   UNL     1      53.614   9.199   9.657  0.00  0.00    +0.000 HD
ATOM     14  H   UNL     1      52.267   8.158   9.375  0.00  0.00    +0.000 HD
ENDBRANCH   2  11
ENDBRANCH   1   6
BRANCH   1  15
ATOM     15  C   UNL     1      45.214   6.284  11.893  0.00  0.00    +0.000 A 
ATOM     16  C   UNL     1      43.851   6.308  12.216  0.00  0.00    +0.000 A 
ATOM     17  C   UNL     1      42.956   5.528  11.495  0.00  0.00    +0.000 A 
ATOM     18  F   UNL     1      41.657   5.538  11.829  0.00  0.00    +0.000 F 
ATOM     19  C   UNL     1      43.383   4.725  10.446  0.00  0.00    +0.000 A 
ATOM     20  C   UNL     1      44.737   4.695  10.085  0.00  0.00    +0.000 A 
ATOM     21  C   UNL     1      45.644   5.482  10.818  0.00  0.00    +0.000 A 
BRANCH  20  22
ATOM     22  C   UNL     1      45.172   3.834   8.915  0.00  0.00    +0.000 C 
ATOM     23  C   UNL     1      45.597   2.416   9.321  0.00  0.00    +0.000 C 
ATOM     24  C   UNL     1      45.998   1.628   8.078  0.00  0.00    +0.000 C 
ATOM     25  O   UNL     1      47.040   2.298   7.368  0.00  0.00    +0.000 OA
ATOM     26  C   UNL     1      46.650   3.595   6.914  0.00  0.00    +0.000 C 
ATOM     27  C   UNL     1      46.290   4.490   8.092  0.00  0.00    +0.000 C 
ENDBRANCH  20  22
ENDBRANCH   1  15
TORSDOF 4
ENDMDL
