MODEL 1
REMARK VINA RESULT:    -7.090      0.000      0.000
REMARK INTER + INTRA:         -10.031
REMARK INTER:                  -9.370
REMARK INTRA:                  -0.661
REMARK UNBOUND:                -0.661
REMARK  Name = 
REMARK  6 active torsions:
REMARK  status: ('A' for Active; 'I' for Inactive)
REMARK    1  A    between atoms: N_1  and  C_2
REMARK    2  A    between atoms: C_2  and  C_3
REMARK    3  A    between atoms: C_3  and  O_4
REMARK    4  A    between atoms: O_4  and  C_5
REMARK    5  A    between atoms: C_8  and  C_9
REMARK    6  A    between atoms: C_9  and  C_10
REMARK                            x       y       z     vdW  Elec       q    Type
REMARK                         _______ _______ _______ _____ _____    ______ ____
ROOT
ATOM      1  C   UNL     1      45.674   2.784   8.215  0.00  0.00    +0.000 A 
ATOM      2  C   UNL     1      44.902   2.024   9.092  0.00  0.00    +0.000 A 
ATOM      3  C   UNL     1      44.136   2.647  10.076  0.00  0.00    +0.000 A 
ATOM      4  C   UNL     1      44.110   4.048  10.187  0.00  0.00    +0.000 A 
ATOM      5  C   UNL     1      44.892   4.806   9.311  0.00  0.00    +0.000 A 
ATOM      6  C   UNL     1      45.656   4.174   8.326  0.00  0.00    +0.000 A 
ENDROOT
BRANCH   1   7
ATOM      7  O   UNL     1      46.458   2.295   7.206  0.00  0.00    +0.000 OA
BRANCH   7   8
ATOM      8  C   UNL     1      46.499   3.065   6.005  0.00  0.00    +0.000 C 
BRANCH   8   9
ATOM      9  C   UNL     1      47.598   2.497   5.103  0.00  0.00    +0.000 C 
BRANCH   9  10
ATOM     10  N   UNL     1      48.610   1.767   5.867  0.00  0.00    +0.000 NA
ATOM     11  H   UNL     1      49.274   2.433   6.260  0.00  0.00    +0.000 HD
ATOM     12  H   UNL     1      49.148   1.172   5.238  0.00  0.00    +0.000 HD
ENDBRANCH   9  10
ENDBRANCH   8   9
ENDBRANCH   7   8
ENDBRANCH   1   7
BRANCH   4  13
ATOM     13  C   UNL     1      43.228   4.705  11.207  0.00  0.00    +0.000 C 
BRANCH  13  14
ATOM     14  C   UNL     1      43.967   5.844  11.836  0.00  0.00    +0.000 A 
ATOM     15  C   UNL     1      43.898   7.184  11.496  0.00  0.00    +0.000 A 
ATOM     16  N   UNL     1      44.890   7.848  12.165  0.00  0.00    +0.000 N 
ATOM     17  C   UNL     1      45.716   6.942  12.786  0.00  0.00    +0.000 A 
ATOM     18  C   UNL     1      46.990   7.102  13.338  0.00  0.00    +0.000 A 
ATOM     19  C   UNL     1      47.568   5.987  13.954  0.00  0.00    +0.000 A 
ATOM     20  C   UNL     1      46.855   4.797  14.083  0.00  0.00    +0.000 A 
ATOM     21 CL   UNL     1      47.558   3.474  14.933  0.00  0.00    +0.000 Cl
ATOM     22  C   UNL     1      45.594   4.643  13.503  0.00  0.00    +0.000 A 
ATOM     23  C   UNL     1      45.048   5.717  12.770  0.00  0.00    +0.000 A 
ATOM     24  H   UNL     1      45.058   8.845  12.121  0.00  0.00    +0.000 HD
ENDBRANCH  13  14
ENDBRANCH   4  13
TORSDOF 6
ENDMDL
MODEL 2
REMARK VINA RESULT:    -6.972      2.176      2.792
REMARK INTER + INTRA:          -9.874
REMARK INTER:                  -9.182
REMARK INTRA:                  -0.692
REMARK UNBOUND:                -0.661
REMARK  Name = 
REMARK  6 active torsions:
REMARK  status: ('A' for Active; 'I' for Inactive)
REMARK    1  A    between atoms: N_1  and  C_2
REMARK    2  A    between atoms: C_2  and  C_3
REMARK    3  A    between atoms: C_3  and  O_4
REMARK    4  A    between atoms: O_4  and  C_5
REMARK    5  A    between atoms: C_8  and  C_9
REMARK    6  A    between atoms: C_9  and  C_10
REMARK                            x       y       z     vdW  Elec       q    Type
REMARK                         _______ _______ _______ _____ _____    ______ ____
ROOT
ATOM      1  C   UNL     1      45.263   3.493   8.369  0.00  0.00    +0.000 A 
ATOM      2  C   UNL     1      44.558   2.948   9.441  0.00  0.00    +0.000 A 
ATOM      3  C   UNL     1      44.431   3.658  10.633  0.00  0.00    +0.000 A 
ATOM      4  C   UNL     1      44.990   4.940  10.770  0.00  0.00    +0.000 A 
ATOM      5  C   UNL     1      45.704   5.480   9.695  0.00  0.00    +0.000 A 
ATOM      6  C   UNL     1      45.826   4.763   8.503  0.00  0.00    +0.000 A 
ENDROOT
BRANCH   1   7
ATOM      7  O   UNL     1      45.450   2.903   7.149  0.00  0.00    +0.000 OA
BRANCH   7   8
ATOM      8  C   UNL     1      46.689   3.180   6.494  0.00  0.00    +0.000 C 
BRANCH   8   9
ATOM      9  C   UNL     1      47.645   2.013   6.758  0.00  0.00    +0.000 C 
BRANCH   9  10
ATOM     10  N   UNL     1      48.589   1.819   5.658  0.00  0.00    +0.000 NA
ATOM     11  H   UNL     1      49.017   2.714   5.425  0.00  0.00    +0.000 HD
ATOM     12  H   UNL     1      48.084   1.523   4.823  0.00  0.00    +0.000 HD
ENDBRANCH   9  10
ENDBRANCH   8   9
ENDBRANCH   7   8
ENDBRANCH   1   7
BRANCH   4  13
ATOM     13  C   UNL     1      44.787   5.719  12.036  0.00  0.00    +0.000 C 
BRANCH  13  14
ATOM     14  C   UNL     1      45.981   5.540  12.921  0.00  0.00    +0.000 A 
ATOM     15  C   UNL     1      46.097   4.709  14.021  0.00  0.00    +0.000 A 
ATOM     16  N   UNL     1      47.264   5.014  14.669  0.00  0.00    +0.000 N 
ATOM     17  C   UNL     1      47.815   6.147  14.119  0.00  0.00    +0.000 A 
ATOM     18  C   UNL     1      48.820   6.993  14.596  0.00  0.00    +0.000 A 
ATOM     19  C   UNL     1      49.206   8.058  13.776  0.00  0.00    +0.000 A 
ATOM     20  C   UNL     1      48.665   8.205  12.500  0.00  0.00    +0.000 A 
ATOM     21 CL   UNL     1      49.233   9.470  11.479  0.00  0.00    +0.000 Cl
ATOM     22  C   UNL     1      47.642   7.369  12.048  0.00  0.00    +0.000 A 
ATOM     23  C   UNL     1      47.153   6.367  12.911  0.00  0.00    +0.000 A 
ATOM     24  H   UNL     1      47.614   4.546  15.494  0.00  0.00    +0.000 HD
ENDBRANCH  13  14
ENDBRANCH   4  13
TORSDOF 6
ENDMDL
MODEL 3
REMARK VINA RESULT:    -6.766      3.432      6.887
REMARK INTER + INTRA:          -9.602
REMARK INTER:                  -8.921
REMARK INTRA:                  -0.681
REMARK UNBOUND:                -0.661
REMARK  Name = 
REMARK  6 active torsions:
REMARK  status: ('A' for Active; 'I' for Inactive)
REMARK    1  A    between atoms: N_1  and  C_2
REMARK    2  A    between atoms: C_2  and  C_3
REMARK    3  A    between atoms: C_3  and  O_4
REMARK    4  A    between atoms: O_4  and  C_5
REMARK    5  A    between atoms: C_8  and  C_9
REMARK    6  A    between atoms: C_9  and  C_10
REMARK                            x       y       z     vdW  Elec       q    Type
REMARK                         _______ _______ _______ _____ _____    ______ ____
ROOT
ATOM      1  C   UNL     1      48.032   6.484  13.275  0.00  0.00    +0.000 A 
ATOM      2  C   UNL     1      47.828   7.052  12.018  0.00  0.00    +0.000 A 
ATOM      3  C   UNL     1      46.624   6.856  11.344  0.00  0.00    +0.000 A 
ATOM      4  C   UNL     1      45.589   6.103  11.926  0.00  0.00    +0.000 A 
ATOM      5  C   UNL     1      45.800   5.529  13.183  0.00  0.00    +0.000 A 
ATOM      6  C   UNL     1      47.010   5.732  13.853  0.00  0.00    +0.000 A 
ENDROOT
BRANCH   1   7
ATOM      7  O   UNL     1      49.160   6.611  14.039  0.00  0.00    +0.000 OA
BRANCH   7   8
ATOM      8  C   UNL     1      48.996   7.234  15.313  0.00  0.00    +0.000 C 
BRANCH   8   9
ATOM      9  C   UNL     1      48.787   8.735  15.093  0.00  0.00    +0.000 C 
BRANCH   9  10
ATOM     10  N   UNL     1      47.672   9.255  15.884  0.00  0.00    +0.000 NA
ATOM     11  H   UNL     1      47.884  10.210  16.169  0.00  0.00    +0.000 HD
ATOM     12  H   UNL     1      47.586   8.717  16.746  0.00  0.00    +0.000 HD
ENDBRANCH   9  10
ENDBRANCH   8   9
ENDBRANCH   7   8
ENDBRANCH   1   7
BRANCH   4  13
ATOM     13  C   UNL     1      44.275   5.958  11.217  0.00  0.00    +0.000 C 
BRANCH  13  14
ATOM     14  C   UNL     1      44.076   4.524  10.839  0.00  0.00    +0.000 A 
ATOM     15  C   UNL     1      43.533   3.515  11.616  0.00  0.00    +0.000 A 
ATOM     16  N   UNL     1      43.739   2.322  10.977  0.00  0.00    +0.000 N 
ATOM     17  C   UNL     1      44.565   2.515   9.895  0.00  0.00    +0.000 A 
ATOM     18  C   UNL     1      45.275   1.594   9.117  0.00  0.00    +0.000 A 
ATOM     19  C   UNL     1      46.004   2.097   8.035  0.00  0.00    +0.000 A 
ATOM     20  C   UNL     1      45.944   3.448   7.702  0.00  0.00    +0.000 A 
ATOM     21 CL   UNL     1      46.775   4.016   6.305  0.00  0.00    +0.000 Cl
ATOM     22  C   UNL     1      45.253   4.359   8.504  0.00  0.00    +0.000 A 
ATOM     23  C   UNL     1      44.615   3.891   9.670  0.00  0.00    +0.000 A 
ATOM     24  H   UNL     1      43.425   1.420  11.308  0.00  0.00    +0.000 HD
ENDBRANCH  13  14
ENDBRANCH   4  13
TORSDOF 6
ENDMDL
MODEL 4
REMARK VINA RESULT:    -6.758      3.599      7.039
REMARK INTER + INTRA:          -9.592
REMARK INTER:                  -9.439
REMARK INTRA:                  -0.153
REMARK UNBOUND:                -0.661
REMARK  Name = 
REMARK  6 active torsions:
REMARK  status: ('A' for Active; 'I' for Inactive)
REMARK    1  A    between atoms: N_1  and  C_2
REMARK    2  A    between atoms: C_2  and  C_3
REMARK    3  A    between atoms: C_3  and  O_4
REMARK    4  A    between atoms: O_4  and  C_5
REMARK    5  A    between atoms: C_8  and  C_9
REMARK    6  A    between atoms: C_9  and  C_10
REMARK                            x       y       z     vdW  Elec       q    Type
REMARK                         _______ _______ _______ _____ _____    ______ ____
ROOT
ATOM      1  C   UNL     1      47.864   5.515  14.863  0.00  0.00    +0.000 A 
ATOM      2  C   UNL     1      47.958   6.761  14.245  0.00  0.00    +0.000 A 
ATOM      3  C   UNL     1      47.133   7.076  13.167  0.00  0.00    +0.000 A 
ATOM      4  C   UNL     1      46.179   6.156  12.698  0.00  0.00    +0.000 A 
ATOM      5  C   UNL     1      46.094   4.904  13.316  0.00  0.00    +0.000 A 
ATOM      6  C   UNL     1      46.923   4.596  14.397  0.00  0.00    +0.000 A 
ENDROOT
BRANCH   1   7
ATOM      7  O   UNL     1      48.607   5.091  15.931  0.00  0.00    +0.000 OA
BRANCH   7   8
ATOM      8  C   UNL     1      47.934   5.036  17.189  0.00  0.00    +0.000 C 
BRANCH   8   9
ATOM      9  C   UNL     1      47.982   3.594  17.700  0.00  0.00    +0.000 C 
BRANCH   9  10
ATOM     10  N   UNL     1      46.667   2.954  17.659  0.00  0.00    +0.000 NA
ATOM     11  H   UNL     1      45.976   3.591  18.051  0.00  0.00    +0.000 HD
ATOM     12  H   UNL     1      46.669   2.133  18.264  0.00  0.00    +0.000 HD
ENDBRANCH   9  10
ENDBRANCH   8   9
ENDBRANCH   7   8
ENDBRANCH   1   7
BRANCH   4  13
ATOM     13  C   UNL     1      45.254   6.534  11.581  0.00  0.00    +0.000 C 
BRANCH  13  14
ATOM     14  C   UNL     1      44.474   5.330  11.157  0.00  0.00    +0.000 A 
ATOM     15  C   UNL     1      43.503   4.658  11.880  0.00  0.00    +0.000 A 
ATOM     16  N   UNL     1      43.207   3.494  11.222  0.00  0.00    +0.000 N 
ATOM     17  C   UNL     1      44.095   3.308  10.190  0.00  0.00    +0.000 A 
ATOM     18  C   UNL     1      44.379   2.171   9.428  0.00  0.00    +0.000 A 
ATOM     19  C   UNL     1      45.314   2.306   8.397  0.00  0.00    +0.000 A 
ATOM     20  C   UNL     1      45.866   3.549   8.096  0.00  0.00    +0.000 A 
ATOM     21 CL   UNL     1      46.941   3.698   6.758  0.00  0.00    +0.000 Cl
ATOM     22  C   UNL     1      45.595   4.670   8.883  0.00  0.00    +0.000 A 
ATOM     23  C   UNL     1      44.751   4.525  10.002  0.00  0.00    +0.000 A 
ATOM     24  H   UNL     1      42.514   2.818  11.515  0.00  0.00    +0.000 HD
ENDBRANCH  13  14
ENDBRANCH   4  13
TORSDOF 6
ENDMDL
MODEL 5
REMARK VINA RESULT:    -6.554      2.309      3.137
REMARK INTER + INTRA:          -9.323
REMARK INTER:                  -8.795
REMARK INTRA:                  -0.528
REMARK UNBOUND:                -0.661
REMARK  Name = 
REMARK  6 active torsions:
REMARK  status: ('A' for Active; 'I' for Inactive)
REMARK    1  A    between atoms: N_1  and  C_2
REMARK    2  A    between atoms: C_2  and  C_3
REMARK    3  A    between atoms: C_3  and  O_4
REMARK    4  A    between atoms: O_4  and  C_5
REMARK    5  A    between atoms: C_8  and  C_9
REMARK    6  A    between atoms: C_9  and  C_10
REMARK                            x       y       z     vdW  Elec       q    Type
REMARK                         _______ _______ _______ _____ _____    ______ ____
ROOT
ATOM      1  C   UNL     1      45.766   2.833   8.010  0.00  0.00    +0.000 A 
ATOM      2  C   UNL     1      45.809   4.211   8.210  0.00  0.00    +0.000 A 
ATOM      3  C   UNL     1      45.236   4.776   9.348  0.00  0.00    +0.000 A 
ATOM      4  C   UNL     1      44.625   3.967  10.322  0.00  0.00    +0.000 A 
ATOM      5  C   UNL     1      44.576   2.585  10.114  0.00  0.00    +0.000 A 
ATOM      6  C   UNL     1      45.155   2.027   8.971  0.00  0.00    +0.000 A 
ENDROOT
BRANCH   1   7
ATOM      7  O   UNL     1      46.298   2.159   6.944  0.00  0.00    +0.000 OA
BRANCH   7   8
ATOM      8  C   UNL     1      46.503   2.919   5.753  0.00  0.00    +0.000 C 
BRANCH   8   9
ATOM      9  C   UNL     1      47.786   2.424   5.079  0.00  0.00    +0.000 C 
BRANCH   9  10
ATOM     10  N   UNL     1      48.689   1.776   6.030  0.00  0.00    +0.000 NA
ATOM     11  H   UNL     1      49.278   2.485   6.465  0.00  0.00    +0.000 HD
ATOM     12  H   UNL     1      49.322   1.153   5.529  0.00  0.00    +0.000 HD
ENDBRANCH   9  10
ENDBRANCH   8   9
ENDBRANCH   7   8
ENDBRANCH   1   7
BRANCH   4  13
ATOM     13  C   UNL     1      44.072   4.583  11.572  0.00  0.00    +0.000 C 
BRANCH  13  14
ATOM     14  C   UNL     1      45.081   5.530  12.143  0.00  0.00    +0.000 A 
ATOM     15  C   UNL     1      46.020   5.268  13.125  0.00  0.00    +0.000 A 
ATOM     16  N   UNL     1      46.586   6.455  13.506  0.00  0.00    +0.000 N 
ATOM     17  C   UNL     1      45.905   7.498  12.926  0.00  0.00    +0.000 A 
ATOM     18  C   UNL     1      45.916   8.866  13.217  0.00  0.00    +0.000 A 
ATOM     19  C   UNL     1      45.139   9.701  12.407  0.00  0.00    +0.000 A 
ATOM     20  C   UNL     1      44.458   9.189  11.305  0.00  0.00    +0.000 A 
ATOM     21 CL   UNL     1      43.590  10.260  10.272  0.00  0.00    +0.000 Cl
ATOM     22  C   UNL     1      44.433   7.818  11.043  0.00  0.00    +0.000 A 
ATOM     23  C   UNL     1      45.109   6.947  11.922  0.00  0.00    +0.000 A 
ATOM     24  H   UNL     1      47.321   6.558  14.194  0.00  0.00    +0.000 HD
ENDBRANCH  13  14
ENDBRANCH   4  13
TORSDOF 6
ENDMDL
MODEL 6
REMARK VINA RESULT:    -6.450      4.081      6.846
REMARK INTER + INTRA:          -9.185
REMARK INTER:                  -8.497
REMARK INTRA:                  -0.687
REMARK UNBOUND:                -0.661
REMARK  Name = 
REMARK  6 active torsions:
REMARK  status: ('A' for Active; 'I' for Inactive)
REMARK    1  A    between atoms: N_1  and  C_2
REMARK    2  A    between atoms: C_2  and  C_3
REMARK    3  A    between atoms: C_3  and  O_4
REMARK    4  A    between atoms: O_4  and  C_5
REMARK    5  A    between atoms: C_8  and  C_9
REMARK    6  A    between atoms: C_9  and  C_10
REMARK                            x       y       z     vdW  Elec       q    Type
REMARK                         _______ _______ _______ _____ _____    ______ ____
ROOT
ATOM      1  C   UNL     1      48.037   5.056  16.287  0.00  0.00    +0.000 A 
ATOM      2  C   UNL     1      47.232   4.462  15.317  0.00  0.00    +0.000 A 
ATOM      3  C   UNL     1      47.127   5.028  14.047  0.00  0.00    +0.000 A 
ATOM      4  C   UNL     1      47.846   6.190  13.716  0.00  0.00    +0.000 A 
ATOM      5  C   UNL     1      48.646   6.787  14.695  0.00  0.00    +0.000 A 
ATOM      6  C   UNL     1      48.747   6.213  15.965  0.00  0.00    +0.000 A 
ENDROOT
BRANCH   1   7
ATOM      7  O   UNL     1      48.230   4.595  17.561  0.00  0.00    +0.000 OA
BRANCH   7   8
ATOM      8  C   UNL     1      48.271   3.177  17.723  0.00  0.00    +0.000 C 
BRANCH   8   9
ATOM      9  C   UNL     1      49.669   2.687  17.336  0.00  0.00    +0.000 C 
BRANCH   9  10
ATOM     10  N   UNL     1      49.635   1.786  16.184  0.00  0.00    +0.000 NA
ATOM     11  H   UNL     1      49.344   2.311  15.361  0.00  0.00    +0.000 HD
ATOM     12  H   UNL     1      48.920   1.074  16.330  0.00  0.00    +0.000 HD
ENDBRANCH   9  10
ENDBRANCH   8   9
ENDBRANCH   7   8
ENDBRANCH   1   7
BRANCH   4  13
ATOM     13  C   UNL     1      47.775   6.747  12.326  0.00  0.00    +0.000 C 
BRANCH  13  14
ATOM     14  C   UNL     1      46.349   7.053  11.990  0.00  0.00    +0.000 A 
ATOM     15  C   UNL     1      45.603   8.145  12.397  0.00  0.00    +0.000 A 
ATOM     16  N   UNL     1      44.296   7.925  12.053  0.00  0.00    +0.000 N 
ATOM     17  C   UNL     1      44.149   6.636  11.600  0.00  0.00    +0.000 A 
ATOM     18  C   UNL     1      42.998   5.867  11.404  0.00  0.00    +0.000 A 
ATOM     19  C   UNL     1      43.166   4.582  10.877  0.00  0.00    +0.000 A 
ATOM     20  C   UNL     1      44.426   4.134  10.484  0.00  0.00    +0.000 A 
ATOM     21 CL   UNL     1      44.584   2.584   9.749  0.00  0.00    +0.000 Cl
ATOM     22  C   UNL     1      45.569   4.902  10.712  0.00  0.00    +0.000 A 
ATOM     23  C   UNL     1      45.433   6.148  11.356  0.00  0.00    +0.000 A 
ATOM     24  H   UNL     1      43.534   8.571  12.210  0.00  0.00    +0.000 HD
ENDBRANCH  13  14
ENDBRANCH   4  13
TORSDOF 6
ENDMDL
MODEL 7
REMARK VINA RESULT:    -6.110      3.128      4.291
REMARK INTER + INTRA:          -8.735
REMARK INTER:                  -8.251
REMARK INTRA:                  -0.485
REMARK UNBOUND:                -0.661
REMARK  Name = 
REMARK  6 active torsions:
REMARK  status: ('A' for Active; 'I' for Inactive)
REMARK    1  A    between atoms: N_1  and  C_2
REMARK    2  A    between atoms: C_2  and  C_3
REMARK    3  A    between atoms: C_3  and  O_4
REMARK    4  A    between atoms: O_4  and  C_5
REMARK    5  A    between atoms: C_8  and  C_9
REMARK    6  A    between atoms: C_9  and  C_10
REMARK                            x       y       z     vdW  Elec       q    Type
REMARK                         _______ _______ _______ _____ _____    ______ ____
ROOT
ATOM      1  C   UNL     1      44.903   3.777   9.354  0.00  0.00    +0.000 A 
ATOM      2  C   UNL     1      45.695   4.923   9.391  0.00  0.00    +0.000 A 
ATOM      3  C   UNL     1      45.636   5.784  10.486  0.00  0.00    +0.000 A 
ATOM      4  C   UNL     1      44.797   5.502  11.578  0.00  0.00    +0.000 A 
ATOM      5  C   UNL     1      43.998   4.355  11.533  0.00  0.00    +0.000 A 
ATOM      6  C   UNL     1      44.064   3.496  10.433  0.00  0.00    +0.000 A 
ENDROOT
BRANCH   1   7
ATOM      7  O   UNL     1      44.877   2.852   8.346  0.00  0.00    +0.000 OA
BRANCH   7   8
ATOM      8  C   UNL     1      45.400   1.560   8.657  0.00  0.00    +0.000 C 
BRANCH   8   9
ATOM      9  C   UNL     1      46.616   1.304   7.762  0.00  0.00    +0.000 C 
BRANCH   9  10
ATOM     10  N   UNL     1      47.029  -0.099   7.788  0.00  0.00    +0.000 NA
ATOM     11  H   UNL     1      46.218  -0.687   7.600  0.00  0.00    +0.000 HD
ATOM     12  H   UNL     1      47.343  -0.345   8.726  0.00  0.00    +0.000 HD
ENDBRANCH   9  10
ENDBRANCH   8   9
ENDBRANCH   7   8
ENDBRANCH   1   7
BRANCH   4  13
ATOM     13  C   UNL     1      44.795   6.402  12.777  0.00  0.00    +0.000 C 
BRANCH  13  14
ATOM     14  C   UNL     1      45.547   7.655  12.454  0.00  0.00    +0.000 A 
ATOM     15  C   UNL     1      46.789   8.038  12.929  0.00  0.00    +0.000 A 
ATOM     16  N   UNL     1      47.006   9.340  12.564  0.00  0.00    +0.000 N 
ATOM     17  C   UNL     1      45.856   9.866  12.025  0.00  0.00    +0.000 A 
ATOM     18  C   UNL     1      45.495  11.192  11.771  0.00  0.00    +0.000 A 
ATOM     19  C   UNL     1      44.256  11.414  11.161  0.00  0.00    +0.000 A 
ATOM     20  C   UNL     1      43.466  10.345  10.746  0.00  0.00    +0.000 A 
ATOM     21 CL   UNL     1      41.992  10.653   9.910  0.00  0.00    +0.000 Cl
ATOM     22  C   UNL     1      43.827   9.026  11.031  0.00  0.00    +0.000 A 
ATOM     23  C   UNL     1      45.011   8.788  11.756  0.00  0.00    +0.000 A 
ATOM     24  H   UNL     1      47.845   9.870  12.760  0.00  0.00    +0.000 HD
ENDBRANCH  13  14
ENDBRANCH   4  13
TORSDOF 6
ENDMDL
MODEL 8
REMARK VINA RESULT:    -5.394      4.128      6.427
REMARK INTER + INTRA:          -7.789
REMARK INTER:                  -6.928
REMARK INTRA:                  -0.862
REMARK UNBOUND:                -0.661
REMARK  Name = 
REMARK  6 active torsions:
REMARK  status: ('A' for Active; 'I' for Inactive)
REMARK    1  A    between atoms: N_1  and  C_2
REMARK    2  A    between atoms: C_2  and  C_3
REMARK    3  A    between atoms: C_3  and  O_4
REMARK    4  A    between atoms: O_4  and  C_5
REMARK    5  A    between atoms: C_8  and  C_9
REMARK    6  A    between atoms: C_9  and  C_10
REMARK                            x       y       z     vdW  Elec       q    Type
REMARK                         _______ _______ _______ _____ _____    ______ ____
ROOT
ATOM      1  C   UNL     1      45.557   7.128  12.228  0.00  0.00    +0.000 A 
ATOM      2  C   UNL     1      46.003   8.286  12.864  0.00  0.00    +0.000 A 
ATOM      3  C   UNL     1      47.204   8.282  13.571  0.00  0.00    +0.000 A 
ATOM      4  C   UNL     1      47.996   7.122  13.638  0.00  0.00    +0.000 A 
ATOM      5  C   UNL     1      47.540   5.960  13.005  0.00  0.00    +0.000 A 
ATOM      6  C   UNL     1      46.336   5.973  12.297  0.00  0.00    +0.000 A 
ENDROOT
BRANCH   1   7
ATOM      7  O   UNL     1      44.406   7.007  11.498  0.00  0.00    +0.000 OA
BRANCH   7   8
ATOM      8  C   UNL     1      43.962   5.676  11.232  0.00  0.00    +0.000 C 
BRANCH   8   9
ATOM      9  C   UNL     1      42.575   5.496  11.857  0.00  0.00    +0.000 C 
BRANCH   9  10
ATOM     10  N   UNL     1      42.640   5.395  13.314  0.00  0.00    +0.000 NA
ATOM     11  H   UNL     1      42.415   6.302  13.720  0.00  0.00    +0.000 HD
ATOM     12  H   UNL     1      43.597   5.189  13.600  0.00  0.00    +0.000 HD
ENDBRANCH   9  10
ENDBRANCH   8   9
ENDBRANCH   7   8
ENDBRANCH   1   7
BRANCH   4  13
ATOM     13  C   UNL     1      49.317   7.153  14.345  0.00  0.00    +0.000 C 
BRANCH  13  14
ATOM     14  C   UNL     1      49.086   7.337  15.812  0.00  0.00    +0.000 A 
ATOM     15  C   UNL     1      49.464   8.414  16.596  0.00  0.00    +0.000 A 
ATOM     16  N   UNL     1      49.261   8.082  17.909  0.00  0.00    +0.000 N 
ATOM     17  C   UNL     1      48.934   6.750  18.003  0.00  0.00    +0.000 A 
ATOM     18  C   UNL     1      48.909   5.897  19.110  0.00  0.00    +0.000 A 
ATOM     19  C   UNL     1      48.481   4.582  18.897  0.00  0.00    +0.000 A 
ATOM     20  C   UNL     1      48.016   4.179  17.647  0.00  0.00    +0.000 A 
ATOM     21 CL   UNL     1      47.405   2.582  17.444  0.00  0.00    +0.000 Cl
ATOM     22  C   UNL     1      48.073   5.035  16.545  0.00  0.00    +0.000 A 
ATOM     23  C   UNL     1      48.618   6.323  16.713  0.00  0.00    +0.000 A 
ATOM     24  H   UNL     1      49.430   8.691  18.698  0.00  0.00    +0.000 HD
ENDBRANCH  13  14
ENDBRANCH   4  13
TORSDOF 6
ENDMDL
MODEL 9
REMARK VINA RESULT:    -5.383      3.326      5.068
REMARK INTER + INTRA:          -7.774
REMARK INTER:                  -7.034
REMARK INTRA:                  -0.740
REMARK UNBOUND:                -0.661
REMARK  Name = 
REMARK  6 active torsions:
REMARK  status: ('A' for Active; 'I' for Inactive)
REMARK    1  A    between atoms: N_1  and  C_2
REMARK    2  A    between atoms: C_2  and  C_3
REMARK    3  A    between atoms: C_3  and  O_4
REMARK    4  A    between atoms: O_4  and  C_5
REMARK    5  A    between atoms: C_8  and  C_9
REMARK    6  A    between atoms: C_9  and  C_10
REMARK                            x       y       z     vdW  Elec       q    Type
REMARK                         _______ _______ _______ _____ _____    ______ ____
ROOT
ATOM      1  C   UNL     1      45.201   5.149  11.760  0.00  0.00    +0.000 A 
ATOM      2  C   UNL     1      45.764   4.630  12.925  0.00  0.00    +0.000 A 
ATOM      3  C   UNL     1      46.945   5.166  13.436  0.00  0.00    +0.000 A 
ATOM      4  C   UNL     1      47.576   6.250  12.801  0.00  0.00    +0.000 A 
ATOM      5  C   UNL     1      47.013   6.763  11.627  0.00  0.00    +0.000 A 
ATOM      6  C   UNL     1      45.828   6.220  11.123  0.00  0.00    +0.000 A 
ENDROOT
BRANCH   1   7
ATOM      7  O   UNL     1      44.046   4.719  11.167  0.00  0.00    +0.000 OA
BRANCH   7   8
ATOM      8  C   UNL     1      43.995   3.338  10.805  0.00  0.00    +0.000 C 
BRANCH   8   9
ATOM      9  C   UNL     1      44.675   3.170   9.443  0.00  0.00    +0.000 C 
BRANCH   9  10
ATOM     10  N   UNL     1      44.170   4.126   8.457  0.00  0.00    +0.000 NA
ATOM     11  H   UNL     1      43.153   4.158   8.517  0.00  0.00    +0.000 HD
ATOM     12  H   UNL     1      44.386   3.792   7.518  0.00  0.00    +0.000 HD
ENDBRANCH   9  10
ENDBRANCH   8   9
ENDBRANCH   7   8
ENDBRANCH   1   7
BRANCH   4  13
ATOM     13  C   UNL     1      48.809   6.859  13.399  0.00  0.00    +0.000 C 
BRANCH  13  14
ATOM     14  C   UNL     1      48.438   7.596  14.648  0.00  0.00    +0.000 A 
ATOM     15  C   UNL     1      47.936   8.881  14.750  0.00  0.00    +0.000 A 
ATOM     16  N   UNL     1      47.946   9.243  16.070  0.00  0.00    +0.000 N 
ATOM     17  C   UNL     1      48.614   8.293  16.804  0.00  0.00    +0.000 A 
ATOM     18  C   UNL     1      49.123   8.341  18.106  0.00  0.00    +0.000 A 
ATOM     19  C   UNL     1      49.721   7.179  18.604  0.00  0.00    +0.000 A 
ATOM     20  C   UNL     1      49.724   6.003  17.857  0.00  0.00    +0.000 A 
ATOM     21 CL   UNL     1      50.382   4.566  18.539  0.00  0.00    +0.000 Cl
ATOM     22  C   UNL     1      49.237   5.978  16.548  0.00  0.00    +0.000 A 
ATOM     23  C   UNL     1      48.744   7.172  15.984  0.00  0.00    +0.000 A 
ATOM     24  H   UNL     1      47.611  10.124  16.437  0.00  0.00    +0.000 HD
ENDBRANCH  13  14
ENDBRANCH   4  13
TORSDOF 6
ENDMDL
