MODEL 1
REMARK VINA RESULT:    -7.711      0.000      0.000
REMARK INTER + INTRA:          -9.913
REMARK INTER:                  -9.740
REMARK INTRA:                  -0.173
REMARK UNBOUND:                -0.173
REMARK  Name = 
REMARK  5 active torsions:
REMARK  status: ('A' for Active; 'I' for Inactive)
REMARK    1  A    between atoms: N_1  and  C_2
REMARK    2  A    between atoms: C_2  and  C_3
REMARK    3  A    between atoms: C_5  and  C_6
REMARK    4  A    between atoms: C_6  and  N_7
REMARK    5  A    between atoms: C_14  and  C_15
REMARK                            x       y       z     vdW  Elec       q    Type
REMARK                         _______ _______ _______ _____ _____    ______ ____
ROOT
ATOM      1  N   UNL     1      44.400   4.154  10.663  0.00  0.00    +0.000 N 
ATOM      2  C   UNL     1      43.663   3.225  11.357  0.00  0.00    +0.000 A 
ATOM      3  C   UNL     1      44.060   3.256  12.671  0.00  0.00    +0.000 A 
ATOM      4  C   UNL     1      45.094   4.220  12.784  0.00  0.00    +0.000 A 
ATOM      5  C   UNL     1      45.867   4.673  13.867  0.00  0.00    +0.000 A 
ATOM      6  C   UNL     1      46.851   5.635  13.648  0.00  0.00    +0.000 A 
ATOM      7  F   UNL     1      47.573   6.030  14.709  0.00  0.00    +0.000 F 
ATOM      8  C   UNL     1      47.084   6.166  12.378  0.00  0.00    +0.000 A 
ATOM      9  C   UNL     1      46.300   5.740  11.287  0.00  0.00    +0.000 A 
ATOM     10  C   UNL     1      45.308   4.763  11.511  0.00  0.00    +0.000 A 
ENDROOT
BRANCH   8  11
ATOM     11  C   UNL     1      48.151   7.175  12.128  0.00  0.00    +0.000 C 
ATOM     12  N   UNL     1      49.451   6.803  12.325  0.00  0.00    +0.000 N 
ATOM     13  O   UNL     1      47.881   8.306  11.747  0.00  0.00    +0.000 OA
ATOM     14  H   UNL     1      49.723   5.878  12.637  0.00  0.00    +0.000 HD
ATOM     15  H   UNL     1      50.179   7.481  12.142  0.00  0.00    +0.000 HD
ENDBRANCH   8  11
BRANCH   1  16
ATOM     16  C   UNL     1      44.161   4.473   9.262  0.00  0.00    +0.000 C 
BRANCH  16  19
ATOM     17  C   UNL     1      46.609   2.594   7.127  0.00  0.00    +0.000 C 
ATOM     18  C   UNL     1      46.060   3.926   7.611  0.00  0.00    +0.000 C 
ATOM     19  C   UNL     1      44.775   3.478   8.285  0.00  0.00    +0.000 C 
ATOM     20  C   UNL     1      45.233   2.193   8.966  0.00  0.00    +0.000 C 
ATOM     21  O   UNL     1      46.306   1.648   8.175  0.00  0.00    +0.000 OA
BRANCH  17  22
ATOM     22  C   UNL     1      48.104   2.587   6.777  0.00  0.00    +0.000 C 
BRANCH  22  23
ATOM     23  N   UNL     1      48.422   1.773   5.600  0.00  0.00    +0.000 NA
ATOM     24  H   UNL     1      47.871   0.916   5.631  0.00  0.00    +0.000 HD
ATOM     25  H   UNL     1      49.400   1.484   5.683  0.00  0.00    +0.000 HD
ENDBRANCH  22  23
ENDBRANCH  17  22
ENDBRANCH  16  19
ENDBRANCH   1  16
TORSDOF 5
ENDMDL
MODEL 2
REMARK VINA RESULT:    -7.222      2.457      5.944
REMARK INTER + INTRA:          -9.294
REMARK INTER:                  -8.734
REMARK INTRA:                  -0.560
REMARK UNBOUND:                -0.173
REMARK  Name = 
REMARK  5 active torsions:
REMARK  status: ('A' for Active; 'I' for Inactive)
REMARK    1  A    between atoms: N_1  and  C_2
REMARK    2  A    between atoms: C_2  and  C_3
REMARK    3  A    between atoms: C_5  and  C_6
REMARK    4  A    between atoms: C_6  and  N_7
REMARK    5  A    between atoms: C_14  and  C_15
REMARK                            x       y       z     vdW  Elec       q    Type
REMARK                         _______ _______ _______ _____ _____    ______ ____
ROOT
ATOM      1  N   UNL     1      44.172   5.556  11.106  0.00  0.00    +0.000 N 
ATOM      2  C   UNL     1      43.277   5.026  12.004  0.00  0.00    +0.000 A 
ATOM      3  C   UNL     1      43.166   3.679  11.757  0.00  0.00    +0.000 A 
ATOM      4  C   UNL     1      44.002   3.377  10.652  0.00  0.00    +0.000 A 
ATOM      5  C   UNL     1      44.287   2.183   9.965  0.00  0.00    +0.000 A 
ATOM      6  C   UNL     1      45.151   2.215   8.872  0.00  0.00    +0.000 A 
ATOM      7  F   UNL     1      45.385   1.054   8.238  0.00  0.00    +0.000 F 
ATOM      8  C   UNL     1      45.748   3.403   8.446  0.00  0.00    +0.000 A 
ATOM      9  C   UNL     1      45.492   4.602   9.141  0.00  0.00    +0.000 A 
ATOM     10  C   UNL     1      44.614   4.569  10.243  0.00  0.00    +0.000 A 
ENDROOT
BRANCH   8  11
ATOM     11  C   UNL     1      46.652   3.452   7.264  0.00  0.00    +0.000 C 
ATOM     12  N   UNL     1      47.639   2.513   7.165  0.00  0.00    +0.000 N 
ATOM     13  O   UNL     1      46.516   4.302   6.393  0.00  0.00    +0.000 OA
ATOM     14  H   UNL     1      47.788   1.789   7.859  0.00  0.00    +0.000 HD
ATOM     15  H   UNL     1      48.245   2.534   6.356  0.00  0.00    +0.000 HD
ENDBRANCH   8  11
BRANCH   1  16
ATOM     16  C   UNL     1      44.619   6.941  11.154  0.00  0.00    +0.000 C 
BRANCH  16  19
ATOM     17  C   UNL     1      47.355   7.556  13.648  0.00  0.00    +0.000 C 
ATOM     18  C   UNL     1      46.729   6.649  12.602  0.00  0.00    +0.000 C 
ATOM     19  C   UNL     1      45.372   7.307  12.428  0.00  0.00    +0.000 C 
ATOM     20  C   UNL     1      45.751   8.783  12.483  0.00  0.00    +0.000 C 
ATOM     21  O   UNL     1      46.927   8.892  13.307  0.00  0.00    +0.000 OA
BRANCH  17  22
ATOM     22  C   UNL     1      48.883   7.467  13.766  0.00  0.00    +0.000 C 
BRANCH  22  23
ATOM     23  N   UNL     1      49.502   6.660  12.709  0.00  0.00    +0.000 NA
ATOM     24  H   UNL     1      49.745   5.746  13.090  0.00  0.00    +0.000 HD
ATOM     25  H   UNL     1      50.388   7.107  12.461  0.00  0.00    +0.000 HD
ENDBRANCH  22  23
ENDBRANCH  17  22
ENDBRANCH  16  19
ENDBRANCH   1  16
TORSDOF 5
ENDMDL
MODEL 3
REMARK VINA RESULT:    -7.066      2.024      2.373
REMARK INTER + INTRA:          -9.097
REMARK INTER:                  -8.626
REMARK INTRA:                  -0.471
REMARK UNBOUND:                -0.173
REMARK  Name = 
REMARK  5 active torsions:
REMARK  status: ('A' for Active; 'I' for Inactive)
REMARK    1  A    between atoms: N_1  and  C_2
REMARK    2  A    between atoms: C_2  and  C_3
REMARK    3  A    between atoms: C_5  and  C_6
REMARK    4  A    between atoms: C_6  and  N_7
REMARK    5  A    between atoms: C_14  and  C_15
REMARK                            x       y       z     vdW  Elec       q    Type
REMARK                         _______ _______ _______ _____ _____    ______ ____
ROOT
ATOM      1  N   UNL     1      45.023   4.444  12.030  0.00  0.00    +0.000 N 
ATOM      2  C   UNL     1      45.707   3.383  12.573  0.00  0.00    +0.000 A 
ATOM      3  C   UNL     1      46.719   3.879  13.357  0.00  0.00    +0.000 A 
ATOM      4  C   UNL     1      46.672   5.294  13.272  0.00  0.00    +0.000 A 
ATOM      5  C   UNL     1      47.446   6.315  13.852  0.00  0.00    +0.000 A 
ATOM      6  C   UNL     1      47.163   7.644  13.544  0.00  0.00    +0.000 A 
ATOM      7  F   UNL     1      47.936   8.585  14.110  0.00  0.00    +0.000 F 
ATOM      8  C   UNL     1      46.122   7.988  12.680  0.00  0.00    +0.000 A 
ATOM      9  C   UNL     1      45.320   6.977  12.113  0.00  0.00    +0.000 A 
ATOM     10  C   UNL     1      45.612   5.633  12.421  0.00  0.00    +0.000 A 
ENDROOT
BRANCH   8  11
ATOM     11  C   UNL     1      45.827   9.405  12.325  0.00  0.00    +0.000 C 
ATOM     12  N   UNL     1      44.577   9.889  12.585  0.00  0.00    +0.000 N 
ATOM     13  O   UNL     1      46.680  10.125  11.822  0.00  0.00    +0.000 OA
ATOM     14  H   UNL     1      43.841   9.332  13.002  0.00  0.00    +0.000 HD
ATOM     15  H   UNL     1      44.379  10.855  12.359  0.00  0.00    +0.000 HD
ENDBRANCH   8  11
BRANCH   1  16
ATOM     16  C   UNL     1      43.812   4.287  11.236  0.00  0.00    +0.000 C 
BRANCH  16  19
ATOM     17  C   UNL     1      45.496   3.714   7.931  0.00  0.00    +0.000 C 
ATOM     18  C   UNL     1      45.277   4.607   9.142  0.00  0.00    +0.000 C 
ATOM     19  C   UNL     1      44.069   3.939   9.774  0.00  0.00    +0.000 C 
ATOM     20  C   UNL     1      44.407   2.466   9.571  0.00  0.00    +0.000 C 
ATOM     21  O   UNL     1      45.218   2.373   8.385  0.00  0.00    +0.000 OA
BRANCH  17  22
ATOM     22  C   UNL     1      46.885   3.814   7.285  0.00  0.00    +0.000 C 
BRANCH  22  23
ATOM     23  N   UNL     1      46.923   3.313   5.907  0.00  0.00    +0.000 NA
ATOM     24  H   UNL     1      47.738   2.711   5.796  0.00  0.00    +0.000 HD
ATOM     25  H   UNL     1      47.079   4.116   5.293  0.00  0.00    +0.000 HD
ENDBRANCH  22  23
ENDBRANCH  17  22
ENDBRANCH  16  19
ENDBRANCH   1  16
TORSDOF 5
ENDMDL
MODEL 4
REMARK VINA RESULT:    -7.036      1.748      2.033
REMARK INTER + INTRA:          -9.059
REMARK INTER:                  -8.315
REMARK INTRA:                  -0.744
REMARK UNBOUND:                -0.173
REMARK  Name = 
REMARK  5 active torsions:
REMARK  status: ('A' for Active; 'I' for Inactive)
REMARK    1  A    between atoms: N_1  and  C_2
REMARK    2  A    between atoms: C_2  and  C_3
REMARK    3  A    between atoms: C_5  and  C_6
REMARK    4  A    between atoms: C_6  and  N_7
REMARK    5  A    between atoms: C_14  and  C_15
REMARK                            x       y       z     vdW  Elec       q    Type
REMARK                         _______ _______ _______ _____ _____    ______ ____
ROOT
ATOM      1  N   UNL     1      44.472   4.695  11.154  0.00  0.00    +0.000 N 
ATOM      2  C   UNL     1      43.239   5.240  10.887  0.00  0.00    +0.000 A 
ATOM      3  C   UNL     1      43.263   6.561  11.263  0.00  0.00    +0.000 A 
ATOM      4  C   UNL     1      44.546   6.830  11.803  0.00  0.00    +0.000 A 
ATOM      5  C   UNL     1      45.136   7.988  12.338  0.00  0.00    +0.000 A 
ATOM      6  C   UNL     1      46.439   7.926  12.827  0.00  0.00    +0.000 A 
ATOM      7  F   UNL     1      46.959   9.054  13.342  0.00  0.00    +0.000 F 
ATOM      8  C   UNL     1      47.178   6.742  12.792  0.00  0.00    +0.000 A 
ATOM      9  C   UNL     1      46.609   5.580  12.234  0.00  0.00    +0.000 A 
ATOM     10  C   UNL     1      45.289   5.644  11.744  0.00  0.00    +0.000 A 
ENDROOT
BRANCH   8  11
ATOM     11  C   UNL     1      48.562   6.659  13.335  0.00  0.00    +0.000 C 
ATOM     12  N   UNL     1      49.601   6.984  12.510  0.00  0.00    +0.000 N 
ATOM     13  O   UNL     1      48.772   6.319  14.493  0.00  0.00    +0.000 OA
ATOM     14  H   UNL     1      49.476   7.274  11.548  0.00  0.00    +0.000 HD
ATOM     15  H   UNL     1      50.541   6.944  12.881  0.00  0.00    +0.000 HD
ENDBRANCH   8  11
BRANCH   1  16
ATOM     16  C   UNL     1      44.841   3.338  10.775  0.00  0.00    +0.000 C 
BRANCH  16  19
ATOM     17  C   UNL     1      45.851   3.217   7.162  0.00  0.00    +0.000 C 
ATOM     18  C   UNL     1      45.730   4.010   8.453  0.00  0.00    +0.000 C 
ATOM     19  C   UNL     1      44.839   3.093   9.270  0.00  0.00    +0.000 C 
ATOM     20  C   UNL     1      45.404   1.726   8.897  0.00  0.00    +0.000 C 
ATOM     21  O   UNL     1      45.942   1.835   7.566  0.00  0.00    +0.000 OA
BRANCH  17  22
ATOM     22  C   UNL     1      47.022   3.617   6.253  0.00  0.00    +0.000 C 
BRANCH  22  23
ATOM     23  N   UNL     1      48.239   2.835   6.494  0.00  0.00    +0.000 NA
ATOM     24  H   UNL     1      47.980   1.936   6.899  0.00  0.00    +0.000 HD
ATOM     25  H   UNL     1      48.780   3.323   7.211  0.00  0.00    +0.000 HD
ENDBRANCH  22  23
ENDBRANCH  17  22
ENDBRANCH  16  19
ENDBRANCH   1  16
TORSDOF 5
ENDMDL
MODEL 5
REMARK VINA RESULT:    -6.868      4.187      7.854
REMARK INTER + INTRA:          -8.848
REMARK INTER:                  -8.381
REMARK INTRA:                  -0.467
REMARK UNBOUND:                -0.173
REMARK  Name = 
REMARK  5 active torsions:
REMARK  status: ('A' for Active; 'I' for Inactive)
REMARK    1  A    between atoms: N_1  and  C_2
REMARK    2  A    between atoms: C_2  and  C_3
REMARK    3  A    between atoms: C_5  and  C_6
REMARK    4  A    between atoms: C_6  and  N_7
REMARK    5  A    between atoms: C_14  and  C_15
REMARK                            x       y       z     vdW  Elec       q    Type
REMARK                         _______ _______ _______ _____ _____    ______ ____
ROOT
ATOM      1  N   UNL     1      47.132   5.073  14.336  0.00  0.00    +0.000 N 
ATOM      2  C   UNL     1      47.896   6.214  14.271  0.00  0.00    +0.000 A 
ATOM      3  C   UNL     1      47.660   6.821  13.062  0.00  0.00    +0.000 A 
ATOM      4  C   UNL     1      46.740   6.011  12.349  0.00  0.00    +0.000 A 
ATOM      5  C   UNL     1      46.144   6.128  11.081  0.00  0.00    +0.000 A 
ATOM      6  C   UNL     1      45.280   5.128  10.639  0.00  0.00    +0.000 A 
ATOM      7  F   UNL     1      44.743   5.274   9.416  0.00  0.00    +0.000 F 
ATOM      8  C   UNL     1      44.984   4.016  11.428  0.00  0.00    +0.000 A 
ATOM      9  C   UNL     1      45.553   3.899  12.712  0.00  0.00    +0.000 A 
ATOM     10  C   UNL     1      46.431   4.908  13.155  0.00  0.00    +0.000 A 
ENDROOT
BRANCH   8  11
ATOM     11  C   UNL     1      44.082   2.929  10.955  0.00  0.00    +0.000 C 
ATOM     12  N   UNL     1      44.518   2.122   9.943  0.00  0.00    +0.000 N 
ATOM     13  O   UNL     1      42.980   2.751  11.459  0.00  0.00    +0.000 OA
ATOM     14  H   UNL     1      45.422   2.229   9.498  0.00  0.00    +0.000 HD
ATOM     15  H   UNL     1      43.914   1.373   9.630  0.00  0.00    +0.000 HD
ENDBRANCH   8  11
BRANCH   1  16
ATOM     16  C   UNL     1      47.045   4.242  15.529  0.00  0.00    +0.000 C 
BRANCH  16  19
ATOM     17  C   UNL     1      49.186   4.633  18.587  0.00  0.00    +0.000 C 
ATOM     18  C   UNL     1      48.002   5.105  17.760  0.00  0.00    +0.000 C 
ATOM     19  C   UNL     1      48.248   4.363  16.459  0.00  0.00    +0.000 C 
ATOM     20  C   UNL     1      48.727   3.011  16.977  0.00  0.00    +0.000 C 
ATOM     21  O   UNL     1      49.364   3.242  18.248  0.00  0.00    +0.000 OA
BRANCH  17  22
ATOM     22  C   UNL     1      49.049   4.831  20.103  0.00  0.00    +0.000 C 
BRANCH  22  23
ATOM     23  N   UNL     1      48.284   3.767  20.761  0.00  0.00    +0.000 NA
ATOM     24  H   UNL     1      47.289   3.963  20.658  0.00  0.00    +0.000 HD
ATOM     25  H   UNL     1      48.481   3.822  21.763  0.00  0.00    +0.000 HD
ENDBRANCH  22  23
ENDBRANCH  17  22
ENDBRANCH  16  19
ENDBRANCH   1  16
TORSDOF 5
ENDMDL
MODEL 6
REMARK VINA RESULT:    -6.729      3.605      7.148
REMARK INTER + INTRA:          -8.672
REMARK INTER:                  -7.968
REMARK INTRA:                  -0.704
REMARK UNBOUND:                -0.173
REMARK  Name = 
REMARK  5 active torsions:
REMARK  status: ('A' for Active; 'I' for Inactive)
REMARK    1  A    between atoms: N_1  and  C_2
REMARK    2  A    between atoms: C_2  and  C_3
REMARK    3  A    between atoms: C_5  and  C_6
REMARK    4  A    between atoms: C_6  and  N_7
REMARK    5  A    between atoms: C_14  and  C_15
REMARK                            x       y       z     vdW  Elec       q    Type
REMARK                         _______ _______ _______ _____ _____    ______ ____
ROOT
ATOM      1  N   UNL     1      47.366   7.227  13.347  0.00  0.00    +0.000 N 
ATOM      2  C   UNL     1      47.119   8.579  13.316  0.00  0.00    +0.000 A 
ATOM      3  C   UNL     1      45.911   8.781  12.694  0.00  0.00    +0.000 A 
ATOM      4  C   UNL     1      45.411   7.512  12.307  0.00  0.00    +0.000 A 
ATOM      5  C   UNL     1      44.239   7.105  11.646  0.00  0.00    +0.000 A 
ATOM      6  C   UNL     1      44.042   5.752  11.377  0.00  0.00    +0.000 A 
ATOM      7  F   UNL     1      42.914   5.410  10.733  0.00  0.00    +0.000 F 
ATOM      8  C   UNL     1      44.977   4.788  11.755  0.00  0.00    +0.000 A 
ATOM      9  C   UNL     1      46.145   5.178  12.442  0.00  0.00    +0.000 A 
ATOM     10  C   UNL     1      46.345   6.547  12.709  0.00  0.00    +0.000 A 
ENDROOT
BRANCH   8  11
ATOM     11  C   UNL     1      44.788   3.342  11.450  0.00  0.00    +0.000 C 
ATOM     12  N   UNL     1      44.304   2.531  12.436  0.00  0.00    +0.000 N 
ATOM     13  O   UNL     1      45.048   2.886  10.343  0.00  0.00    +0.000 OA
ATOM     14  H   UNL     1      44.073   2.863  13.365  0.00  0.00    +0.000 HD
ATOM     15  H   UNL     1      44.160   1.552  12.227  0.00  0.00    +0.000 HD
ENDBRANCH   8  11
BRANCH   1  16
ATOM     16  C   UNL     1      48.508   6.644  14.038  0.00  0.00    +0.000 C 
BRANCH  16  19
ATOM     17  C   UNL     1      47.998   4.750  17.238  0.00  0.00    +0.000 C 
ATOM     18  C   UNL     1      47.697   4.906  15.757  0.00  0.00    +0.000 C 
ATOM     19  C   UNL     1      48.240   6.300  15.499  0.00  0.00    +0.000 C 
ATOM     20  C   UNL     1      49.511   6.280  16.341  0.00  0.00    +0.000 C 
ATOM     21  O   UNL     1      49.284   5.376  17.438  0.00  0.00    +0.000 OA
BRANCH  17  22
ATOM     22  C   UNL     1      47.985   3.308  17.764  0.00  0.00    +0.000 C 
BRANCH  22  23
ATOM     23  N   UNL     1      46.648   2.706  17.780  0.00  0.00    +0.000 NA
ATOM     24  H   UNL     1      46.045   3.258  18.389  0.00  0.00    +0.000 HD
ATOM     25  H   UNL     1      46.730   1.787  18.220  0.00  0.00    +0.000 HD
ENDBRANCH  22  23
ENDBRANCH  17  22
ENDBRANCH  16  19
ENDBRANCH   1  16
TORSDOF 5
ENDMDL
MODEL 7
REMARK VINA RESULT:    -6.429      3.739      6.532
REMARK INTER + INTRA:          -8.293
REMARK INTER:                  -7.895
REMARK INTRA:                  -0.398
REMARK UNBOUND:                -0.173
REMARK  Name = 
REMARK  5 active torsions:
REMARK  status: ('A' for Active; 'I' for Inactive)
REMARK    1  A    between atoms: N_1  and  C_2
REMARK    2  A    between atoms: C_2  and  C_3
REMARK    3  A    between atoms: C_5  and  C_6
REMARK    4  A    between atoms: C_6  and  N_7
REMARK    5  A    between atoms: C_14  and  C_15
REMARK                            x       y       z     vdW  Elec       q    Type
REMARK                         _______ _______ _______ _____ _____    ______ ____
ROOT
ATOM      1  N   UNL     1      44.616   6.142  11.879  0.00  0.00    +0.000 N 
ATOM      2  C   UNL     1      43.832   5.732  12.930  0.00  0.00    +0.000 A 
ATOM      3  C   UNL     1      43.470   4.425  12.712  0.00  0.00    +0.000 A 
ATOM      4  C   UNL     1      44.030   4.027  11.472  0.00  0.00    +0.000 A 
ATOM      5  C   UNL     1      43.995   2.822  10.748  0.00  0.00    +0.000 A 
ATOM      6  C   UNL     1      44.636   2.749   9.513  0.00  0.00    +0.000 A 
ATOM      7  F   UNL     1      44.566   1.583   8.851  0.00  0.00    +0.000 F 
ATOM      8  C   UNL     1      45.320   3.843   8.979  0.00  0.00    +0.000 A 
ATOM      9  C   UNL     1      45.386   5.049   9.705  0.00  0.00    +0.000 A 
ATOM     10  C   UNL     1      44.732   5.122  10.952  0.00  0.00    +0.000 A 
ENDROOT
BRANCH   8  11
ATOM     11  C   UNL     1      45.987   3.783   7.648  0.00  0.00    +0.000 C 
ATOM     12  N   UNL     1      47.166   4.453   7.486  0.00  0.00    +0.000 N 
ATOM     13  O   UNL     1      45.503   3.145   6.722  0.00  0.00    +0.000 OA
ATOM     14  H   UNL     1      47.605   4.991   8.223  0.00  0.00    +0.000 HD
ATOM     15  H   UNL     1      47.629   4.402   6.588  0.00  0.00    +0.000 HD
ENDBRANCH   8  11
BRANCH   1  16
ATOM     16  C   UNL     1      45.274   7.441  11.837  0.00  0.00    +0.000 C 
BRANCH  16  19
ATOM     17  C   UNL     1      42.715   9.872  10.560  0.00  0.00    +0.000 C 
ATOM     18  C   UNL     1      43.036   8.497  11.123  0.00  0.00    +0.000 C 
ATOM     19  C   UNL     1      44.548   8.478  10.987  0.00  0.00    +0.000 C 
ATOM     20  C   UNL     1      44.896   9.909  11.381  0.00  0.00    +0.000 C 
ATOM     21  O   UNL     1      43.773  10.736  11.027  0.00  0.00    +0.000 OA
BRANCH  17  22
ATOM     22  C   UNL     1      41.331  10.426  10.926  0.00  0.00    +0.000 C 
BRANCH  22  23
ATOM     23  N   UNL     1      40.391   9.393  11.372  0.00  0.00    +0.000 NA
ATOM     24  H   UNL     1      39.861   9.058  10.568  0.00  0.00    +0.000 HD
ATOM     25  H   UNL     1      39.711   9.843  11.991  0.00  0.00    +0.000 HD
ENDBRANCH  22  23
ENDBRANCH  17  22
ENDBRANCH  16  19
ENDBRANCH   1  16
TORSDOF 5
ENDMDL
MODEL 8
REMARK VINA RESULT:    -5.764      4.201      6.450
REMARK INTER + INTRA:          -7.453
REMARK INTER:                  -6.917
REMARK INTRA:                  -0.537
REMARK UNBOUND:                -0.173
REMARK  Name = 
REMARK  5 active torsions:
REMARK  status: ('A' for Active; 'I' for Inactive)
REMARK    1  A    between atoms: N_1  and  C_2
REMARK    2  A    between atoms: C_2  and  C_3
REMARK    3  A    between atoms: C_5  and  C_6
REMARK    4  A    between atoms: C_6  and  N_7
REMARK    5  A    between atoms: C_14  and  C_15
REMARK                            x       y       z     vdW  Elec       q    Type
REMARK                         _______ _______ _______ _____ _____    ______ ____
ROOT
ATOM      1  N   UNL     1      48.042   6.741  14.452  0.00  0.00    +0.000 N 
ATOM      2  C   UNL     1      48.231   8.099  14.367  0.00  0.00    +0.000 A 
ATOM      3  C   UNL     1      48.854   8.519  15.516  0.00  0.00    +0.000 A 
ATOM      4  C   UNL     1      49.030   7.384  16.347  0.00  0.00    +0.000 A 
ATOM      5  C   UNL     1      49.599   7.208  17.621  0.00  0.00    +0.000 A 
ATOM      6  C   UNL     1      49.597   5.941  18.200  0.00  0.00    +0.000 A 
ATOM      7  F   UNL     1      50.139   5.822  19.423  0.00  0.00    +0.000 F 
ATOM      8  C   UNL     1      49.050   4.838  17.542  0.00  0.00    +0.000 A 
ATOM      9  C   UNL     1      48.501   4.993  16.254  0.00  0.00    +0.000 A 
ATOM     10  C   UNL     1      48.499   6.277  15.672  0.00  0.00    +0.000 A 
ENDROOT
BRANCH   8  11
ATOM     11  C   UNL     1      49.020   3.484  18.163  0.00  0.00    +0.000 C 
ATOM     12  N   UNL     1      48.342   3.327  19.339  0.00  0.00    +0.000 N 
ATOM     13  O   UNL     1      49.577   2.529  17.637  0.00  0.00    +0.000 OA
ATOM     14  H   UNL     1      47.864   4.086  19.809  0.00  0.00    +0.000 HD
ATOM     15  H   UNL     1      48.307   2.406  19.755  0.00  0.00    +0.000 HD
ENDBRANCH   8  11
BRANCH   1  16
ATOM     16  C   UNL     1      47.511   5.942  13.355  0.00  0.00    +0.000 C 
BRANCH  16  19
ATOM     17  C   UNL     1      43.882   5.089  12.922  0.00  0.00    +0.000 C 
ATOM     18  C   UNL     1      44.997   6.118  12.825  0.00  0.00    +0.000 C 
ATOM     19  C   UNL     1      46.101   5.416  13.596  0.00  0.00    +0.000 C 
ATOM     20  C   UNL     1      45.922   3.978  13.122  0.00  0.00    +0.000 C 
ATOM     21  O   UNL     1      44.530   3.805  12.795  0.00  0.00    +0.000 OA
BRANCH  17  22
ATOM     22  C   UNL     1      42.749   5.251  11.899  0.00  0.00    +0.000 C 
BRANCH  22  23
ATOM     23  N   UNL     1      43.226   5.408  10.521  0.00  0.00    +0.000 NA
ATOM     24  H   UNL     1      43.646   4.531  10.215  0.00  0.00    +0.000 HD
ATOM     25  H   UNL     1      43.984   6.095  10.535  0.00  0.00    +0.000 HD
ENDBRANCH  22  23
ENDBRANCH  17  22
ENDBRANCH  16  19
ENDBRANCH   1  16
TORSDOF 5
ENDMDL
MODEL 9
REMARK VINA RESULT:    -5.606      4.214      7.434
REMARK INTER + INTRA:          -7.254
REMARK INTER:                  -6.842
REMARK INTRA:                  -0.412
REMARK UNBOUND:                -0.173
REMARK  Name = 
REMARK  5 active torsions:
REMARK  status: ('A' for Active; 'I' for Inactive)
REMARK    1  A    between atoms: N_1  and  C_2
REMARK    2  A    between atoms: C_2  and  C_3
REMARK    3  A    between atoms: C_5  and  C_6
REMARK    4  A    between atoms: C_6  and  N_7
REMARK    5  A    between atoms: C_14  and  C_15
REMARK                            x       y       z     vdW  Elec       q    Type
REMARK                         _______ _______ _______ _____ _____    ______ ____
ROOT
ATOM      1  N   UNL     1      48.485   8.170  12.711  0.00  0.00    +0.000 N 
ATOM      2  C   UNL     1      47.917   9.391  12.437  0.00  0.00    +0.000 A 
ATOM      3  C   UNL     1      46.552   9.237  12.420  0.00  0.00    +0.000 A 
ATOM      4  C   UNL     1      46.273   7.868  12.667  0.00  0.00    +0.000 A 
ATOM      5  C   UNL     1      45.076   7.138  12.764  0.00  0.00    +0.000 A 
ATOM      6  C   UNL     1      45.132   5.764  12.992  0.00  0.00    +0.000 A 
ATOM      7  F   UNL     1      43.965   5.104  13.065  0.00  0.00    +0.000 F 
ATOM      8  C   UNL     1      46.349   5.096  13.134  0.00  0.00    +0.000 A 
ATOM      9  C   UNL     1      47.557   5.820  13.066  0.00  0.00    +0.000 A 
ATOM     10  C   UNL     1      47.498   7.208  12.830  0.00  0.00    +0.000 A 
ENDROOT
BRANCH   8  11
ATOM     11  C   UNL     1      46.421   3.624  13.352  0.00  0.00    +0.000 C 
ATOM     12  N   UNL     1      45.581   2.823  12.631  0.00  0.00    +0.000 N 
ATOM     13  O   UNL     1      47.214   3.136  14.146  0.00  0.00    +0.000 OA
ATOM     14  H   UNL     1      44.912   3.181  11.961  0.00  0.00    +0.000 HD
ATOM     15  H   UNL     1      45.638   1.822  12.766  0.00  0.00    +0.000 HD
ENDBRANCH   8  11
BRANCH   1  16
ATOM     16  C   UNL     1      49.915   7.988  12.919  0.00  0.00    +0.000 C 
BRANCH  16  19
ATOM     17  C   UNL     1      50.946   7.297  16.461  0.00  0.00    +0.000 C 
ATOM     18  C   UNL     1      49.987   7.036  15.311  0.00  0.00    +0.000 C 
ATOM     19  C   UNL     1      50.359   8.164  14.367  0.00  0.00    +0.000 C 
ATOM     20  C   UNL     1      51.876   8.186  14.518  0.00  0.00    +0.000 C 
ATOM     21  O   UNL     1      52.181   7.719  15.845  0.00  0.00    +0.000 OA
BRANCH  17  22
ATOM     22  C   UNL     1      51.167   6.113  17.414  0.00  0.00    +0.000 C 
BRANCH  22  23
ATOM     23  N   UNL     1      50.474   4.891  16.994  0.00  0.00    +0.000 NA
ATOM     24  H   UNL     1      49.751   5.136  16.318  0.00  0.00    +0.000 HD
ATOM     25  H   UNL     1      49.982   4.521  17.811  0.00  0.00    +0.000 HD
ENDBRANCH  22  23
ENDBRANCH  17  22
ENDBRANCH  16  19
ENDBRANCH   1  16
TORSDOF 5
ENDMDL
