MODEL 1
REMARK VINA RESULT:    -8.582      0.000      0.000
REMARK INTER + INTRA:         -10.031
REMARK INTER:                 -10.088
REMARK INTRA:                   0.057
REMARK UNBOUND:                 0.057
REMARK  Name = 
REMARK  3 active torsions:
REMARK  status: ('A' for Active; 'I' for Inactive)
REMARK    1  A    between atoms: C_2  and  C_4
REMARK    2  A    between atoms: N_8  and  C_9
REMARK    3  A    between atoms: C_9  and  C_10
REMARK                            x       y       z     vdW  Elec       q    Type
REMARK                         _______ _______ _______ _____ _____    ______ ____
ROOT
ATOM      1  C   UNL     1      46.476   2.714   7.503  0.00  0.00    +0.000 A 
ATOM      2  C   UNL     1      46.171   4.036   7.800  0.00  0.00    +0.000 A 
ATOM      3  C   UNL     1      45.349   4.308   8.892  0.00  0.00    +0.000 A 
ATOM      4  C   UNL     1      44.851   3.272   9.676  0.00  0.00    +0.000 A 
ATOM      5  N   UNL     1      44.028   3.487  10.785  0.00  0.00    +0.000 N 
ATOM      6  N   UNL     1      45.126   1.982   9.379  0.00  0.00    +0.000 NA
ATOM      7  C   UNL     1      45.915   1.729   8.302  0.00  0.00    +0.000 A 
ATOM      8  H   UNL     1      43.883   2.599  11.256  0.00  0.00    +0.000 HD
ENDROOT
BRANCH   1  10
ATOM      9  N   UNL     1      47.244   3.080   5.232  0.00  0.00    +0.000 N 
ATOM     10  C   UNL     1      47.346   2.338   6.374  0.00  0.00    +0.000 C 
ATOM     11  O   UNL     1      48.154   1.419   6.467  0.00  0.00    +0.000 OA
ATOM     12  H   UNL     1      47.914   2.875   4.499  0.00  0.00    +0.000 HD
ATOM     13  H   UNL     1      46.789   3.983   5.207  0.00  0.00    +0.000 HD
ENDBRANCH   1  10
BRANCH   5  14
ATOM     14  C   UNL     1      43.982   4.743  11.547  0.00  0.00    +0.000 C 
ATOM     15  C   UNL     1      42.731   5.080  12.341  0.00  0.00    +0.000 C 
ATOM     16  C   UNL     1      43.020   5.835  11.088  0.00  0.00    +0.000 C 
BRANCH  14  17
ATOM     17  C   UNL     1      45.335   5.247  12.050  0.00  0.00    +0.000 A 
ATOM     18  C   UNL     1      45.973   6.353  11.459  0.00  0.00    +0.000 A 
ATOM     19  C   UNL     1      47.151   6.891  11.995  0.00  0.00    +0.000 A 
ATOM     20  C   UNL     1      47.725   6.308  13.119  0.00  0.00    +0.000 A 
ATOM     21 CL   UNL     1      49.132   6.998  13.828  0.00  0.00    +0.000 Cl
ATOM     22  C   UNL     1      47.151   5.181  13.694  0.00  0.00    +0.000 A 
ATOM     23  C   UNL     1      45.967   4.668  13.167  0.00  0.00    +0.000 A 
ENDBRANCH  14  17
ENDBRANCH   5  14
TORSDOF 3
ENDMDL
MODEL 2
REMARK VINA RESULT:    -7.926      3.911      6.457
REMARK INTER + INTRA:          -9.259
REMARK INTER:                  -8.844
REMARK INTRA:                  -0.415
REMARK UNBOUND:                 0.057
REMARK  Name = 
REMARK  3 active torsions:
REMARK  status: ('A' for Active; 'I' for Inactive)
REMARK    1  A    between atoms: C_2  and  C_4
REMARK    2  A    between atoms: N_8  and  C_9
REMARK    3  A    between atoms: C_9  and  C_10
REMARK                            x       y       z     vdW  Elec       q    Type
REMARK                         _______ _______ _______ _____ _____    ______ ____
ROOT
ATOM      1  C   UNL     1      47.919   5.873  14.775  0.00  0.00    +0.000 A 
ATOM      2  C   UNL     1      47.639   6.281  13.477  0.00  0.00    +0.000 A 
ATOM      3  C   UNL     1      46.737   5.538  12.717  0.00  0.00    +0.000 A 
ATOM      4  C   UNL     1      46.120   4.413  13.256  0.00  0.00    +0.000 A 
ATOM      5  N   UNL     1      45.203   3.635  12.542  0.00  0.00    +0.000 N 
ATOM      6  N   UNL     1      46.404   3.998  14.511  0.00  0.00    +0.000 NA
ATOM      7  C   UNL     1      47.298   4.721  15.234  0.00  0.00    +0.000 A 
ATOM      8  H   UNL     1      44.811   2.941  13.172  0.00  0.00    +0.000 HD
ENDROOT
BRANCH   1  10
ATOM      9  N   UNL     1      48.325   7.214  16.754  0.00  0.00    +0.000 N 
ATOM     10  C   UNL     1      48.851   6.606  15.650  0.00  0.00    +0.000 C 
ATOM     11  O   UNL     1      50.055   6.639  15.418  0.00  0.00    +0.000 OA
ATOM     12  H   UNL     1      48.986   7.631  17.399  0.00  0.00    +0.000 HD
ATOM     13  H   UNL     1      47.404   6.996  17.110  0.00  0.00    +0.000 HD
ENDBRANCH   1  10
BRANCH   5  14
ATOM     14  C   UNL     1      44.418   4.125  11.401  0.00  0.00    +0.000 C 
ATOM     15  C   UNL     1      43.643   5.425  11.542  0.00  0.00    +0.000 C 
ATOM     16  C   UNL     1      42.897   4.134  11.516  0.00  0.00    +0.000 C 
BRANCH  14  17
ATOM     17  C   UNL     1      44.958   3.731  10.025  0.00  0.00    +0.000 A 
ATOM     18  C   UNL     1      45.446   4.696   9.124  0.00  0.00    +0.000 A 
ATOM     19  C   UNL     1      46.053   4.326   7.916  0.00  0.00    +0.000 A 
ATOM     20  C   UNL     1      46.155   2.981   7.578  0.00  0.00    +0.000 A 
ATOM     21 CL   UNL     1      46.957   2.511   6.132  0.00  0.00    +0.000 Cl
ATOM     22  C   UNL     1      45.634   2.006   8.421  0.00  0.00    +0.000 A 
ATOM     23  C   UNL     1      45.053   2.383   9.631  0.00  0.00    +0.000 A 
ENDBRANCH  14  17
ENDBRANCH   5  14
TORSDOF 3
ENDMDL
MODEL 3
REMARK VINA RESULT:    -7.034      4.471      6.872
REMARK INTER + INTRA:          -8.211
REMARK INTER:                  -8.040
REMARK INTRA:                  -0.171
REMARK UNBOUND:                 0.057
REMARK  Name = 
REMARK  3 active torsions:
REMARK  status: ('A' for Active; 'I' for Inactive)
REMARK    1  A    between atoms: C_2  and  C_4
REMARK    2  A    between atoms: N_8  and  C_9
REMARK    3  A    between atoms: C_9  and  C_10
REMARK                            x       y       z     vdW  Elec       q    Type
REMARK                         _______ _______ _______ _____ _____    ______ ____
ROOT
ATOM      1  C   UNL     1      48.445   5.505  15.995  0.00  0.00    +0.000 A 
ATOM      2  C   UNL     1      48.128   6.200  14.836  0.00  0.00    +0.000 A 
ATOM      3  C   UNL     1      47.162   5.674  13.979  0.00  0.00    +0.000 A 
ATOM      4  C   UNL     1      46.520   4.479  14.288  0.00  0.00    +0.000 A 
ATOM      5  N   UNL     1      45.540   3.910  13.469  0.00  0.00    +0.000 N 
ATOM      6  N   UNL     1      46.840   3.786  15.404  0.00  0.00    +0.000 NA
ATOM      7  C   UNL     1      47.795   4.301  16.221  0.00  0.00    +0.000 A 
ATOM      8  H   UNL     1      45.146   3.106  13.949  0.00  0.00    +0.000 HD
ENDROOT
BRANCH   1  10
ATOM      9  N   UNL     1      50.513   5.181  17.221  0.00  0.00    +0.000 N 
ATOM     10  C   UNL     1      49.446   5.994  16.961  0.00  0.00    +0.000 C 
ATOM     11  O   UNL     1      49.345   7.099  17.483  0.00  0.00    +0.000 OA
ATOM     12  H   UNL     1      51.241   5.568  17.809  0.00  0.00    +0.000 HD
ATOM     13  H   UNL     1      50.758   4.398  16.631  0.00  0.00    +0.000 HD
ENDBRANCH   1  10
BRANCH   5  14
ATOM     14  C   UNL     1      44.729   4.667  12.506  0.00  0.00    +0.000 C 
ATOM     15  C   UNL     1      44.265   6.067  12.872  0.00  0.00    +0.000 C 
ATOM     16  C   UNL     1      43.271   4.955  12.853  0.00  0.00    +0.000 C 
BRANCH  14  17
ATOM     17  C   UNL     1      44.987   4.334  11.036  0.00  0.00    +0.000 A 
ATOM     18  C   UNL     1      45.496   5.296  10.144  0.00  0.00    +0.000 A 
ATOM     19  C   UNL     1      45.849   4.960   8.830  0.00  0.00    +0.000 A 
ATOM     20  C   UNL     1      45.670   3.656   8.379  0.00  0.00    +0.000 A 
ATOM     21 CL   UNL     1      46.161   3.214   6.792  0.00  0.00    +0.000 Cl
ATOM     22  C   UNL     1      45.118   2.695   9.218  0.00  0.00    +0.000 A 
ATOM     23  C   UNL     1      44.792   3.034  10.531  0.00  0.00    +0.000 A 
ENDBRANCH  14  17
ENDBRANCH   5  14
TORSDOF 3
ENDMDL
MODEL 4
REMARK VINA RESULT:    -6.457      2.217      2.751
REMARK INTER + INTRA:          -7.533
REMARK INTER:                  -7.034
REMARK INTRA:                  -0.499
REMARK UNBOUND:                 0.057
REMARK  Name = 
REMARK  3 active torsions:
REMARK  status: ('A' for Active; 'I' for Inactive)
REMARK    1  A    between atoms: C_2  and  C_4
REMARK    2  A    between atoms: N_8  and  C_9
REMARK    3  A    between atoms: C_9  and  C_10
REMARK                            x       y       z     vdW  Elec       q    Type
REMARK                         _______ _______ _______ _____ _____    ______ ____
ROOT
ATOM      1  C   UNL     1      46.325   3.510   7.315  0.00  0.00    +0.000 A 
ATOM      2  C   UNL     1      46.688   4.552   8.157  0.00  0.00    +0.000 A 
ATOM      3  C   UNL     1      45.830   4.909   9.196  0.00  0.00    +0.000 A 
ATOM      4  C   UNL     1      44.635   4.223   9.390  0.00  0.00    +0.000 A 
ATOM      5  N   UNL     1      43.740   4.534  10.419  0.00  0.00    +0.000 N 
ATOM      6  N   UNL     1      44.265   3.222   8.561  0.00  0.00    +0.000 NA
ATOM      7  C   UNL     1      45.103   2.896   7.542  0.00  0.00    +0.000 A 
ATOM      8  H   UNL     1      43.002   3.836  10.425  0.00  0.00    +0.000 HD
ENDROOT
BRANCH   1  10
ATOM      9  N   UNL     1      48.444   2.649   6.507  0.00  0.00    +0.000 N 
ATOM     10  C   UNL     1      47.178   3.061   6.199  0.00  0.00    +0.000 C 
ATOM     11  O   UNL     1      46.758   3.023   5.048  0.00  0.00    +0.000 OA
ATOM     12  H   UNL     1      48.986   2.252   5.748  0.00  0.00    +0.000 HD
ATOM     13  H   UNL     1      48.731   2.426   7.450  0.00  0.00    +0.000 HD
ENDBRANCH   1  10
BRANCH   5  14
ATOM     14  C   UNL     1      44.118   5.221  11.661  0.00  0.00    +0.000 C 
ATOM     15  C   UNL     1      44.886   4.454  12.725  0.00  0.00    +0.000 C 
ATOM     16  C   UNL     1      43.452   4.786  12.963  0.00  0.00    +0.000 C 
BRANCH  14  17
ATOM     17  C   UNL     1      44.346   6.727  11.525  0.00  0.00    +0.000 A 
ATOM     18  C   UNL     1      43.379   7.567  10.942  0.00  0.00    +0.000 A 
ATOM     19  C   UNL     1      43.532   8.960  10.928  0.00  0.00    +0.000 A 
ATOM     20  C   UNL     1      44.676   9.533  11.475  0.00  0.00    +0.000 A 
ATOM     21 CL   UNL     1      44.845  11.243  11.526  0.00  0.00    +0.000 Cl
ATOM     22  C   UNL     1      45.675   8.729  12.009  0.00  0.00    +0.000 A 
ATOM     23  C   UNL     1      45.501   7.346  12.039  0.00  0.00    +0.000 A 
ENDBRANCH  14  17
ENDBRANCH   5  14
TORSDOF 3
ENDMDL
MODEL 5
REMARK VINA RESULT:    -6.344      4.600      7.026
REMARK INTER + INTRA:          -7.400
REMARK INTER:                  -7.004
REMARK INTRA:                  -0.397
REMARK UNBOUND:                 0.057
REMARK  Name = 
REMARK  3 active torsions:
REMARK  status: ('A' for Active; 'I' for Inactive)
REMARK    1  A    between atoms: C_2  and  C_4
REMARK    2  A    between atoms: N_8  and  C_9
REMARK    3  A    between atoms: C_9  and  C_10
REMARK                            x       y       z     vdW  Elec       q    Type
REMARK                         _______ _______ _______ _____ _____    ______ ____
ROOT
ATOM      1  C   UNL     1      48.384   3.929  17.276  0.00  0.00    +0.000 A 
ATOM      2  C   UNL     1      47.795   5.067  16.743  0.00  0.00    +0.000 A 
ATOM      3  C   UNL     1      47.254   5.007  15.460  0.00  0.00    +0.000 A 
ATOM      4  C   UNL     1      47.296   3.822  14.732  0.00  0.00    +0.000 A 
ATOM      5  N   UNL     1      46.764   3.703  13.444  0.00  0.00    +0.000 N 
ATOM      6  N   UNL     1      47.887   2.716  15.236  0.00  0.00    +0.000 NA
ATOM      7  C   UNL     1      48.426   2.794  16.481  0.00  0.00    +0.000 A 
ATOM      8  H   UNL     1      46.816   2.728  13.163  0.00  0.00    +0.000 HD
ENDROOT
BRANCH   1  10
ATOM      9  N   UNL     1      48.269   3.247  19.601  0.00  0.00    +0.000 N 
ATOM     10  C   UNL     1      48.970   3.902  18.629  0.00  0.00    +0.000 C 
ATOM     11  O   UNL     1      50.059   4.416  18.865  0.00  0.00    +0.000 OA
ATOM     12  H   UNL     1      48.726   3.151  20.500  0.00  0.00    +0.000 HD
ATOM     13  H   UNL     1      47.516   2.606  19.392  0.00  0.00    +0.000 HD
ENDBRANCH   1  10
BRANCH   5  14
ATOM     14  C   UNL     1      45.711   4.573  12.903  0.00  0.00    +0.000 C 
ATOM     15  C   UNL     1      44.262   4.295  13.270  0.00  0.00    +0.000 C 
ATOM     16  C   UNL     1      44.733   3.986  11.889  0.00  0.00    +0.000 C 
BRANCH  14  17
ATOM     17  C   UNL     1      46.140   6.014  12.625  0.00  0.00    +0.000 A 
ATOM     18  C   UNL     1      45.294   7.101  12.915  0.00  0.00    +0.000 A 
ATOM     19  C   UNL     1      45.731   8.425  12.776  0.00  0.00    +0.000 A 
ATOM     20  C   UNL     1      47.018   8.682  12.316  0.00  0.00    +0.000 A 
ATOM     21 CL   UNL     1      47.590  10.300  12.206  0.00  0.00    +0.000 Cl
ATOM     22  C   UNL     1      47.860   7.632  11.969  0.00  0.00    +0.000 A 
ATOM     23  C   UNL     1      47.423   6.318  12.133  0.00  0.00    +0.000 A 
ENDBRANCH  14  17
ENDBRANCH   5  14
TORSDOF 3
ENDMDL
MODEL 6
REMARK VINA RESULT:    -6.172      4.688      6.841
REMARK INTER + INTRA:          -7.197
REMARK INTER:                  -6.819
REMARK INTRA:                  -0.378
REMARK UNBOUND:                 0.057
REMARK  Name = 
REMARK  3 active torsions:
REMARK  status: ('A' for Active; 'I' for Inactive)
REMARK    1  A    between atoms: C_2  and  C_4
REMARK    2  A    between atoms: N_8  and  C_9
REMARK    3  A    between atoms: C_9  and  C_10
REMARK                            x       y       z     vdW  Elec       q    Type
REMARK                         _______ _______ _______ _____ _____    ______ ____
ROOT
ATOM      1  C   UNL     1      46.082   5.160  12.541  0.00  0.00    +0.000 A 
ATOM      2  C   UNL     1      46.296   4.106  13.419  0.00  0.00    +0.000 A 
ATOM      3  C   UNL     1      47.067   4.326  14.560  0.00  0.00    +0.000 A 
ATOM      4  C   UNL     1      47.602   5.585  14.817  0.00  0.00    +0.000 A 
ATOM      5  N   UNL     1      48.376   5.865  15.948  0.00  0.00    +0.000 N 
ATOM      6  N   UNL     1      47.414   6.610  13.955  0.00  0.00    +0.000 NA
ATOM      7  C   UNL     1      46.676   6.376  12.839  0.00  0.00    +0.000 A 
ATOM      8  H   UNL     1      48.560   6.863  15.973  0.00  0.00    +0.000 HD
ENDROOT
BRANCH   1  10
ATOM      9  N   UNL     1      44.972   6.158  10.629  0.00  0.00    +0.000 N 
ATOM     10  C   UNL     1      45.271   5.016  11.318  0.00  0.00    +0.000 C 
ATOM     11  O   UNL     1      44.912   3.915  10.914  0.00  0.00    +0.000 OA
ATOM     12  H   UNL     1      44.499   6.037   9.741  0.00  0.00    +0.000 HD
ATOM     13  H   UNL     1      45.456   7.031  10.784  0.00  0.00    +0.000 HD
ENDBRANCH   1  10
BRANCH   5  14
ATOM     14  C   UNL     1      48.322   5.090  17.196  0.00  0.00    +0.000 C 
ATOM     15  C   UNL     1      46.971   4.815  17.836  0.00  0.00    +0.000 C 
ATOM     16  C   UNL     1      47.889   5.803  18.474  0.00  0.00    +0.000 C 
BRANCH  14  17
ATOM     17  C   UNL     1      49.447   4.071  17.376  0.00  0.00    +0.000 A 
ATOM     18  C   UNL     1      49.245   2.702  17.121  0.00  0.00    +0.000 A 
ATOM     19  C   UNL     1      50.305   1.786  17.167  0.00  0.00    +0.000 A 
ATOM     20  C   UNL     1      51.583   2.225  17.497  0.00  0.00    +0.000 A 
ATOM     21 CL   UNL     1      52.904   1.124  17.489  0.00  0.00    +0.000 Cl
ATOM     22  C   UNL     1      51.805   3.561  17.807  0.00  0.00    +0.000 A 
ATOM     23  C   UNL     1      50.749   4.468  17.736  0.00  0.00    +0.000 A 
ENDBRANCH  14  17
ENDBRANCH   5  14
TORSDOF 3
ENDMDL
MODEL 7
REMARK VINA RESULT:    -6.168      3.520      5.434
REMARK INTER + INTRA:          -7.193
REMARK INTER:                  -6.686
REMARK INTRA:                  -0.507
REMARK UNBOUND:                 0.057
REMARK  Name = 
REMARK  3 active torsions:
REMARK  status: ('A' for Active; 'I' for Inactive)
REMARK    1  A    between atoms: C_2  and  C_4
REMARK    2  A    between atoms: N_8  and  C_9
REMARK    3  A    between atoms: C_9  and  C_10
REMARK                            x       y       z     vdW  Elec       q    Type
REMARK                         _______ _______ _______ _____ _____    ______ ____
ROOT
ATOM      1  C   UNL     1      44.716   5.173  10.965  0.00  0.00    +0.000 A 
ATOM      2  C   UNL     1      46.019   5.584  10.716  0.00  0.00    +0.000 A 
ATOM      3  C   UNL     1      46.609   6.509  11.576  0.00  0.00    +0.000 A 
ATOM      4  C   UNL     1      45.906   7.002  12.671  0.00  0.00    +0.000 A 
ATOM      5  N   UNL     1      46.450   7.926  13.569  0.00  0.00    +0.000 N 
ATOM      6  N   UNL     1      44.630   6.622  12.907  0.00  0.00    +0.000 NA
ATOM      7  C   UNL     1      44.061   5.733  12.052  0.00  0.00    +0.000 A 
ATOM      8  H   UNL     1      45.796   8.052  14.337  0.00  0.00    +0.000 HD
ENDROOT
BRANCH   1  10
ATOM      9  N   UNL     1      44.121   4.355   8.761  0.00  0.00    +0.000 N 
ATOM     10  C   UNL     1      44.021   4.191  10.114  0.00  0.00    +0.000 C 
ATOM     11  O   UNL     1      43.409   3.244  10.597  0.00  0.00    +0.000 OA
ATOM     12  H   UNL     1      43.722   3.621   8.187  0.00  0.00    +0.000 HD
ATOM     13  H   UNL     1      44.813   4.955   8.334  0.00  0.00    +0.000 HD
ENDBRANCH   1  10
BRANCH   5  14
ATOM     14  C   UNL     1      47.891   8.114  13.787  0.00  0.00    +0.000 C 
ATOM     15  C   UNL     1      48.666   7.056  14.556  0.00  0.00    +0.000 C 
ATOM     16  C   UNL     1      48.384   8.368  15.209  0.00  0.00    +0.000 C 
BRANCH  14  17
ATOM     17  C   UNL     1      48.611   8.916  12.702  0.00  0.00    +0.000 A 
ATOM     18  C   UNL     1      48.062  10.102  12.180  0.00  0.00    +0.000 A 
ATOM     19  C   UNL     1      48.776  10.902  11.277  0.00  0.00    +0.000 A 
ATOM     20  C   UNL     1      50.044  10.510  10.860  0.00  0.00    +0.000 A 
ATOM     21 CL   UNL     1      50.957  11.516   9.807  0.00  0.00    +0.000 Cl
ATOM     22  C   UNL     1      50.591   9.317  11.315  0.00  0.00    +0.000 A 
ATOM     23  C   UNL     1      49.883   8.540  12.231  0.00  0.00    +0.000 A 
ENDBRANCH  14  17
ENDBRANCH   5  14
TORSDOF 3
ENDMDL
MODEL 8
REMARK VINA RESULT:    -5.753      3.054      4.662
REMARK INTER + INTRA:          -6.705
REMARK INTER:                  -6.322
REMARK INTRA:                  -0.383
REMARK UNBOUND:                 0.057
REMARK  Name = 
REMARK  3 active torsions:
REMARK  status: ('A' for Active; 'I' for Inactive)
REMARK    1  A    between atoms: C_2  and  C_4
REMARK    2  A    between atoms: N_8  and  C_9
REMARK    3  A    between atoms: C_9  and  C_10
REMARK                            x       y       z     vdW  Elec       q    Type
REMARK                         _______ _______ _______ _____ _____    ______ ____
ROOT
ATOM      1  C   UNL     1      44.766   3.916  11.098  0.00  0.00    +0.000 A 
ATOM      2  C   UNL     1      45.191   4.296  12.364  0.00  0.00    +0.000 A 
ATOM      3  C   UNL     1      45.996   5.426  12.492  0.00  0.00    +0.000 A 
ATOM      4  C   UNL     1      46.358   6.165  11.370  0.00  0.00    +0.000 A 
ATOM      5  N   UNL     1      47.158   7.311  11.440  0.00  0.00    +0.000 N 
ATOM      6  N   UNL     1      45.965   5.788  10.133  0.00  0.00    +0.000 NA
ATOM      7  C   UNL     1      45.195   4.675  10.020  0.00  0.00    +0.000 A 
ATOM      8  H   UNL     1      47.196   7.734  10.518  0.00  0.00    +0.000 HD
ENDROOT
BRANCH   1  10
ATOM      9  N   UNL     1      44.240   1.906   9.846  0.00  0.00    +0.000 N 
ATOM     10  C   UNL     1      43.904   2.741  10.874  0.00  0.00    +0.000 C 
ATOM     11  O   UNL     1      42.946   2.502  11.602  0.00  0.00    +0.000 OA
ATOM     12  H   UNL     1      43.699   1.053   9.763  0.00  0.00    +0.000 HD
ATOM     13  H   UNL     1      45.147   1.928   9.400  0.00  0.00    +0.000 HD
ENDBRANCH   1  10
BRANCH   5  14
ATOM     14  C   UNL     1      47.303   8.143  12.643  0.00  0.00    +0.000 C 
ATOM     15  C   UNL     1      46.057   8.724  13.292  0.00  0.00    +0.000 C 
ATOM     16  C   UNL     1      46.974   9.630  12.540  0.00  0.00    +0.000 C 
BRANCH  14  17
ATOM     17  C   UNL     1      48.508   7.808  13.522  0.00  0.00    +0.000 A 
ATOM     18  C   UNL     1      49.807   8.226  13.178  0.00  0.00    +0.000 A 
ATOM     19  C   UNL     1      50.892   8.027  14.042  0.00  0.00    +0.000 A 
ATOM     20  C   UNL     1      50.697   7.378  15.256  0.00  0.00    +0.000 A 
ATOM     21 CL   UNL     1      52.005   7.188  16.355  0.00  0.00    +0.000 Cl
ATOM     22  C   UNL     1      49.437   6.903  15.602  0.00  0.00    +0.000 A 
ATOM     23  C   UNL     1      48.360   7.127  14.746  0.00  0.00    +0.000 A 
ENDBRANCH  14  17
ENDBRANCH   5  14
TORSDOF 3
ENDMDL
MODEL 9
REMARK VINA RESULT:    -5.589      5.821      7.407
REMARK INTER + INTRA:          -6.512
REMARK INTER:                  -6.306
REMARK INTRA:                  -0.206
REMARK UNBOUND:                 0.057
REMARK  Name = 
REMARK  3 active torsions:
REMARK  status: ('A' for Active; 'I' for Inactive)
REMARK    1  A    between atoms: C_2  and  C_4
REMARK    2  A    between atoms: N_8  and  C_9
REMARK    3  A    between atoms: C_9  and  C_10
REMARK                            x       y       z     vdW  Elec       q    Type
REMARK                         _______ _______ _______ _____ _____    ______ ____
ROOT
ATOM      1  C   UNL     1      47.820   4.476  16.090  0.00  0.00    +0.000 A 
ATOM      2  C   UNL     1      47.145   4.661  14.891  0.00  0.00    +0.000 A 
ATOM      3  C   UNL     1      47.333   5.852  14.190  0.00  0.00    +0.000 A 
ATOM      4  C   UNL     1      48.190   6.832  14.682  0.00  0.00    +0.000 A 
ATOM      5  N   UNL     1      48.421   8.041  14.018  0.00  0.00    +0.000 N 
ATOM      6  N   UNL     1      48.833   6.666  15.859  0.00  0.00    +0.000 NA
ATOM      7  C   UNL     1      48.628   5.509  16.540  0.00  0.00    +0.000 A 
ATOM      8  H   UNL     1      49.157   8.541  14.507  0.00  0.00    +0.000 HD
ENDROOT
BRANCH   1  10
ATOM      9  N   UNL     1      48.807   2.476  17.043  0.00  0.00    +0.000 N 
ATOM     10  C   UNL     1      47.688   3.243  16.889  0.00  0.00    +0.000 C 
ATOM     11  O   UNL     1      46.627   2.939  17.423  0.00  0.00    +0.000 OA
ATOM     12  H   UNL     1      48.729   1.686  17.673  0.00  0.00    +0.000 HD
ATOM     13  H   UNL     1      49.736   2.819  16.841  0.00  0.00    +0.000 HD
ENDBRANCH   1  10
BRANCH   5  14
ATOM     14  C   UNL     1      48.223   8.241  12.576  0.00  0.00    +0.000 C 
ATOM     15  C   UNL     1      49.077   7.451  11.597  0.00  0.00    +0.000 C 
ATOM     16  C   UNL     1      49.338   8.909  11.776  0.00  0.00    +0.000 C 
BRANCH  14  17
ATOM     17  C   UNL     1      46.806   8.641  12.165  0.00  0.00    +0.000 A 
ATOM     18  C   UNL     1      46.418   9.992  12.087  0.00  0.00    +0.000 A 
ATOM     19  C   UNL     1      45.160  10.364  11.593  0.00  0.00    +0.000 A 
ATOM     20  C   UNL     1      44.257   9.383  11.195  0.00  0.00    +0.000 A 
ATOM     21 CL   UNL     1      42.738   9.828  10.524  0.00  0.00    +0.000 Cl
ATOM     22  C   UNL     1      44.589   8.039  11.311  0.00  0.00    +0.000 A 
ATOM     23  C   UNL     1      45.851   7.680  11.781  0.00  0.00    +0.000 A 
ENDBRANCH  14  17
ENDBRANCH   5  14
TORSDOF 3
ENDMDL
