MODEL 1
REMARK VINA RESULT:    -7.901      0.000      0.000
REMARK INTER + INTRA:         -11.574
REMARK INTER:                 -10.672
REMARK INTRA:                  -0.902
REMARK UNBOUND:                -0.902
REMARK  Name = 
REMARK  6 active torsions:
REMARK  status: ('A' for Active; 'I' for Inactive)
REMARK    1  A    between atoms: C_2  and  C_19
REMARK    2  A    between atoms: N_3  and  C_4
REMARK    3  A    between atoms: C_4  and  C_5
REMARK    4  A    between atoms: C_8  and  C_9
REMARK    5  A    between atoms: C_9  and  O_10
REMARK    6  A    between atoms: O_10  and  C_11
REMARK                            x       y       z     vdW  Elec       q    Type
REMARK                         _______ _______ _______ _____ _____    ______ ____
ROOT
ATOM      1  O   UNL     1      48.445   8.255  16.420  0.00  0.00    +0.000 OA
ATOM      2  C   UNL     1      48.654   7.086  16.128  0.00  0.00    +0.000 C 
ATOM      3  N   UNL     1      48.251   6.478  14.964  0.00  0.00    +0.000 N 
ATOM      4  H   UNL     1      48.588   5.548  14.772  0.00  0.00    +0.000 HD
ENDROOT
BRANCH   2   5
ATOM      5  C   UNL     1      49.541   6.211  16.886  0.00  0.00    +0.000 A 
ATOM      6  C   UNL     1      50.783   6.617  17.338  0.00  0.00    +0.000 A 
ATOM      7  S   UNL     1      51.806   5.275  17.661  0.00  0.00    +0.000 S 
ATOM      8  C   UNL     1      50.555   4.165  17.325  0.00  0.00    +0.000 A 
ATOM      9  N   UNL     1      50.764   2.822  17.253  0.00  0.00    +0.000 NA
ATOM     10  C   UNL     1      49.694   2.133  17.020  0.00  0.00    +0.000 A 
ATOM     11  N   UNL     1      48.427   2.655  16.913  0.00  0.00    +0.000 N 
ATOM     12  C   UNL     1      48.165   3.999  17.009  0.00  0.00    +0.000 A 
ATOM     13  O   UNL     1      47.023   4.441  17.005  0.00  0.00    +0.000 OA
ATOM     14  C   UNL     1      49.357   4.811  17.124  0.00  0.00    +0.000 A 
ATOM     15  H   UNL     1      47.622   2.052  16.820  0.00  0.00    +0.000 HD
ENDBRANCH   2   5
BRANCH   3  16
ATOM     16  C   UNL     1      47.698   7.169  13.832  0.00  0.00    +0.000 C 
BRANCH  16  17
ATOM     17  C   UNL     1      46.763   6.218  13.117  0.00  0.00    +0.000 A 
ATOM     18  C   UNL     1      46.583   4.905  13.571  0.00  0.00    +0.000 A 
ATOM     19  C   UNL     1      45.792   4.005  12.848  0.00  0.00    +0.000 A 
ATOM     20  C   UNL     1      45.195   4.388  11.641  0.00  0.00    +0.000 A 
ATOM     21  C   UNL     1      45.377   5.700  11.185  0.00  0.00    +0.000 A 
ATOM     22  C   UNL     1      46.162   6.602  11.909  0.00  0.00    +0.000 A 
BRANCH  20  23
ATOM     23  C   UNL     1      44.362   3.411  10.838  0.00  0.00    +0.000 C 
BRANCH  23  24
ATOM     24  O   UNL     1      44.237   3.893   9.506  0.00  0.00    +0.000 OA
BRANCH  24  25
ATOM     25  C   UNL     1      45.165   3.302   8.674  0.00  0.00    +0.000 A 
ATOM     26  N   UNL     1      45.377   1.997   8.896  0.00  0.00    +0.000 NA
ATOM     27  C   UNL     1      46.290   1.405   8.102  0.00  0.00    +0.000 A 
ATOM     28  C   UNL     1      46.975   2.064   7.103  0.00  0.00    +0.000 A 
ATOM     29  C   UNL     1      46.661   3.391   6.954  0.00  0.00    +0.000 A 
ATOM     30  N   UNL     1      45.766   4.039   7.723  0.00  0.00    +0.000 NA
ENDBRANCH  24  25
ENDBRANCH  23  24
ENDBRANCH  20  23
ENDBRANCH  16  17
ENDBRANCH   3  16
TORSDOF 6
ENDMDL
MODEL 2
REMARK VINA RESULT:    -7.822      1.493      1.690
REMARK INTER + INTRA:         -11.467
REMARK INTER:                 -10.395
REMARK INTRA:                  -1.071
REMARK UNBOUND:                -0.902
REMARK  Name = 
REMARK  6 active torsions:
REMARK  status: ('A' for Active; 'I' for Inactive)
REMARK    1  A    between atoms: C_2  and  C_19
REMARK    2  A    between atoms: N_3  and  C_4
REMARK    3  A    between atoms: C_4  and  C_5
REMARK    4  A    between atoms: C_8  and  C_9
REMARK    5  A    between atoms: C_9  and  O_10
REMARK    6  A    between atoms: O_10  and  C_11
REMARK                            x       y       z     vdW  Elec       q    Type
REMARK                         _______ _______ _______ _____ _____    ______ ____
ROOT
ATOM      1  O   UNL     1      49.489   7.091  13.804  0.00  0.00    +0.000 OA
ATOM      2  C   UNL     1      48.642   7.345  14.647  0.00  0.00    +0.000 C 
ATOM      3  N   UNL     1      47.545   8.148  14.450  0.00  0.00    +0.000 N 
ATOM      4  H   UNL     1      46.846   8.185  15.175  0.00  0.00    +0.000 HD
ENDROOT
BRANCH   2   5
ATOM      5  C   UNL     1      48.558   6.669  15.937  0.00  0.00    +0.000 A 
ATOM      6  C   UNL     1      49.047   7.226  17.105  0.00  0.00    +0.000 A 
ATOM      7  S   UNL     1      49.341   6.027  18.300  0.00  0.00    +0.000 S 
ATOM      8  C   UNL     1      48.699   4.796  17.310  0.00  0.00    +0.000 A 
ATOM      9  N   UNL     1      48.772   3.477  17.635  0.00  0.00    +0.000 NA
ATOM     10  C   UNL     1      48.204   2.689  16.780  0.00  0.00    +0.000 A 
ATOM     11  N   UNL     1      47.517   3.101  15.663  0.00  0.00    +0.000 N 
ATOM     12  C   UNL     1      47.391   4.422  15.312  0.00  0.00    +0.000 A 
ATOM     13  O   UNL     1      46.698   4.781  14.367  0.00  0.00    +0.000 OA
ATOM     14  C   UNL     1      48.138   5.319  16.166  0.00  0.00    +0.000 A 
ATOM     15  H   UNL     1      47.019   2.440  15.086  0.00  0.00    +0.000 HD
ENDBRANCH   2   5
BRANCH   3  16
ATOM     16  C   UNL     1      47.123   8.652  13.172  0.00  0.00    +0.000 C 
BRANCH  16  17
ATOM     17  C   UNL     1      46.336   7.563  12.478  0.00  0.00    +0.000 A 
ATOM     18  C   UNL     1      45.031   7.248  12.878  0.00  0.00    +0.000 A 
ATOM     19  C   UNL     1      44.347   6.175  12.295  0.00  0.00    +0.000 A 
ATOM     20  C   UNL     1      44.965   5.376  11.326  0.00  0.00    +0.000 A 
ATOM     21  C   UNL     1      46.271   5.689  10.926  0.00  0.00    +0.000 A 
ATOM     22  C   UNL     1      46.953   6.764  11.504  0.00  0.00    +0.000 A 
BRANCH  20  23
ATOM     23  C   UNL     1      44.243   4.196  10.711  0.00  0.00    +0.000 C 
BRANCH  23  24
ATOM     24  O   UNL     1      44.139   4.395   9.306  0.00  0.00    +0.000 OA
BRANCH  24  25
ATOM     25  C   UNL     1      45.045   3.610   8.625  0.00  0.00    +0.000 A 
ATOM     26  N   UNL     1      45.099   2.331   9.020  0.00  0.00    +0.000 NA
ATOM     27  C   UNL     1      45.988   1.551   8.375  0.00  0.00    +0.000 A 
ATOM     28  C   UNL     1      46.799   2.001   7.356  0.00  0.00    +0.000 A 
ATOM     29  C   UNL     1      46.642   3.323   7.021  0.00  0.00    +0.000 A 
ATOM     30  N   UNL     1      45.779   4.153   7.637  0.00  0.00    +0.000 NA
ENDBRANCH  24  25
ENDBRANCH  23  24
ENDBRANCH  20  23
ENDBRANCH  16  17
ENDBRANCH   3  16
TORSDOF 6
ENDMDL
MODEL 3
REMARK VINA RESULT:    -7.334      2.819      8.334
REMARK INTER + INTRA:         -10.808
REMARK INTER:                  -9.937
REMARK INTRA:                  -0.871
REMARK UNBOUND:                -0.902
REMARK  Name = 
REMARK  6 active torsions:
REMARK  status: ('A' for Active; 'I' for Inactive)
REMARK    1  A    between atoms: C_2  and  C_19
REMARK    2  A    between atoms: N_3  and  C_4
REMARK    3  A    between atoms: C_4  and  C_5
REMARK    4  A    between atoms: C_8  and  C_9
REMARK    5  A    between atoms: C_9  and  O_10
REMARK    6  A    between atoms: O_10  and  C_11
REMARK                            x       y       z     vdW  Elec       q    Type
REMARK                         _______ _______ _______ _____ _____    ______ ____
ROOT
ATOM      1  O   UNL     1      44.673   7.366  11.660  0.00  0.00    +0.000 OA
ATOM      2  C   UNL     1      45.204   6.292  11.418  0.00  0.00    +0.000 C 
ATOM      3  N   UNL     1      46.526   5.994  11.644  0.00  0.00    +0.000 N 
ATOM      4  H   UNL     1      46.826   5.039  11.526  0.00  0.00    +0.000 HD
ENDROOT
BRANCH   2   5
ATOM      5  C   UNL     1      44.465   5.093  11.037  0.00  0.00    +0.000 A 
ATOM      6  C   UNL     1      43.426   4.584  11.796  0.00  0.00    +0.000 A 
ATOM      7  S   UNL     1      43.147   2.925  11.449  0.00  0.00    +0.000 S 
ATOM      8  C   UNL     1      44.315   2.926  10.206  0.00  0.00    +0.000 A 
ATOM      9  N   UNL     1      44.716   1.791   9.573  0.00  0.00    +0.000 NA
ATOM     10  C   UNL     1      45.587   1.987   8.636  0.00  0.00    +0.000 A 
ATOM     11  N   UNL     1      46.048   3.218   8.233  0.00  0.00    +0.000 N 
ATOM     12  C   UNL     1      45.648   4.392   8.822  0.00  0.00    +0.000 A 
ATOM     13  O   UNL     1      45.994   5.485   8.392  0.00  0.00    +0.000 OA
ATOM     14  C   UNL     1      44.787   4.197   9.968  0.00  0.00    +0.000 A 
ATOM     15  H   UNL     1      46.659   3.308   7.434  0.00  0.00    +0.000 HD
ENDBRANCH   2   5
BRANCH   3  16
ATOM     16  C   UNL     1      47.436   6.830  12.378  0.00  0.00    +0.000 C 
BRANCH  16  17
ATOM     17  C   UNL     1      47.650   6.205  13.739  0.00  0.00    +0.000 A 
ATOM     18  C   UNL     1      48.589   6.732  14.636  0.00  0.00    +0.000 A 
ATOM     19  C   UNL     1      48.848   6.090  15.852  0.00  0.00    +0.000 A 
ATOM     20  C   UNL     1      48.201   4.893  16.181  0.00  0.00    +0.000 A 
ATOM     21  C   UNL     1      47.264   4.364  15.283  0.00  0.00    +0.000 A 
ATOM     22  C   UNL     1      47.000   5.007  14.071  0.00  0.00    +0.000 A 
BRANCH  20  23
ATOM     23  C   UNL     1      48.498   4.177  17.481  0.00  0.00    +0.000 C 
BRANCH  23  24
ATOM     24  O   UNL     1      48.821   2.820  17.202  0.00  0.00    +0.000 OA
BRANCH  24  25
ATOM     25  C   UNL     1      50.153   2.565  17.448  0.00  0.00    +0.000 A 
ATOM     26  N   UNL     1      50.859   3.614  17.893  0.00  0.00    +0.000 NA
ATOM     27  C   UNL     1      52.167   3.388  18.127  0.00  0.00    +0.000 A 
ATOM     28  C   UNL     1      52.774   2.164  17.946  0.00  0.00    +0.000 A 
ATOM     29  C   UNL     1      51.949   1.159  17.509  0.00  0.00    +0.000 A 
ATOM     30  N   UNL     1      50.639   1.327  17.247  0.00  0.00    +0.000 NA
ENDBRANCH  24  25
ENDBRANCH  23  24
ENDBRANCH  20  23
ENDBRANCH  16  17
ENDBRANCH   3  16
TORSDOF 6
ENDMDL
MODEL 4
REMARK VINA RESULT:    -7.240      1.904      2.058
REMARK INTER + INTRA:         -10.681
REMARK INTER:                  -9.675
REMARK INTRA:                  -1.006
REMARK UNBOUND:                -0.902
REMARK  Name = 
REMARK  6 active torsions:
REMARK  status: ('A' for Active; 'I' for Inactive)
REMARK    1  A    between atoms: C_2  and  C_19
REMARK    2  A    between atoms: N_3  and  C_4
REMARK    3  A    between atoms: C_4  and  C_5
REMARK    4  A    between atoms: C_8  and  C_9
REMARK    5  A    between atoms: C_9  and  O_10
REMARK    6  A    between atoms: O_10  and  C_11
REMARK                            x       y       z     vdW  Elec       q    Type
REMARK                         _______ _______ _______ _____ _____    ______ ____
ROOT
ATOM      1  O   UNL     1      50.029   6.259  15.656  0.00  0.00    +0.000 OA
ATOM      2  C   UNL     1      49.031   6.891  15.969  0.00  0.00    +0.000 C 
ATOM      3  N   UNL     1      48.187   7.523  15.089  0.00  0.00    +0.000 N 
ATOM      4  H   UNL     1      47.327   7.907  15.447  0.00  0.00    +0.000 HD
ENDROOT
BRANCH   2   5
ATOM      5  C   UNL     1      48.471   6.901  17.316  0.00  0.00    +0.000 A 
ATOM      6  C   UNL     1      48.246   8.069  18.022  0.00  0.00    +0.000 A 
ATOM      7  S   UNL     1      48.150   7.776  19.712  0.00  0.00    +0.000 S 
ATOM      8  C   UNL     1      48.276   6.089  19.487  0.00  0.00    +0.000 A 
ATOM      9  N   UNL     1      48.419   5.218  20.521  0.00  0.00    +0.000 NA
ATOM     10  C   UNL     1      48.467   3.976  20.163  0.00  0.00    +0.000 A 
ATOM     11  N   UNL     1      48.326   3.520  18.874  0.00  0.00    +0.000 N 
ATOM     12  C   UNL     1      48.150   4.360  17.803  0.00  0.00    +0.000 A 
ATOM     13  O   UNL     1      47.933   3.937  16.674  0.00  0.00    +0.000 OA
ATOM     14  C   UNL     1      48.237   5.762  18.150  0.00  0.00    +0.000 A 
ATOM     15  H   UNL     1      48.283   2.531  18.674  0.00  0.00    +0.000 HD
ENDBRANCH   2   5
BRANCH   3  16
ATOM     16  C   UNL     1      48.238   7.374  13.660  0.00  0.00    +0.000 C 
BRANCH  16  17
ATOM     17  C   UNL     1      47.059   6.526  13.238  0.00  0.00    +0.000 A 
ATOM     18  C   UNL     1      47.069   5.136  13.418  0.00  0.00    +0.000 A 
ATOM     19  C   UNL     1      46.017   4.349  12.937  0.00  0.00    +0.000 A 
ATOM     20  C   UNL     1      44.952   4.930  12.237  0.00  0.00    +0.000 A 
ATOM     21  C   UNL     1      44.942   6.319  12.055  0.00  0.00    +0.000 A 
ATOM     22  C   UNL     1      45.990   7.107  12.540  0.00  0.00    +0.000 A 
BRANCH  20  23
ATOM     23  C   UNL     1      43.825   4.082  11.688  0.00  0.00    +0.000 C 
BRANCH  23  24
ATOM     24  O   UNL     1      43.572   4.461  10.340  0.00  0.00    +0.000 OA
BRANCH  24  25
ATOM     25  C   UNL     1      44.432   3.821   9.474  0.00  0.00    +0.000 A 
ATOM     26  N   UNL     1      44.459   2.486   9.582  0.00  0.00    +0.000 NA
ATOM     27  C   UNL     1      45.304   1.843   8.753  0.00  0.00    +0.000 A 
ATOM     28  C   UNL     1      46.098   2.484   7.826  0.00  0.00    +0.000 A 
ATOM     29  C   UNL     1      45.972   3.850   7.790  0.00  0.00    +0.000 A 
ATOM     30  N   UNL     1      45.153   4.547   8.600  0.00  0.00    +0.000 NA
ENDBRANCH  24  25
ENDBRANCH  23  24
ENDBRANCH  20  23
ENDBRANCH  16  17
ENDBRANCH   3  16
TORSDOF 6
ENDMDL
MODEL 5
REMARK VINA RESULT:    -6.996      2.031      2.779
REMARK INTER + INTRA:         -10.352
REMARK INTER:                  -9.309
REMARK INTRA:                  -1.042
REMARK UNBOUND:                -0.902
REMARK  Name = 
REMARK  6 active torsions:
REMARK  status: ('A' for Active; 'I' for Inactive)
REMARK    1  A    between atoms: C_2  and  C_19
REMARK    2  A    between atoms: N_3  and  C_4
REMARK    3  A    between atoms: C_4  and  C_5
REMARK    4  A    between atoms: C_8  and  C_9
REMARK    5  A    between atoms: C_9  and  O_10
REMARK    6  A    between atoms: O_10  and  C_11
REMARK                            x       y       z     vdW  Elec       q    Type
REMARK                         _______ _______ _______ _____ _____    ______ ____
ROOT
ATOM      1  O   UNL     1      49.358   9.934  15.738  0.00  0.00    +0.000 OA
ATOM      2  C   UNL     1      48.434   9.176  15.993  0.00  0.00    +0.000 C 
ATOM      3  N   UNL     1      47.519   8.710  15.080  0.00  0.00    +0.000 N 
ATOM      4  H   UNL     1      46.877   7.991  15.374  0.00  0.00    +0.000 HD
ENDROOT
BRANCH   2   5
ATOM      5  C   UNL     1      48.282   8.489  17.270  0.00  0.00    +0.000 A 
ATOM      6  C   UNL     1      47.616   9.049  18.345  0.00  0.00    +0.000 A 
ATOM      7  S   UNL     1      48.081   8.316  19.827  0.00  0.00    +0.000 S 
ATOM      8  C   UNL     1      49.063   7.175  19.024  0.00  0.00    +0.000 A 
ATOM      9  N   UNL     1      49.892   6.323  19.685  0.00  0.00    +0.000 NA
ATOM     10  C   UNL     1      50.536   5.508  18.915  0.00  0.00    +0.000 A 
ATOM     11  N   UNL     1      50.384   5.424  17.551  0.00  0.00    +0.000 N 
ATOM     12  C   UNL     1      49.537   6.243  16.845  0.00  0.00    +0.000 A 
ATOM     13  O   UNL     1      49.342   6.096  15.645  0.00  0.00    +0.000 OA
ATOM     14  C   UNL     1      48.912   7.263  17.658  0.00  0.00    +0.000 A 
ATOM     15  H   UNL     1      50.850   4.704  17.019  0.00  0.00    +0.000 HD
ENDBRANCH   2   5
BRANCH   3  16
ATOM     16  C   UNL     1      47.624   8.885  13.658  0.00  0.00    +0.000 C 
BRANCH  16  17
ATOM     17  C   UNL     1      46.844   7.773  12.992  0.00  0.00    +0.000 A 
ATOM     18  C   UNL     1      45.730   8.052  12.190  0.00  0.00    +0.000 A 
ATOM     19  C   UNL     1      44.958   7.014  11.658  0.00  0.00    +0.000 A 
ATOM     20  C   UNL     1      45.263   5.677  11.944  0.00  0.00    +0.000 A 
ATOM     21  C   UNL     1      46.377   5.397  12.748  0.00  0.00    +0.000 A 
ATOM     22  C   UNL     1      47.151   6.434  13.275  0.00  0.00    +0.000 A 
BRANCH  20  23
ATOM     23  C   UNL     1      44.416   4.549  11.396  0.00  0.00    +0.000 C 
BRANCH  23  24
ATOM     24  O   UNL     1      44.163   4.785  10.016  0.00  0.00    +0.000 OA
BRANCH  24  25
ATOM     25  C   UNL     1      44.909   3.940   9.222  0.00  0.00    +0.000 A 
ATOM     26  N   UNL     1      45.598   4.542   8.243  0.00  0.00    +0.000 NA
ATOM     27  C   UNL     1      46.324   3.732   7.448  0.00  0.00    +0.000 A 
ATOM     28  C   UNL     1      46.389   2.364   7.609  0.00  0.00    +0.000 A 
ATOM     29  C   UNL     1      45.660   1.861   8.657  0.00  0.00    +0.000 A 
ATOM     30  N   UNL     1      44.909   2.620   9.478  0.00  0.00    +0.000 NA
ENDBRANCH  24  25
ENDBRANCH  23  24
ENDBRANCH  20  23
ENDBRANCH  16  17
ENDBRANCH   3  16
TORSDOF 6
ENDMDL
MODEL 6
REMARK VINA RESULT:    -6.969      3.515      8.812
REMARK INTER + INTRA:         -10.315
REMARK INTER:                  -9.673
REMARK INTRA:                  -0.642
REMARK UNBOUND:                -0.902
REMARK  Name = 
REMARK  6 active torsions:
REMARK  status: ('A' for Active; 'I' for Inactive)
REMARK    1  A    between atoms: C_2  and  C_19
REMARK    2  A    between atoms: N_3  and  C_4
REMARK    3  A    between atoms: C_4  and  C_5
REMARK    4  A    between atoms: C_8  and  C_9
REMARK    5  A    between atoms: C_9  and  O_10
REMARK    6  A    between atoms: O_10  and  C_11
REMARK                            x       y       z     vdW  Elec       q    Type
REMARK                         _______ _______ _______ _____ _____    ______ ____
ROOT
ATOM      1  O   UNL     1      47.460   2.990  14.371  0.00  0.00    +0.000 OA
ATOM      2  C   UNL     1      47.122   4.103  14.747  0.00  0.00    +0.000 C 
ATOM      3  N   UNL     1      46.880   4.457  16.052  0.00  0.00    +0.000 N 
ATOM      4  H   UNL     1      46.732   5.432  16.261  0.00  0.00    +0.000 HD
ENDROOT
BRANCH   2   5
ATOM      5  C   UNL     1      47.119   5.279  13.886  0.00  0.00    +0.000 A 
ATOM      6  C   UNL     1      47.987   6.341  14.069  0.00  0.00    +0.000 A 
ATOM      7  S   UNL     1      47.396   7.774  13.327  0.00  0.00    +0.000 S 
ATOM      8  C   UNL     1      46.060   6.948  12.658  0.00  0.00    +0.000 A 
ATOM      9  N   UNL     1      45.043   7.589  12.023  0.00  0.00    +0.000 NA
ATOM     10  C   UNL     1      44.132   6.799  11.553  0.00  0.00    +0.000 A 
ATOM     11  N   UNL     1      44.174   5.426  11.607  0.00  0.00    +0.000 N 
ATOM     12  C   UNL     1      45.196   4.736  12.211  0.00  0.00    +0.000 A 
ATOM     13  O   UNL     1      45.268   3.514  12.169  0.00  0.00    +0.000 OA
ATOM     14  C   UNL     1      46.156   5.592  12.873  0.00  0.00    +0.000 A 
ATOM     15  H   UNL     1      43.475   4.866  11.141  0.00  0.00    +0.000 HD
ENDBRANCH   2   5
BRANCH   3  16
ATOM     16  C   UNL     1      47.177   3.631  17.190  0.00  0.00    +0.000 C 
BRANCH  16  17
ATOM     17  C   UNL     1      48.679   3.476  17.275  0.00  0.00    +0.000 A 
ATOM     18  C   UNL     1      49.288   2.229  17.080  0.00  0.00    +0.000 A 
ATOM     19  C   UNL     1      50.668   2.076  17.256  0.00  0.00    +0.000 A 
ATOM     20  C   UNL     1      51.460   3.157  17.664  0.00  0.00    +0.000 A 
ATOM     21  C   UNL     1      50.852   4.403  17.861  0.00  0.00    +0.000 A 
ATOM     22  C   UNL     1      49.474   4.558  17.680  0.00  0.00    +0.000 A 
BRANCH  20  23
ATOM     23  C   UNL     1      52.949   2.993  17.885  0.00  0.00    +0.000 C 
BRANCH  23  24
ATOM     24  O   UNL     1      53.168   1.933  18.808  0.00  0.00    +0.000 OA
BRANCH  24  25
ATOM     25  C   UNL     1      53.846   0.889  18.215  0.00  0.00    +0.000 A 
ATOM     26  N   UNL     1      54.398   1.173  17.027  0.00  0.00    +0.000 NA
ATOM     27  C   UNL     1      55.055   0.162  16.425  0.00  0.00    +0.000 A 
ATOM     28  C   UNL     1      55.184  -1.097  16.972  0.00  0.00    +0.000 A 
ATOM     29  C   UNL     1      54.597  -1.265  18.201  0.00  0.00    +0.000 A 
ATOM     30  N   UNL     1      53.919  -0.297  18.845  0.00  0.00    +0.000 NA
ENDBRANCH  24  25
ENDBRANCH  23  24
ENDBRANCH  20  23
ENDBRANCH  16  17
ENDBRANCH   3  16
TORSDOF 6
ENDMDL
MODEL 7
REMARK VINA RESULT:    -6.584      3.116      8.001
REMARK INTER + INTRA:          -9.795
REMARK INTER:                  -8.911
REMARK INTRA:                  -0.884
REMARK UNBOUND:                -0.902
REMARK  Name = 
REMARK  6 active torsions:
REMARK  status: ('A' for Active; 'I' for Inactive)
REMARK    1  A    between atoms: C_2  and  C_19
REMARK    2  A    between atoms: N_3  and  C_4
REMARK    3  A    between atoms: C_4  and  C_5
REMARK    4  A    between atoms: C_8  and  C_9
REMARK    5  A    between atoms: C_9  and  O_10
REMARK    6  A    between atoms: O_10  and  C_11
REMARK                            x       y       z     vdW  Elec       q    Type
REMARK                         _______ _______ _______ _____ _____    ______ ____
ROOT
ATOM      1  O   UNL     1      44.584   7.789  11.523  0.00  0.00    +0.000 OA
ATOM      2  C   UNL     1      45.578   7.108  11.322  0.00  0.00    +0.000 C 
ATOM      3  N   UNL     1      46.847   7.415  11.751  0.00  0.00    +0.000 N 
ATOM      4  H   UNL     1      47.568   6.720  11.640  0.00  0.00    +0.000 HD
ENDROOT
BRANCH   2   5
ATOM      5  C   UNL     1      45.535   5.760  10.767  0.00  0.00    +0.000 A 
ATOM      6  C   UNL     1      45.906   5.477   9.465  0.00  0.00    +0.000 A 
ATOM      7  S   UNL     1      45.225   3.995   8.924  0.00  0.00    +0.000 S 
ATOM      8  C   UNL     1      44.551   3.675  10.459  0.00  0.00    +0.000 A 
ATOM      9  N   UNL     1      43.697   2.642  10.686  0.00  0.00    +0.000 NA
ATOM     10  C   UNL     1      43.312   2.535  11.916  0.00  0.00    +0.000 A 
ATOM     11  N   UNL     1      43.747   3.327  12.951  0.00  0.00    +0.000 N 
ATOM     12  C   UNL     1      44.632   4.362  12.774  0.00  0.00    +0.000 A 
ATOM     13  O   UNL     1      45.083   5.000  13.718  0.00  0.00    +0.000 OA
ATOM     14  C   UNL     1      44.969   4.601  11.388  0.00  0.00    +0.000 A 
ATOM     15  H   UNL     1      43.476   3.133  13.904  0.00  0.00    +0.000 HD
ENDBRANCH   2   5
BRANCH   3  16
ATOM     16  C   UNL     1      47.164   8.478  12.665  0.00  0.00    +0.000 C 
BRANCH  16  17
ATOM     17  C   UNL     1      47.950   7.886  13.814  0.00  0.00    +0.000 A 
ATOM     18  C   UNL     1      48.981   8.608  14.431  0.00  0.00    +0.000 A 
ATOM     19  C   UNL     1      49.766   8.017  15.426  0.00  0.00    +0.000 A 
ATOM     20  C   UNL     1      49.560   6.684  15.802  0.00  0.00    +0.000 A 
ATOM     21  C   UNL     1      48.531   5.960  15.184  0.00  0.00    +0.000 A 
ATOM     22  C   UNL     1      47.742   6.552  14.193  0.00  0.00    +0.000 A 
BRANCH  20  23
ATOM     23  C   UNL     1      50.424   6.028  16.857  0.00  0.00    +0.000 C 
BRANCH  23  24
ATOM     24  O   UNL     1      49.760   4.869  17.347  0.00  0.00    +0.000 OA
BRANCH  24  25
ATOM     25  C   UNL     1      50.641   3.819  17.499  0.00  0.00    +0.000 A 
ATOM     26  N   UNL     1      50.201   2.638  17.044  0.00  0.00    +0.000 NA
ATOM     27  C   UNL     1      51.042   1.597  17.194  0.00  0.00    +0.000 A 
ATOM     28  C   UNL     1      52.293   1.703  17.765  0.00  0.00    +0.000 A 
ATOM     29  C   UNL     1      52.645   2.964  18.176  0.00  0.00    +0.000 A 
ATOM     30  N   UNL     1      51.843   4.039  18.061  0.00  0.00    +0.000 NA
ENDBRANCH  24  25
ENDBRANCH  23  24
ENDBRANCH  20  23
ENDBRANCH  16  17
ENDBRANCH   3  16
TORSDOF 6
ENDMDL
MODEL 8
REMARK VINA RESULT:    -6.578      3.672      8.419
REMARK INTER + INTRA:          -9.786
REMARK INTER:                  -8.820
REMARK INTRA:                  -0.967
REMARK UNBOUND:                -0.902
REMARK  Name = 
REMARK  6 active torsions:
REMARK  status: ('A' for Active; 'I' for Inactive)
REMARK    1  A    between atoms: C_2  and  C_19
REMARK    2  A    between atoms: N_3  and  C_4
REMARK    3  A    between atoms: C_4  and  C_5
REMARK    4  A    between atoms: C_8  and  C_9
REMARK    5  A    between atoms: C_9  and  O_10
REMARK    6  A    between atoms: O_10  and  C_11
REMARK                            x       y       z     vdW  Elec       q    Type
REMARK                         _______ _______ _______ _____ _____    ______ ____
ROOT
ATOM      1  O   UNL     1      49.573   6.773  14.134  0.00  0.00    +0.000 OA
ATOM      2  C   UNL     1      48.414   6.470  14.376  0.00  0.00    +0.000 C 
ATOM      3  N   UNL     1      47.924   6.148  15.618  0.00  0.00    +0.000 N 
ATOM      4  H   UNL     1      46.927   6.039  15.723  0.00  0.00    +0.000 HD
ENDROOT
BRANCH   2   5
ATOM      5  C   UNL     1      47.327   6.602  13.412  0.00  0.00    +0.000 A 
ATOM      6  C   UNL     1      47.025   7.798  12.786  0.00  0.00    +0.000 A 
ATOM      7  S   UNL     1      45.413   7.808  12.190  0.00  0.00    +0.000 S 
ATOM      8  C   UNL     1      45.170   6.183  12.649  0.00  0.00    +0.000 A 
ATOM      9  N   UNL     1      43.956   5.573  12.582  0.00  0.00    +0.000 NA
ATOM     10  C   UNL     1      43.967   4.331  12.941  0.00  0.00    +0.000 A 
ATOM     11  N   UNL     1      45.089   3.624  13.304  0.00  0.00    +0.000 N 
ATOM     12  C   UNL     1      46.339   4.189  13.357  0.00  0.00    +0.000 A 
ATOM     13  O   UNL     1      47.343   3.527  13.590  0.00  0.00    +0.000 OA
ATOM     14  C   UNL     1      46.339   5.613  13.102  0.00  0.00    +0.000 A 
ATOM     15  H   UNL     1      45.043   2.632  13.486  0.00  0.00    +0.000 HD
ENDBRANCH   2   5
BRANCH   3  16
ATOM     16  C   UNL     1      48.650   6.307  16.848  0.00  0.00    +0.000 C 
BRANCH  16  17
ATOM     17  C   UNL     1      49.311   4.986  17.174  0.00  0.00    +0.000 A 
ATOM     18  C   UNL     1      50.661   4.927  17.545  0.00  0.00    +0.000 A 
ATOM     19  C   UNL     1      51.288   3.693  17.750  0.00  0.00    +0.000 A 
ATOM     20  C   UNL     1      50.590   2.495  17.556  0.00  0.00    +0.000 A 
ATOM     21  C   UNL     1      49.240   2.553  17.183  0.00  0.00    +0.000 A 
ATOM     22  C   UNL     1      48.611   3.786  16.983  0.00  0.00    +0.000 A 
BRANCH  20  23
ATOM     23  C   UNL     1      51.269   1.156  17.747  0.00  0.00    +0.000 C 
BRANCH  23  24
ATOM     24  O   UNL     1      52.260   0.989  16.741  0.00  0.00    +0.000 OA
BRANCH  24  25
ATOM     25  C   UNL     1      53.323   0.246  17.208  0.00  0.00    +0.000 A 
ATOM     26  N   UNL     1      54.261  -0.042  16.295  0.00  0.00    +0.000 NA
ATOM     27  C   UNL     1      55.302  -0.778  16.729  0.00  0.00    +0.000 A 
ATOM     28  C   UNL     1      55.436  -1.216  18.030  0.00  0.00    +0.000 A 
ATOM     29  C   UNL     1      54.427  -0.844  18.881  0.00  0.00    +0.000 A 
ATOM     30  N   UNL     1      53.358  -0.119  18.502  0.00  0.00    +0.000 NA
ENDBRANCH  24  25
ENDBRANCH  23  24
ENDBRANCH  20  23
ENDBRANCH  16  17
ENDBRANCH   3  16
TORSDOF 6
ENDMDL
MODEL 9
REMARK VINA RESULT:    -6.461      3.231      9.037
REMARK INTER + INTRA:          -9.629
REMARK INTER:                  -8.898
REMARK INTRA:                  -0.731
REMARK UNBOUND:                -0.902
REMARK  Name = 
REMARK  6 active torsions:
REMARK  status: ('A' for Active; 'I' for Inactive)
REMARK    1  A    between atoms: C_2  and  C_19
REMARK    2  A    between atoms: N_3  and  C_4
REMARK    3  A    between atoms: C_4  and  C_5
REMARK    4  A    between atoms: C_8  and  C_9
REMARK    5  A    between atoms: C_9  and  O_10
REMARK    6  A    between atoms: O_10  and  C_11
REMARK                            x       y       z     vdW  Elec       q    Type
REMARK                         _______ _______ _______ _____ _____    ______ ____
ROOT
ATOM      1  O   UNL     1      44.811   7.323  11.651  0.00  0.00    +0.000 OA
ATOM      2  C   UNL     1      45.314   6.223  11.475  0.00  0.00    +0.000 C 
ATOM      3  N   UNL     1      46.612   5.890  11.778  0.00  0.00    +0.000 N 
ATOM      4  H   UNL     1      46.883   4.922  11.709  0.00  0.00    +0.000 HD
ENDROOT
BRANCH   2   5
ATOM      5  C   UNL     1      44.553   5.037  11.101  0.00  0.00    +0.000 A 
ATOM      6  C   UNL     1      43.535   4.525  11.885  0.00  0.00    +0.000 A 
ATOM      7  S   UNL     1      43.230   2.873  11.523  0.00  0.00    +0.000 S 
ATOM      8  C   UNL     1      44.357   2.884  10.242  0.00  0.00    +0.000 A 
ATOM      9  N   UNL     1      44.727   1.756   9.579  0.00  0.00    +0.000 NA
ATOM     10  C   UNL     1      45.568   1.960   8.617  0.00  0.00    +0.000 A 
ATOM     11  N   UNL     1      46.026   3.192   8.217  0.00  0.00    +0.000 N 
ATOM     12  C   UNL     1      45.656   4.360   8.837  0.00  0.00    +0.000 A 
ATOM     13  O   UNL     1      45.997   5.457   8.413  0.00  0.00    +0.000 OA
ATOM     14  C   UNL     1      44.832   4.155  10.008  0.00  0.00    +0.000 A 
ATOM     15  H   UNL     1      46.611   3.290   7.401  0.00  0.00    +0.000 HD
ENDBRANCH   2   5
BRANCH   3  16
ATOM     16  C   UNL     1      47.514   6.722  12.526  0.00  0.00    +0.000 C 
BRANCH  16  17
ATOM     17  C   UNL     1      47.754   6.063  13.866  0.00  0.00    +0.000 A 
ATOM     18  C   UNL     1      47.018   4.936  14.258  0.00  0.00    +0.000 A 
ATOM     19  C   UNL     1      47.178   4.392  15.537  0.00  0.00    +0.000 A 
ATOM     20  C   UNL     1      48.050   4.982  16.461  0.00  0.00    +0.000 A 
ATOM     21  C   UNL     1      48.785   6.109  16.070  0.00  0.00    +0.000 A 
ATOM     22  C   UNL     1      48.630   6.650  14.790  0.00  0.00    +0.000 A 
BRANCH  20  23
ATOM     23  C   UNL     1      48.207   4.417  17.856  0.00  0.00    +0.000 C 
BRANCH  23  24
ATOM     24  O   UNL     1      49.295   5.068  18.502  0.00  0.00    +0.000 OA
BRANCH  24  25
ATOM     25  C   UNL     1      48.847   6.014  19.399  0.00  0.00    +0.000 A 
ATOM     26  N   UNL     1      49.604   7.116  19.488  0.00  0.00    +0.000 NA
ATOM     27  C   UNL     1      49.189   8.047  20.369  0.00  0.00    +0.000 A 
ATOM     28  C   UNL     1      48.053   7.916  21.139  0.00  0.00    +0.000 A 
ATOM     29  C   UNL     1      47.345   6.756  20.948  0.00  0.00    +0.000 A 
ATOM     30  N   UNL     1      47.716   5.786  20.091  0.00  0.00    +0.000 NA
ENDBRANCH  24  25
ENDBRANCH  23  24
ENDBRANCH  20  23
ENDBRANCH  16  17
ENDBRANCH   3  16
TORSDOF 6
ENDMDL
