MODEL 1
REMARK VINA RESULT:    -7.644      0.000      0.000
REMARK INTER + INTRA:         -13.340
REMARK INTER:                 -11.666
REMARK INTRA:                  -1.674
REMARK UNBOUND:                -1.674
REMARK  Name = 
REMARK  11 active torsions:
REMARK  status: ('A' for Active; 'I' for Inactive)
REMARK    1  A    between atoms: C_1  and  O_2
REMARK    2  A    between atoms: O_2  and  C_3
REMARK    3  A    between atoms: C_8  and  C_9
REMARK    4  A    between atoms: C_9  and  N_10
REMARK    5  A    between atoms: N_10  and  C_11
REMARK    6  A    between atoms: C_11  and  C_12
REMARK    7  A    between atoms: C_15  and  C_16
REMARK    8  A    between atoms: C_16  and  N_17
REMARK    9  A    between atoms: C_18  and  C_20
REMARK   10  A    between atoms: C_27  and  O_28
REMARK   11  A    between atoms: O_28  and  C_29
REMARK                            x       y       z     vdW  Elec       q    Type
REMARK                         _______ _______ _______ _____ _____    ______ ____
ROOT
ATOM      1  C   UNL     1      44.563   5.217  10.973  0.00  0.00    +0.000 A 
ATOM      2  C   UNL     1      44.184   5.575  12.277  0.00  0.00    +0.000 A 
ATOM      3  C   UNL     1      44.941   6.481  13.025  0.00  0.00    +0.000 A 
ATOM      4  C   UNL     1      46.105   7.048  12.489  0.00  0.00    +0.000 A 
ATOM      5  C   UNL     1      46.515   6.655  11.208  0.00  0.00    +0.000 A 
ATOM      6  C   UNL     1      45.751   5.752  10.457  0.00  0.00    +0.000 A 
ENDROOT
BRANCH   1   7
ATOM      7  C   UNL     1      43.700   4.285  10.144  0.00  0.00    +0.000 C 
BRANCH   7   8
ATOM      8  N   UNL     1      44.315   4.032   8.842  0.00  0.00    +0.000 NA
ATOM      9  H   UNL     1      43.617   4.143   8.109  0.00  0.00    +0.000 HD
BRANCH   8  10
ATOM     10  C   UNL     1      44.861   2.676   8.732  0.00  0.00    +0.000 C 
BRANCH  10  16
ATOM     11  C   UNL     1      46.723   1.470   7.436  0.00  0.00    +0.000 A 
ATOM     12  C   UNL     1      47.722   1.503   6.451  0.00  0.00    +0.000 A 
ATOM     13  C   UNL     1      47.936   2.653   5.688  0.00  0.00    +0.000 A 
ATOM     14  C   UNL     1      47.154   3.783   5.896  0.00  0.00    +0.000 A 
ATOM     15  C   UNL     1      46.164   3.764   6.876  0.00  0.00    +0.000 A 
ATOM     16  C   UNL     1      45.931   2.613   7.657  0.00  0.00    +0.000 A 
BRANCH  11  18
ATOM     17  C   UNL     1      46.469  -0.899   7.535  0.00  0.00    +0.000 C 
ATOM     18  O   UNL     1      46.431   0.364   8.190  0.00  0.00    +0.000 OA
ENDBRANCH  11  18
ENDBRANCH  10  16
ENDBRANCH   8  10
ENDBRANCH   7   8
ENDBRANCH   1   7
BRANCH   4  19
ATOM     19  C   UNL     1      46.911   8.039  13.289  0.00  0.00    +0.000 C 
BRANCH  19  20
ATOM     20  N   UNL     1      47.447   7.431  14.481  0.00  0.00    +0.000 N 
ATOM     21  C   UNL     1      48.640   6.755  14.473  0.00  0.00    +0.000 C 
ATOM     22  O   UNL     1      49.363   6.713  13.481  0.00  0.00    +0.000 OA
ATOM     23  H   UNL     1      46.819   7.319  15.264  0.00  0.00    +0.000 HD
BRANCH  21  24
ATOM     24  C   UNL     1      49.041   6.134  15.743  0.00  0.00    +0.000 A 
ATOM     25  C   UNL     1      50.182   6.582  16.395  0.00  0.00    +0.000 A 
ATOM     26  S   UNL     1      50.454   5.815  17.891  0.00  0.00    +0.000 S 
ATOM     27  C   UNL     1      49.092   4.821  17.685  0.00  0.00    +0.000 A 
ATOM     28  N   UNL     1      48.772   3.918  18.627  0.00  0.00    +0.000 NA
ATOM     29  C   UNL     1      47.698   3.196  18.307  0.00  0.00    +0.000 A 
ATOM     30  N   UNL     1      46.964   3.286  17.192  0.00  0.00    +0.000 NA
ATOM     31  C   UNL     1      47.323   4.203  16.274  0.00  0.00    +0.000 A 
ATOM     32  C   UNL     1      48.421   5.052  16.491  0.00  0.00    +0.000 A 
BRANCH  31  33
ATOM     33  O   UNL     1      46.602   4.299  15.102  0.00  0.00    +0.000 OA
ATOM     34  C   UNL     1      47.080   3.457  14.058  0.00  0.00    +0.000 C 
ENDBRANCH  31  33
ENDBRANCH  21  24
ENDBRANCH  19  20
ENDBRANCH   4  19
TORSDOF 9
ENDMDL
MODEL 2
REMARK VINA RESULT:    -7.213      1.642      2.181
REMARK INTER + INTRA:         -12.682
REMARK INTER:                 -10.917
REMARK INTRA:                  -1.765
REMARK UNBOUND:                -1.674
REMARK  Name = 
REMARK  11 active torsions:
REMARK  status: ('A' for Active; 'I' for Inactive)
REMARK    1  A    between atoms: C_1  and  O_2
REMARK    2  A    between atoms: O_2  and  C_3
REMARK    3  A    between atoms: C_8  and  C_9
REMARK    4  A    between atoms: C_9  and  N_10
REMARK    5  A    between atoms: N_10  and  C_11
REMARK    6  A    between atoms: C_11  and  C_12
REMARK    7  A    between atoms: C_15  and  C_16
REMARK    8  A    between atoms: C_16  and  N_17
REMARK    9  A    between atoms: C_18  and  C_20
REMARK   10  A    between atoms: C_27  and  O_28
REMARK   11  A    between atoms: O_28  and  C_29
REMARK                            x       y       z     vdW  Elec       q    Type
REMARK                         _______ _______ _______ _____ _____    ______ ____
ROOT
ATOM      1  C   UNL     1      44.543   4.424  12.577  0.00  0.00    +0.000 A 
ATOM      2  C   UNL     1      44.246   5.786  12.406  0.00  0.00    +0.000 A 
ATOM      3  C   UNL     1      45.208   6.770  12.647  0.00  0.00    +0.000 A 
ATOM      4  C   UNL     1      46.494   6.417  13.075  0.00  0.00    +0.000 A 
ATOM      5  C   UNL     1      46.780   5.063  13.297  0.00  0.00    +0.000 A 
ATOM      6  C   UNL     1      45.816   4.077  13.047  0.00  0.00    +0.000 A 
ENDROOT
BRANCH   1   7
ATOM      7  C   UNL     1      43.513   3.360  12.248  0.00  0.00    +0.000 C 
BRANCH   7   8
ATOM      8  N   UNL     1      43.383   3.196  10.802  0.00  0.00    +0.000 NA
ATOM      9  H   UNL     1      42.439   2.885  10.579  0.00  0.00    +0.000 HD
BRANCH   8  10
ATOM     10  C   UNL     1      44.315   2.202  10.262  0.00  0.00    +0.000 C 
BRANCH  10  16
ATOM     11  C   UNL     1      45.954   2.038   8.290  0.00  0.00    +0.000 A 
ATOM     12  C   UNL     1      46.766   2.678   7.341  0.00  0.00    +0.000 A 
ATOM     13  C   UNL     1      46.818   4.072   7.268  0.00  0.00    +0.000 A 
ATOM     14  C   UNL     1      46.056   4.844   8.137  0.00  0.00    +0.000 A 
ATOM     15  C   UNL     1      45.251   4.219   9.087  0.00  0.00    +0.000 A 
ATOM     16  C   UNL     1      45.185   2.814   9.178  0.00  0.00    +0.000 A 
BRANCH  11  18
ATOM     17  C   UNL     1      46.717  -0.120   7.621  0.00  0.00    +0.000 C 
ATOM     18  O   UNL     1      45.823   0.677   8.389  0.00  0.00    +0.000 OA
ENDBRANCH  11  18
ENDBRANCH  10  16
ENDBRANCH   8  10
ENDBRANCH   7   8
ENDBRANCH   1   7
BRANCH   4  19
ATOM     19  C   UNL     1      47.538   7.477  13.318  0.00  0.00    +0.000 C 
BRANCH  19  20
ATOM     20  N   UNL     1      48.640   6.955  14.086  0.00  0.00    +0.000 N 
ATOM     21  C   UNL     1      49.010   7.506  15.286  0.00  0.00    +0.000 C 
ATOM     22  O   UNL     1      48.366   8.406  15.820  0.00  0.00    +0.000 OA
ATOM     23  H   UNL     1      49.273   6.324  13.615  0.00  0.00    +0.000 HD
BRANCH  21  24
ATOM     24  C   UNL     1      50.186   6.913  15.937  0.00  0.00    +0.000 A 
ATOM     25  C   UNL     1      51.395   7.596  15.921  0.00  0.00    +0.000 A 
ATOM     26  S   UNL     1      52.629   6.809  16.792  0.00  0.00    +0.000 S 
ATOM     27  C   UNL     1      51.605   5.506  17.164  0.00  0.00    +0.000 A 
ATOM     28  N   UNL     1      52.068   4.476  17.892  0.00  0.00    +0.000 NA
ATOM     29  C   UNL     1      51.156   3.521  18.074  0.00  0.00    +0.000 A 
ATOM     30  N   UNL     1      49.899   3.502  17.614  0.00  0.00    +0.000 NA
ATOM     31  C   UNL     1      49.480   4.555  16.887  0.00  0.00    +0.000 A 
ATOM     32  C   UNL     1      50.328   5.646  16.638  0.00  0.00    +0.000 A 
BRANCH  31  33
ATOM     33  O   UNL     1      48.199   4.549  16.375  0.00  0.00    +0.000 OA
ATOM     34  C   UNL     1      47.181   4.415  17.361  0.00  0.00    +0.000 C 
ENDBRANCH  31  33
ENDBRANCH  21  24
ENDBRANCH  19  20
ENDBRANCH   4  19
TORSDOF 9
ENDMDL
MODEL 3
REMARK VINA RESULT:    -6.753      3.136      5.600
REMARK INTER + INTRA:         -11.981
REMARK INTER:                 -10.315
REMARK INTRA:                  -1.666
REMARK UNBOUND:                -1.674
REMARK  Name = 
REMARK  11 active torsions:
REMARK  status: ('A' for Active; 'I' for Inactive)
REMARK    1  A    between atoms: C_1  and  O_2
REMARK    2  A    between atoms: O_2  and  C_3
REMARK    3  A    between atoms: C_8  and  C_9
REMARK    4  A    between atoms: C_9  and  N_10
REMARK    5  A    between atoms: N_10  and  C_11
REMARK    6  A    between atoms: C_11  and  C_12
REMARK    7  A    between atoms: C_15  and  C_16
REMARK    8  A    between atoms: C_16  and  N_17
REMARK    9  A    between atoms: C_18  and  C_20
REMARK   10  A    between atoms: C_27  and  O_28
REMARK   11  A    between atoms: O_28  and  C_29
REMARK                            x       y       z     vdW  Elec       q    Type
REMARK                         _______ _______ _______ _____ _____    ______ ____
ROOT
ATOM      1  C   UNL     1      47.457   5.899  13.605  0.00  0.00    +0.000 A 
ATOM      2  C   UNL     1      46.986   4.579  13.692  0.00  0.00    +0.000 A 
ATOM      3  C   UNL     1      47.127   3.838  14.869  0.00  0.00    +0.000 A 
ATOM      4  C   UNL     1      47.752   4.397  15.990  0.00  0.00    +0.000 A 
ATOM      5  C   UNL     1      48.269   5.696  15.893  0.00  0.00    +0.000 A 
ATOM      6  C   UNL     1      48.121   6.440  14.715  0.00  0.00    +0.000 A 
ENDROOT
BRANCH   1   7
ATOM      7  C   UNL     1      47.241   6.718  12.348  0.00  0.00    +0.000 C 
BRANCH   7   8
ATOM      8  N   UNL     1      46.034   7.534  12.463  0.00  0.00    +0.000 NA
ATOM      9  H   UNL     1      45.597   7.368  13.368  0.00  0.00    +0.000 HD
BRANCH   8  10
ATOM     10  C   UNL     1      45.043   7.222  11.429  0.00  0.00    +0.000 C 
BRANCH  10  16
ATOM     11  C   UNL     1      44.727   4.791  10.659  0.00  0.00    +0.000 A 
ATOM     12  C   UNL     1      44.165   3.523  10.870  0.00  0.00    +0.000 A 
ATOM     13  C   UNL     1      43.397   3.262  12.008  0.00  0.00    +0.000 A 
ATOM     14  C   UNL     1      43.183   4.262  12.948  0.00  0.00    +0.000 A 
ATOM     15  C   UNL     1      43.730   5.527  12.745  0.00  0.00    +0.000 A 
ATOM     16  C   UNL     1      44.509   5.811  11.604  0.00  0.00    +0.000 A 
BRANCH  11  18
ATOM     17  C   UNL     1      45.523   4.198   8.490  0.00  0.00    +0.000 C 
ATOM     18  O   UNL     1      45.525   5.103   9.589  0.00  0.00    +0.000 OA
ENDBRANCH  11  18
ENDBRANCH  10  16
ENDBRANCH   8  10
ENDBRANCH   7   8
ENDBRANCH   1   7
BRANCH   4  19
ATOM     19  C   UNL     1      47.887   3.605  17.265  0.00  0.00    +0.000 C 
BRANCH  19  20
ATOM     20  N   UNL     1      49.272   3.352  17.575  0.00  0.00    +0.000 N 
ATOM     21  C   UNL     1      49.978   2.350  16.961  0.00  0.00    +0.000 C 
ATOM     22  O   UNL     1      49.504   1.679  16.047  0.00  0.00    +0.000 OA
ATOM     23  H   UNL     1      49.642   3.776  18.413  0.00  0.00    +0.000 HD
BRANCH  21  24
ATOM     24  C   UNL     1      51.364   2.163  17.412  0.00  0.00    +0.000 A 
ATOM     25  C   UNL     1      51.842   0.880  17.645  0.00  0.00    +0.000 A 
ATOM     26  S   UNL     1      53.488   0.839  18.079  0.00  0.00    +0.000 S 
ATOM     27  C   UNL     1      53.596   2.533  18.026  0.00  0.00    +0.000 A 
ATOM     28  N   UNL     1      54.761   3.140  18.311  0.00  0.00    +0.000 NA
ATOM     29  C   UNL     1      54.677   4.469  18.256  0.00  0.00    +0.000 A 
ATOM     30  N   UNL     1      53.596   5.202  17.967  0.00  0.00    +0.000 NA
ATOM     31  C   UNL     1      52.450   4.551  17.690  0.00  0.00    +0.000 A 
ATOM     32  C   UNL     1      52.399   3.147  17.686  0.00  0.00    +0.000 A 
BRANCH  31  33
ATOM     33  O   UNL     1      51.312   5.281  17.416  0.00  0.00    +0.000 OA
ATOM     34  C   UNL     1      51.568   6.616  16.991  0.00  0.00    +0.000 C 
ENDBRANCH  31  33
ENDBRANCH  21  24
ENDBRANCH  19  20
ENDBRANCH   4  19
TORSDOF 9
ENDMDL
MODEL 4
REMARK VINA RESULT:    -6.531      3.051      4.429
REMARK INTER + INTRA:         -11.642
REMARK INTER:                 -10.498
REMARK INTRA:                  -1.144
REMARK UNBOUND:                -1.674
REMARK  Name = 
REMARK  11 active torsions:
REMARK  status: ('A' for Active; 'I' for Inactive)
REMARK    1  A    between atoms: C_1  and  O_2
REMARK    2  A    between atoms: O_2  and  C_3
REMARK    3  A    between atoms: C_8  and  C_9
REMARK    4  A    between atoms: C_9  and  N_10
REMARK    5  A    between atoms: N_10  and  C_11
REMARK    6  A    between atoms: C_11  and  C_12
REMARK    7  A    between atoms: C_15  and  C_16
REMARK    8  A    between atoms: C_16  and  N_17
REMARK    9  A    between atoms: C_18  and  C_20
REMARK   10  A    between atoms: C_27  and  O_28
REMARK   11  A    between atoms: O_28  and  C_29
REMARK                            x       y       z     vdW  Elec       q    Type
REMARK                         _______ _______ _______ _____ _____    ______ ____
ROOT
ATOM      1  C   UNL     1      47.160   5.403  13.965  0.00  0.00    +0.000 A 
ATOM      2  C   UNL     1      47.097   4.685  15.171  0.00  0.00    +0.000 A 
ATOM      3  C   UNL     1      47.844   5.079  16.285  0.00  0.00    +0.000 A 
ATOM      4  C   UNL     1      48.681   6.200  16.219  0.00  0.00    +0.000 A 
ATOM      5  C   UNL     1      48.787   6.889  15.003  0.00  0.00    +0.000 A 
ATOM      6  C   UNL     1      48.032   6.497  13.889  0.00  0.00    +0.000 A 
ENDROOT
BRANCH   1   7
ATOM      7  C   UNL     1      46.296   5.008  12.783  0.00  0.00    +0.000 C 
BRANCH   7   8
ATOM      8  N   UNL     1      46.351   6.029  11.738  0.00  0.00    +0.000 NA
ATOM      9  H   UNL     1      46.446   6.948  12.167  0.00  0.00    +0.000 HD
BRANCH   8  10
ATOM     10  C   UNL     1      45.144   6.050  10.908  0.00  0.00    +0.000 C 
BRANCH  10  16
ATOM     11  C   UNL     1      44.354   3.759  10.054  0.00  0.00    +0.000 A 
ATOM     12  C   UNL     1      44.454   2.724   9.111  0.00  0.00    +0.000 A 
ATOM     13  C   UNL     1      45.337   2.821   8.033  0.00  0.00    +0.000 A 
ATOM     14  C   UNL     1      46.127   3.954   7.880  0.00  0.00    +0.000 A 
ATOM     15  C   UNL     1      46.042   4.985   8.814  0.00  0.00    +0.000 A 
ATOM     16  C   UNL     1      45.157   4.906   9.909  0.00  0.00    +0.000 A 
BRANCH  11  18
ATOM     17  C   UNL     1      43.367   2.535  11.847  0.00  0.00    +0.000 C 
ATOM     18  O   UNL     1      43.481   3.748  11.110  0.00  0.00    +0.000 OA
ENDBRANCH  11  18
ENDBRANCH  10  16
ENDBRANCH   8  10
ENDBRANCH   7   8
ENDBRANCH   1   7
BRANCH   4  19
ATOM     19  C   UNL     1      49.472   6.636  17.426  0.00  0.00    +0.000 C 
BRANCH  19  20
ATOM     20  N   UNL     1      50.429   5.629  17.811  0.00  0.00    +0.000 N 
ATOM     21  C   UNL     1      51.718   5.640  17.342  0.00  0.00    +0.000 C 
ATOM     22  O   UNL     1      52.155   6.556  16.651  0.00  0.00    +0.000 OA
ATOM     23  H   UNL     1      50.068   4.793  18.249  0.00  0.00    +0.000 HD
BRANCH  21  24
ATOM     24  C   UNL     1      52.571   4.522  17.768  0.00  0.00    +0.000 A 
ATOM     25  C   UNL     1      53.837   4.782  18.276  0.00  0.00    +0.000 A 
ATOM     26  S   UNL     1      54.657   3.384  18.800  0.00  0.00    +0.000 S 
ATOM     27  C   UNL     1      53.373   2.386  18.309  0.00  0.00    +0.000 A 
ATOM     28  N   UNL     1      53.457   1.056  18.476  0.00  0.00    +0.000 NA
ATOM     29  C   UNL     1      52.385   0.410  18.014  0.00  0.00    +0.000 A 
ATOM     30  N   UNL     1      51.307   0.943  17.430  0.00  0.00    +0.000 NA
ATOM     31  C   UNL     1      51.268   2.281  17.282  0.00  0.00    +0.000 A 
ATOM     32  C   UNL     1      52.318   3.090  17.745  0.00  0.00    +0.000 A 
BRANCH  31  33
ATOM     33  O   UNL     1      50.181   2.856  16.656  0.00  0.00    +0.000 OA
ATOM     34  C   UNL     1      49.036   2.012  16.592  0.00  0.00    +0.000 C 
ENDBRANCH  31  33
ENDBRANCH  21  24
ENDBRANCH  19  20
ENDBRANCH   4  19
TORSDOF 9
ENDMDL
MODEL 5
REMARK VINA RESULT:    -6.221      4.015      9.328
REMARK INTER + INTRA:         -11.169
REMARK INTER:                  -8.853
REMARK INTRA:                  -2.315
REMARK UNBOUND:                -1.674
REMARK  Name = 
REMARK  11 active torsions:
REMARK  status: ('A' for Active; 'I' for Inactive)
REMARK    1  A    between atoms: C_1  and  O_2
REMARK    2  A    between atoms: O_2  and  C_3
REMARK    3  A    between atoms: C_8  and  C_9
REMARK    4  A    between atoms: C_9  and  N_10
REMARK    5  A    between atoms: N_10  and  C_11
REMARK    6  A    between atoms: C_11  and  C_12
REMARK    7  A    between atoms: C_15  and  C_16
REMARK    8  A    between atoms: C_16  and  N_17
REMARK    9  A    between atoms: C_18  and  C_20
REMARK   10  A    between atoms: C_27  and  O_28
REMARK   11  A    between atoms: O_28  and  C_29
REMARK                            x       y       z     vdW  Elec       q    Type
REMARK                         _______ _______ _______ _____ _____    ______ ____
ROOT
ATOM      1  C   UNL     1      50.267   4.912  19.260  0.00  0.00    +0.000 A 
ATOM      2  C   UNL     1      50.605   3.929  18.315  0.00  0.00    +0.000 A 
ATOM      3  C   UNL     1      49.649   3.419  17.431  0.00  0.00    +0.000 A 
ATOM      4  C   UNL     1      48.326   3.875  17.475  0.00  0.00    +0.000 A 
ATOM      5  C   UNL     1      47.971   4.818  18.449  0.00  0.00    +0.000 A 
ATOM      6  C   UNL     1      48.932   5.333  19.330  0.00  0.00    +0.000 A 
ENDROOT
BRANCH   1   7
ATOM      7  C   UNL     1      51.323   5.507  20.170  0.00  0.00    +0.000 C 
BRANCH   7   8
ATOM      8  N   UNL     1      51.362   6.962  20.035  0.00  0.00    +0.000 NA
ATOM      9  H   UNL     1      50.411   7.327  20.017  0.00  0.00    +0.000 HD
BRANCH   8  10
ATOM     10  C   UNL     1      52.026   7.395  18.802  0.00  0.00    +0.000 C 
BRANCH  10  16
ATOM     11  C   UNL     1      49.937   8.607  17.924  0.00  0.00    +0.000 A 
ATOM     12  C   UNL     1      49.009   8.815  16.892  0.00  0.00    +0.000 A 
ATOM     13  C   UNL     1      49.133   8.145  15.672  0.00  0.00    +0.000 A 
ATOM     14  C   UNL     1      50.187   7.264  15.466  0.00  0.00    +0.000 A 
ATOM     15  C   UNL     1      51.112   7.045  16.485  0.00  0.00    +0.000 A 
ATOM     16  C   UNL     1      51.004   7.710  17.724  0.00  0.00    +0.000 A 
BRANCH  11  18
ATOM     17  C   UNL     1      49.725  10.673  19.095  0.00  0.00    +0.000 C 
ATOM     18  O   UNL     1      49.900   9.261  19.128  0.00  0.00    +0.000 OA
ENDBRANCH  11  18
ENDBRANCH  10  16
ENDBRANCH   8  10
ENDBRANCH   7   8
ENDBRANCH   1   7
BRANCH   4  19
ATOM     19  C   UNL     1      47.300   3.339  16.509  0.00  0.00    +0.000 C 
BRANCH  19  20
ATOM     20  N   UNL     1      46.820   4.377  15.633  0.00  0.00    +0.000 N 
ATOM     21  C   UNL     1      46.824   4.231  14.269  0.00  0.00    +0.000 C 
ATOM     22  O   UNL     1      47.142   3.177  13.724  0.00  0.00    +0.000 OA
ATOM     23  H   UNL     1      46.695   5.297  16.031  0.00  0.00    +0.000 HD
BRANCH  21  24
ATOM     24  C   UNL     1      46.361   5.389  13.492  0.00  0.00    +0.000 A 
ATOM     25  C   UNL     1      47.179   6.505  13.371  0.00  0.00    +0.000 A 
ATOM     26  S   UNL     1      46.528   7.718  12.369  0.00  0.00    +0.000 S 
ATOM     27  C   UNL     1      45.110   6.817  12.115  0.00  0.00    +0.000 A 
ATOM     28  N   UNL     1      44.130   7.313  11.341  0.00  0.00    +0.000 NA
ATOM     29  C   UNL     1      43.074   6.503  11.264  0.00  0.00    +0.000 A 
ATOM     30  N   UNL     1      42.917   5.317  11.862  0.00  0.00    +0.000 NA
ATOM     31  C   UNL     1      43.924   4.861  12.630  0.00  0.00    +0.000 A 
ATOM     32  C   UNL     1      45.110   5.599  12.781  0.00  0.00    +0.000 A 
BRANCH  31  33
ATOM     33  O   UNL     1      43.778   3.654  13.282  0.00  0.00    +0.000 OA
ATOM     34  C   UNL     1      43.578   2.546  12.412  0.00  0.00    +0.000 C 
ENDBRANCH  31  33
ENDBRANCH  21  24
ENDBRANCH  19  20
ENDBRANCH   4  19
TORSDOF 9
ENDMDL
MODEL 6
REMARK VINA RESULT:    -6.182      4.045      8.474
REMARK INTER + INTRA:         -11.110
REMARK INTER:                  -9.143
REMARK INTRA:                  -1.966
REMARK UNBOUND:                -1.674
REMARK  Name = 
REMARK  11 active torsions:
REMARK  status: ('A' for Active; 'I' for Inactive)
REMARK    1  A    between atoms: C_1  and  O_2
REMARK    2  A    between atoms: O_2  and  C_3
REMARK    3  A    between atoms: C_8  and  C_9
REMARK    4  A    between atoms: C_9  and  N_10
REMARK    5  A    between atoms: N_10  and  C_11
REMARK    6  A    between atoms: C_11  and  C_12
REMARK    7  A    between atoms: C_15  and  C_16
REMARK    8  A    between atoms: C_16  and  N_17
REMARK    9  A    between atoms: C_18  and  C_20
REMARK   10  A    between atoms: C_27  and  O_28
REMARK   11  A    between atoms: O_28  and  C_29
REMARK                            x       y       z     vdW  Elec       q    Type
REMARK                         _______ _______ _______ _____ _____    ______ ____
ROOT
ATOM      1  C   UNL     1      49.118   7.750  17.986  0.00  0.00    +0.000 A 
ATOM      2  C   UNL     1      49.445   6.948  16.880  0.00  0.00    +0.000 A 
ATOM      3  C   UNL     1      49.066   7.314  15.586  0.00  0.00    +0.000 A 
ATOM      4  C   UNL     1      48.340   8.491  15.364  0.00  0.00    +0.000 A 
ATOM      5  C   UNL     1      47.967   9.268  16.469  0.00  0.00    +0.000 A 
ATOM      6  C   UNL     1      48.354   8.904  17.765  0.00  0.00    +0.000 A 
ENDROOT
BRANCH   1   7
ATOM      7  C   UNL     1      49.591   7.380  19.378  0.00  0.00    +0.000 C 
BRANCH   7   8
ATOM      8  N   UNL     1      50.572   6.297  19.321  0.00  0.00    +0.000 NA
ATOM      9  H   UNL     1      50.803   6.100  18.349  0.00  0.00    +0.000 HD
BRANCH   8  10
ATOM     10  C   UNL     1      50.074   5.055  19.918  0.00  0.00    +0.000 C 
BRANCH  10  16
ATOM     11  C   UNL     1      50.682   3.387  18.060  0.00  0.00    +0.000 A 
ATOM     12  C   UNL     1      50.269   2.500  17.055  0.00  0.00    +0.000 A 
ATOM     13  C   UNL     1      48.912   2.262  16.824  0.00  0.00    +0.000 A 
ATOM     14  C   UNL     1      47.951   2.905  17.595  0.00  0.00    +0.000 A 
ATOM     15  C   UNL     1      48.349   3.793  18.592  0.00  0.00    +0.000 A 
ATOM     16  C   UNL     1      49.714   4.047  18.842  0.00  0.00    +0.000 A 
BRANCH  11  18
ATOM     17  C   UNL     1      52.935   2.608  18.075  0.00  0.00    +0.000 C 
ATOM     18  O   UNL     1      51.994   3.635  18.369  0.00  0.00    +0.000 OA
ENDBRANCH  11  18
ENDBRANCH  10  16
ENDBRANCH   8  10
ENDBRANCH   7   8
ENDBRANCH   1   7
BRANCH   4  19
ATOM     19  C   UNL     1      47.947   8.895  13.966  0.00  0.00    +0.000 C 
BRANCH  19  20
ATOM     20  N   UNL     1      46.767   8.189  13.534  0.00  0.00    +0.000 N 
ATOM     21  C   UNL     1      46.799   7.302  12.488  0.00  0.00    +0.000 C 
ATOM     22  O   UNL     1      47.845   6.986  11.929  0.00  0.00    +0.000 OA
ATOM     23  H   UNL     1      45.877   8.531  13.866  0.00  0.00    +0.000 HD
BRANCH  21  24
ATOM     24  C   UNL     1      45.514   6.696  12.114  0.00  0.00    +0.000 A 
ATOM     25  C   UNL     1      44.514   7.490  11.567  0.00  0.00    +0.000 A 
ATOM     26  S   UNL     1      43.126   6.615  11.113  0.00  0.00    +0.000 S 
ATOM     27  C   UNL     1      43.792   5.162  11.687  0.00  0.00    +0.000 A 
ATOM     28  N   UNL     1      43.089   4.021  11.598  0.00  0.00    +0.000 NA
ATOM     29  C   UNL     1      43.734   2.976  12.117  0.00  0.00    +0.000 A 
ATOM     30  N   UNL     1      44.943   2.972  12.689  0.00  0.00    +0.000 NA
ATOM     31  C   UNL     1      45.610   4.139  12.758  0.00  0.00    +0.000 A 
ATOM     32  C   UNL     1      45.062   5.318  12.227  0.00  0.00    +0.000 A 
BRANCH  31  33
ATOM     33  O   UNL     1      46.847   4.171  13.369  0.00  0.00    +0.000 OA
ATOM     34  C   UNL     1      46.803   4.517  14.749  0.00  0.00    +0.000 C 
ENDBRANCH  31  33
ENDBRANCH  21  24
ENDBRANCH  19  20
ENDBRANCH   4  19
TORSDOF 9
ENDMDL
MODEL 7
REMARK VINA RESULT:    -6.101      3.221      4.220
REMARK INTER + INTRA:         -10.985
REMARK INTER:                  -9.520
REMARK INTRA:                  -1.464
REMARK UNBOUND:                -1.674
REMARK  Name = 
REMARK  11 active torsions:
REMARK  status: ('A' for Active; 'I' for Inactive)
REMARK    1  A    between atoms: C_1  and  O_2
REMARK    2  A    between atoms: O_2  and  C_3
REMARK    3  A    between atoms: C_8  and  C_9
REMARK    4  A    between atoms: C_9  and  N_10
REMARK    5  A    between atoms: N_10  and  C_11
REMARK    6  A    between atoms: C_11  and  C_12
REMARK    7  A    between atoms: C_15  and  C_16
REMARK    8  A    between atoms: C_16  and  N_17
REMARK    9  A    between atoms: C_18  and  C_20
REMARK   10  A    between atoms: C_27  and  O_28
REMARK   11  A    between atoms: O_28  and  C_29
REMARK                            x       y       z     vdW  Elec       q    Type
REMARK                         _______ _______ _______ _____ _____    ______ ____
ROOT
ATOM      1  C   UNL     1      44.673   4.735  12.373  0.00  0.00    +0.000 A 
ATOM      2  C   UNL     1      44.070   5.925  11.933  0.00  0.00    +0.000 A 
ATOM      3  C   UNL     1      44.753   7.143  11.987  0.00  0.00    +0.000 A 
ATOM      4  C   UNL     1      46.058   7.204  12.491  0.00  0.00    +0.000 A 
ATOM      5  C   UNL     1      46.646   6.029  12.978  0.00  0.00    +0.000 A 
ATOM      6  C   UNL     1      45.963   4.807  12.917  0.00  0.00    +0.000 A 
ENDROOT
BRANCH   1   7
ATOM      7  C   UNL     1      43.950   3.408  12.249  0.00  0.00    +0.000 C 
BRANCH   7   8
ATOM      8  N   UNL     1      43.503   3.189  10.875  0.00  0.00    +0.000 NA
ATOM      9  H   UNL     1      42.527   2.896  10.878  0.00  0.00    +0.000 HD
BRANCH   8  10
ATOM     10  C   UNL     1      44.276   2.147  10.191  0.00  0.00    +0.000 C 
BRANCH  10  16
ATOM     11  C   UNL     1      45.968   1.973   8.266  0.00  0.00    +0.000 A 
ATOM     12  C   UNL     1      46.791   2.608   7.323  0.00  0.00    +0.000 A 
ATOM     13  C   UNL     1      46.813   4.001   7.216  0.00  0.00    +0.000 A 
ATOM     14  C   UNL     1      46.013   4.776   8.047  0.00  0.00    +0.000 A 
ATOM     15  C   UNL     1      45.197   4.157   8.991  0.00  0.00    +0.000 A 
ATOM     16  C   UNL     1      45.159   2.752   9.115  0.00  0.00    +0.000 A 
BRANCH  11  18
ATOM     17  C   UNL     1      46.776  -0.183   7.645  0.00  0.00    +0.000 C 
ATOM     18  O   UNL     1      45.865   0.613   8.396  0.00  0.00    +0.000 OA
ENDBRANCH  11  18
ENDBRANCH  10  16
ENDBRANCH   8  10
ENDBRANCH   7   8
ENDBRANCH   1   7
BRANCH   4  19
ATOM     19  C   UNL     1      46.802   8.515  12.532  0.00  0.00    +0.000 C 
BRANCH  19  20
ATOM     20  N   UNL     1      48.224   8.308  12.435  0.00  0.00    +0.000 N 
ATOM     21  C   UNL     1      49.123   9.256  12.855  0.00  0.00    +0.000 C 
ATOM     22  O   UNL     1      48.770  10.286  13.423  0.00  0.00    +0.000 OA
ATOM     23  H   UNL     1      48.542   7.552  11.846  0.00  0.00    +0.000 HD
BRANCH  21  24
ATOM     24  C   UNL     1      50.543   8.941  12.645  0.00  0.00    +0.000 A 
ATOM     25  C   UNL     1      51.104   9.112  11.387  0.00  0.00    +0.000 A 
ATOM     26  S   UNL     1      52.774   8.783  11.340  0.00  0.00    +0.000 S 
ATOM     27  C   UNL     1      52.786   8.345  12.982  0.00  0.00    +0.000 A 
ATOM     28  N   UNL     1      53.931   7.949  13.562  0.00  0.00    +0.000 NA
ATOM     29  C   UNL     1      53.770   7.611  14.842  0.00  0.00    +0.000 A 
ATOM     30  N   UNL     1      52.634   7.626  15.548  0.00  0.00    +0.000 NA
ATOM     31  C   UNL     1      51.510   8.029  14.924  0.00  0.00    +0.000 A 
ATOM     32  C   UNL     1      51.536   8.438  13.581  0.00  0.00    +0.000 A 
BRANCH  31  33
ATOM     33  O   UNL     1      50.319   8.027  15.619  0.00  0.00    +0.000 OA
ATOM     34  C   UNL     1      50.160   9.136  16.498  0.00  0.00    +0.000 C 
ENDBRANCH  31  33
ENDBRANCH  21  24
ENDBRANCH  19  20
ENDBRANCH   4  19
TORSDOF 9
ENDMDL
MODEL 8
REMARK VINA RESULT:    -6.025      4.228      9.629
REMARK INTER + INTRA:         -10.870
REMARK INTER:                  -8.260
REMARK INTRA:                  -2.610
REMARK UNBOUND:                -1.674
REMARK  Name = 
REMARK  11 active torsions:
REMARK  status: ('A' for Active; 'I' for Inactive)
REMARK    1  A    between atoms: C_1  and  O_2
REMARK    2  A    between atoms: O_2  and  C_3
REMARK    3  A    between atoms: C_8  and  C_9
REMARK    4  A    between atoms: C_9  and  N_10
REMARK    5  A    between atoms: N_10  and  C_11
REMARK    6  A    between atoms: C_11  and  C_12
REMARK    7  A    between atoms: C_15  and  C_16
REMARK    8  A    between atoms: C_16  and  N_17
REMARK    9  A    between atoms: C_18  and  C_20
REMARK   10  A    between atoms: C_27  and  O_28
REMARK   11  A    between atoms: O_28  and  C_29
REMARK                            x       y       z     vdW  Elec       q    Type
REMARK                         _______ _______ _______ _____ _____    ______ ____
ROOT
ATOM      1  C   UNL     1      48.903   5.984  19.629  0.00  0.00    +0.000 A 
ATOM      2  C   UNL     1      47.539   5.858  19.316  0.00  0.00    +0.000 A 
ATOM      3  C   UNL     1      47.121   5.150  18.185  0.00  0.00    +0.000 A 
ATOM      4  C   UNL     1      48.059   4.555  17.332  0.00  0.00    +0.000 A 
ATOM      5  C   UNL     1      49.422   4.721  17.611  0.00  0.00    +0.000 A 
ATOM      6  C   UNL     1      49.840   5.425  18.749  0.00  0.00    +0.000 A 
ENDROOT
BRANCH   1   7
ATOM      7  C   UNL     1      49.345   6.696  20.893  0.00  0.00    +0.000 C 
BRANCH   7   8
ATOM      8  N   UNL     1      48.754   8.031  20.967  0.00  0.00    +0.000 NA
ATOM      9  H   UNL     1      47.877   8.044  20.450  0.00  0.00    +0.000 HD
BRANCH   8  10
ATOM     10  C   UNL     1      49.622   9.062  20.392  0.00  0.00    +0.000 C 
BRANCH  10  16
ATOM     11  C   UNL     1      48.094   9.488  18.370  0.00  0.00    +0.000 A 
ATOM     12  C   UNL     1      47.930   9.567  16.979  0.00  0.00    +0.000 A 
ATOM     13  C   UNL     1      49.015   9.377  16.119  0.00  0.00    +0.000 A 
ATOM     14  C   UNL     1      50.276   9.109  16.637  0.00  0.00    +0.000 A 
ATOM     15  C   UNL     1      50.449   9.021  18.017  0.00  0.00    +0.000 A 
ATOM     16  C   UNL     1      49.368   9.210  18.902  0.00  0.00    +0.000 A 
BRANCH  11  18
ATOM     17  C   UNL     1      46.751  11.058  19.559  0.00  0.00    +0.000 C 
ATOM     18  O   UNL     1      47.085   9.705  19.272  0.00  0.00    +0.000 OA
ENDBRANCH  11  18
ENDBRANCH  10  16
ENDBRANCH   8  10
ENDBRANCH   7   8
ENDBRANCH   1   7
BRANCH   4  19
ATOM     19  C   UNL     1      47.607   3.777  16.123  0.00  0.00    +0.000 C 
BRANCH  19  20
ATOM     20  N   UNL     1      46.810   4.596  15.245  0.00  0.00    +0.000 N 
ATOM     21  C   UNL     1      46.502   4.200  13.969  0.00  0.00    +0.000 C 
ATOM     22  O   UNL     1      46.801   3.090  13.537  0.00  0.00    +0.000 OA
ATOM     23  H   UNL     1      46.678   5.562  15.510  0.00  0.00    +0.000 HD
BRANCH  21  24
ATOM     24  C   UNL     1      45.732   5.157  13.162  0.00  0.00    +0.000 A 
ATOM     25  C   UNL     1      44.587   4.732  12.502  0.00  0.00    +0.000 A 
ATOM     26  S   UNL     1      43.771   5.983  11.685  0.00  0.00    +0.000 S 
ATOM     27  C   UNL     1      44.953   7.117  12.137  0.00  0.00    +0.000 A 
ATOM     28  N   UNL     1      44.841   8.395  11.740  0.00  0.00    +0.000 NA
ATOM     29  C   UNL     1      45.859   9.153  12.149  0.00  0.00    +0.000 A 
ATOM     30  N   UNL     1      46.919   8.767  12.869  0.00  0.00    +0.000 NA
ATOM     31  C   UNL     1      46.990   7.475  13.242  0.00  0.00    +0.000 A 
ATOM     32  C   UNL     1      45.972   6.568  12.903  0.00  0.00    +0.000 A 
BRANCH  31  33
ATOM     33  O   UNL     1      48.085   7.042  13.960  0.00  0.00    +0.000 OA
ATOM     34  C   UNL     1      49.304   7.064  13.225  0.00  0.00    +0.000 C 
ENDBRANCH  31  33
ENDBRANCH  21  24
ENDBRANCH  19  20
ENDBRANCH   4  19
TORSDOF 9
ENDMDL
MODEL 9
REMARK VINA RESULT:    -5.838      3.835      9.193
REMARK INTER + INTRA:         -10.584
REMARK INTER:                  -8.284
REMARK INTRA:                  -2.299
REMARK UNBOUND:                -1.674
REMARK  Name = 
REMARK  11 active torsions:
REMARK  status: ('A' for Active; 'I' for Inactive)
REMARK    1  A    between atoms: C_1  and  O_2
REMARK    2  A    between atoms: O_2  and  C_3
REMARK    3  A    between atoms: C_8  and  C_9
REMARK    4  A    between atoms: C_9  and  N_10
REMARK    5  A    between atoms: N_10  and  C_11
REMARK    6  A    between atoms: C_11  and  C_12
REMARK    7  A    between atoms: C_15  and  C_16
REMARK    8  A    between atoms: C_16  and  N_17
REMARK    9  A    between atoms: C_18  and  C_20
REMARK   10  A    between atoms: C_27  and  O_28
REMARK   11  A    between atoms: O_28  and  C_29
REMARK                            x       y       z     vdW  Elec       q    Type
REMARK                         _______ _______ _______ _____ _____    ______ ____
ROOT
ATOM      1  C   UNL     1      49.275   6.170  19.455  0.00  0.00    +0.000 A 
ATOM      2  C   UNL     1      49.226   5.437  18.258  0.00  0.00    +0.000 A 
ATOM      3  C   UNL     1      49.153   6.082  17.020  0.00  0.00    +0.000 A 
ATOM      4  C   UNL     1      49.118   7.480  16.947  0.00  0.00    +0.000 A 
ATOM      5  C   UNL     1      49.114   8.215  18.141  0.00  0.00    +0.000 A 
ATOM      6  C   UNL     1      49.195   7.568  19.381  0.00  0.00    +0.000 A 
ENDROOT
BRANCH   1   7
ATOM      7  C   UNL     1      49.421   5.465  20.790  0.00  0.00    +0.000 C 
BRANCH   7   8
ATOM      8  N   UNL     1      50.503   4.484  20.740  0.00  0.00    +0.000 NA
ATOM      9  H   UNL     1      50.349   3.771  21.452  0.00  0.00    +0.000 HD
BRANCH   8  10
ATOM     10  C   UNL     1      51.818   5.082  20.990  0.00  0.00    +0.000 C 
BRANCH  10  16
ATOM     11  C   UNL     1      52.768   4.672  18.638  0.00  0.00    +0.000 A 
ATOM     12  C   UNL     1      53.392   5.173  17.486  0.00  0.00    +0.000 A 
ATOM     13  C   UNL     1      53.698   6.532  17.372  0.00  0.00    +0.000 A 
ATOM     14  C   UNL     1      53.382   7.406  18.406  0.00  0.00    +0.000 A 
ATOM     15  C   UNL     1      52.768   6.917  19.558  0.00  0.00    +0.000 A 
ATOM     16  C   UNL     1      52.451   5.550  19.692  0.00  0.00    +0.000 A 
BRANCH  11  18
ATOM     17  C   UNL     1      51.720   2.739  17.715  0.00  0.00    +0.000 C 
ATOM     18  O   UNL     1      52.402   3.361  18.799  0.00  0.00    +0.000 OA
ENDBRANCH  11  18
ENDBRANCH  10  16
ENDBRANCH   8  10
ENDBRANCH   7   8
ENDBRANCH   1   7
BRANCH   4  19
ATOM     19  C   UNL     1      49.058   8.175  15.611  0.00  0.00    +0.000 C 
BRANCH  19  20
ATOM     20  N   UNL     1      47.922   7.730  14.845  0.00  0.00    +0.000 N 
ATOM     21  C   UNL     1      48.069   7.030  13.674  0.00  0.00    +0.000 C 
ATOM     22  O   UNL     1      49.167   6.660  13.267  0.00  0.00    +0.000 OA
ATOM     23  H   UNL     1      47.026   8.140  15.067  0.00  0.00    +0.000 HD
BRANCH  21  24
ATOM     24  C   UNL     1      46.830   6.688  12.963  0.00  0.00    +0.000 A 
ATOM     25  C   UNL     1      46.093   7.691  12.348  0.00  0.00    +0.000 A 
ATOM     26  S   UNL     1      44.735   7.112  11.499  0.00  0.00    +0.000 S 
ATOM     27  C   UNL     1      45.056   5.513  11.977  0.00  0.00    +0.000 A 
ATOM     28  N   UNL     1      44.243   4.520  11.582  0.00  0.00    +0.000 NA
ATOM     29  C   UNL     1      44.609   3.331  12.062  0.00  0.00    +0.000 A 
ATOM     30  N   UNL     1      45.650   3.065  12.860  0.00  0.00    +0.000 NA
ATOM     31  C   UNL     1      46.436   4.093  13.232  0.00  0.00    +0.000 A 
ATOM     32  C   UNL     1      46.183   5.398  12.780  0.00  0.00    +0.000 A 
BRANCH  31  33
ATOM     33  O   UNL     1      47.499   3.853  14.078  0.00  0.00    +0.000 OA
ATOM     34  C   UNL     1      47.149   3.837  15.458  0.00  0.00    +0.000 C 
ENDBRANCH  31  33
ENDBRANCH  21  24
ENDBRANCH  19  20
ENDBRANCH   4  19
TORSDOF 9
ENDMDL
