MODEL 1
REMARK VINA RESULT:    -7.525      0.000      0.000
REMARK INTER + INTRA:         -11.749
REMARK INTER:                 -10.604
REMARK INTRA:                  -1.145
REMARK UNBOUND:                -1.145
REMARK  Name = 
REMARK  9 active torsions:
REMARK  status: ('A' for Active; 'I' for Inactive)
REMARK    1  A    between atoms: C_1  and  C_2
REMARK    2  A    between atoms: C_2  and  C_3
REMARK    3  A    between atoms: C_2  and  N_4
REMARK    4  A    between atoms: N_4  and  C_5
REMARK    5  A    between atoms: C_5  and  C_6
REMARK    6  A    between atoms: C_9  and  C_10
REMARK    7  A    between atoms: C_10  and  O_11
REMARK    8  A    between atoms: O_11  and  C_12
REMARK    9  A    between atoms: C_15  and  C_16
REMARK                            x       y       z     vdW  Elec       q    Type
REMARK                         _______ _______ _______ _____ _____    ______ ____
ROOT
ATOM      1  C   UNL     1      43.541   3.473  11.529  0.00  0.00    +0.000 C 
ENDROOT
BRANCH   1   5
ATOM      2  C   UNL     1      46.746   5.522  13.569  0.00  0.00    +0.000 A 
ATOM      3  C   UNL     1      46.707   4.120  13.531  0.00  0.00    +0.000 A 
ATOM      4  C   UNL     1      45.659   3.458  12.895  0.00  0.00    +0.000 A 
ATOM      5  C   UNL     1      44.626   4.184  12.291  0.00  0.00    +0.000 A 
ATOM      6  C   UNL     1      44.632   5.581  12.377  0.00  0.00    +0.000 A 
ATOM      7  C   UNL     1      45.688   6.244  13.002  0.00  0.00    +0.000 A 
BRANCH   2   8
ATOM      8  C   UNL     1      47.909   6.245  14.206  0.00  0.00    +0.000 C 
BRANCH   8   9
ATOM      9  N   UNL     1      49.044   6.335  13.285  0.00  0.00    +0.000 NA
ATOM     10  H   UNL     1      49.868   5.948  13.740  0.00  0.00    +0.000 HD
BRANCH   9  12
ATOM     11  C   UNL     1      48.788   7.875  11.427  0.00  0.00    +0.000 C 
ATOM     12  C   UNL     1      49.338   7.704  12.847  0.00  0.00    +0.000 C 
ATOM     13  C   UNL     1      48.711   8.752  13.767  0.00  0.00    +0.000 C 
ENDBRANCH   9  12
ENDBRANCH   8   9
ENDBRANCH   2   8
ENDBRANCH   1   5
BRANCH   1  14
ATOM     14  O   UNL     1      43.495   3.952  10.187  0.00  0.00    +0.000 OA
BRANCH  14  15
ATOM     15  C   UNL     1      44.452   3.445   9.352  0.00  0.00    +0.000 A 
ATOM     16  C   UNL     1      44.857   2.113   9.285  0.00  0.00    +0.000 A 
ATOM     17  C   UNL     1      45.849   1.736   8.383  0.00  0.00    +0.000 A 
ATOM     18  C   UNL     1      46.410   2.711   7.572  0.00  0.00    +0.000 A 
ATOM     19  N   UNL     1      46.046   4.023   7.603  0.00  0.00    +0.000 NA
ATOM     20  C   UNL     1      45.077   4.351   8.495  0.00  0.00    +0.000 A 
BRANCH  18  21
ATOM     21  C   UNL     1      47.475   2.323   6.599  0.00  0.00    +0.000 C 
ATOM     22  N   UNL     1      47.458   3.001   5.411  0.00  0.00    +0.000 N 
ATOM     23  O   UNL     1      48.314   1.461   6.836  0.00  0.00    +0.000 OA
ATOM     24  H   UNL     1      46.751   3.711   5.248  0.00  0.00    +0.000 HD
ATOM     25  H   UNL     1      48.150   2.792   4.705  0.00  0.00    +0.000 HD
ENDBRANCH  18  21
ENDBRANCH  14  15
ENDBRANCH   1  14
TORSDOF 7
ENDMDL
MODEL 2
REMARK VINA RESULT:    -7.359      1.018      1.640
REMARK INTER + INTRA:         -11.516
REMARK INTER:                 -10.583
REMARK INTRA:                  -0.934
REMARK UNBOUND:                -1.145
REMARK  Name = 
REMARK  9 active torsions:
REMARK  status: ('A' for Active; 'I' for Inactive)
REMARK    1  A    between atoms: C_1  and  C_2
REMARK    2  A    between atoms: C_2  and  C_3
REMARK    3  A    between atoms: C_2  and  N_4
REMARK    4  A    between atoms: N_4  and  C_5
REMARK    5  A    between atoms: C_5  and  C_6
REMARK    6  A    between atoms: C_9  and  C_10
REMARK    7  A    between atoms: C_10  and  O_11
REMARK    8  A    between atoms: O_11  and  C_12
REMARK    9  A    between atoms: C_15  and  C_16
REMARK                            x       y       z     vdW  Elec       q    Type
REMARK                         _______ _______ _______ _____ _____    ______ ____
ROOT
ATOM      1  C   UNL     1      43.611   4.153  11.412  0.00  0.00    +0.000 C 
ENDROOT
BRANCH   1   5
ATOM      2  C   UNL     1      47.033   5.946  13.335  0.00  0.00    +0.000 A 
ATOM      3  C   UNL     1      46.263   6.682  12.422  0.00  0.00    +0.000 A 
ATOM      4  C   UNL     1      45.173   6.095  11.782  0.00  0.00    +0.000 A 
ATOM      5  C   UNL     1      44.838   4.760  12.035  0.00  0.00    +0.000 A 
ATOM      6  C   UNL     1      45.638   4.007  12.901  0.00  0.00    +0.000 A 
ATOM      7  C   UNL     1      46.721   4.598  13.553  0.00  0.00    +0.000 A 
BRANCH   2   8
ATOM      8  C   UNL     1      48.180   6.593  14.077  0.00  0.00    +0.000 C 
BRANCH   8   9
ATOM      9  N   UNL     1      49.397   6.604  13.262  0.00  0.00    +0.000 NA
ATOM     10  H   UNL     1      50.104   6.032  13.721  0.00  0.00    +0.000 HD
BRANCH   9  12
ATOM     11  C   UNL     1      50.070   8.157  11.524  0.00  0.00    +0.000 C 
ATOM     12  C   UNL     1      49.940   7.947  13.036  0.00  0.00    +0.000 C 
ATOM     13  C   UNL     1      49.048   9.039  13.628  0.00  0.00    +0.000 C 
ENDBRANCH   9  12
ENDBRANCH   8   9
ENDBRANCH   2   8
ENDBRANCH   1   5
BRANCH   1  14
ATOM     14  O   UNL     1      43.577   4.446  10.016  0.00  0.00    +0.000 OA
BRANCH  14  15
ATOM     15  C   UNL     1      44.526   3.811   9.262  0.00  0.00    +0.000 A 
ATOM     16  C   UNL     1      45.405   4.421   8.370  0.00  0.00    +0.000 A 
ATOM     17  C   UNL     1      46.324   3.647   7.665  0.00  0.00    +0.000 A 
ATOM     18  C   UNL     1      46.331   2.276   7.875  0.00  0.00    +0.000 A 
ATOM     19  N   UNL     1      45.490   1.637   8.736  0.00  0.00    +0.000 NA
ATOM     20  C   UNL     1      44.611   2.426   9.404  0.00  0.00    +0.000 A 
BRANCH  18  21
ATOM     21  C   UNL     1      47.310   1.431   7.127  0.00  0.00    +0.000 C 
ATOM     22  N   UNL     1      48.412   2.090   6.656  0.00  0.00    +0.000 N 
ATOM     23  O   UNL     1      47.151   0.229   6.943  0.00  0.00    +0.000 OA
ATOM     24  H   UNL     1      48.513   3.085   6.829  0.00  0.00    +0.000 HD
ATOM     25  H   UNL     1      49.118   1.582   6.142  0.00  0.00    +0.000 HD
ENDBRANCH  18  21
ENDBRANCH  14  15
ENDBRANCH   1  14
TORSDOF 7
ENDMDL
MODEL 3
REMARK VINA RESULT:    -7.292      1.713      2.689
REMARK INTER + INTRA:         -11.422
REMARK INTER:                 -10.720
REMARK INTRA:                  -0.702
REMARK UNBOUND:                -1.145
REMARK  Name = 
REMARK  9 active torsions:
REMARK  status: ('A' for Active; 'I' for Inactive)
REMARK    1  A    between atoms: C_1  and  C_2
REMARK    2  A    between atoms: C_2  and  C_3
REMARK    3  A    between atoms: C_2  and  N_4
REMARK    4  A    between atoms: N_4  and  C_5
REMARK    5  A    between atoms: C_5  and  C_6
REMARK    6  A    between atoms: C_9  and  C_10
REMARK    7  A    between atoms: C_10  and  O_11
REMARK    8  A    between atoms: O_11  and  C_12
REMARK    9  A    between atoms: C_15  and  C_16
REMARK                            x       y       z     vdW  Elec       q    Type
REMARK                         _______ _______ _______ _____ _____    ______ ____
ROOT
ATOM      1  C   UNL     1      43.741   5.172  10.598  0.00  0.00    +0.000 C 
ENDROOT
BRANCH   1   5
ATOM      2  C   UNL     1      46.816   5.460  13.612  0.00  0.00    +0.000 A 
ATOM      3  C   UNL     1      46.876   6.252  12.455  0.00  0.00    +0.000 A 
ATOM      4  C   UNL     1      45.897   6.141  11.470  0.00  0.00    +0.000 A 
ATOM      5  C   UNL     1      44.844   5.230  11.618  0.00  0.00    +0.000 A 
ATOM      6  C   UNL     1      44.812   4.399  12.743  0.00  0.00    +0.000 A 
ATOM      7  C   UNL     1      45.785   4.520  13.736  0.00  0.00    +0.000 A 
BRANCH   2   8
ATOM      8  C   UNL     1      47.841   5.617  14.710  0.00  0.00    +0.000 C 
BRANCH   8   9
ATOM      9  N   UNL     1      47.338   5.093  15.982  0.00  0.00    +0.000 NA
ATOM     10  H   UNL     1      47.253   5.863  16.643  0.00  0.00    +0.000 HD
BRANCH   9  12
ATOM     11  C   UNL     1      49.318   4.742  17.340  0.00  0.00    +0.000 C 
ATOM     12  C   UNL     1      48.190   4.052  16.566  0.00  0.00    +0.000 C 
ATOM     13  C   UNL     1      47.414   3.130  17.506  0.00  0.00    +0.000 C 
ENDBRANCH   9  12
ENDBRANCH   8   9
ENDBRANCH   2   8
ENDBRANCH   1   5
BRANCH   1  14
ATOM     14  O   UNL     1      43.549   3.827  10.163  0.00  0.00    +0.000 OA
BRANCH  14  15
ATOM     15  C   UNL     1      44.500   3.350   9.303  0.00  0.00    +0.000 A 
ATOM     16  C   UNL     1      45.032   2.062   9.306  0.00  0.00    +0.000 A 
ATOM     17  C   UNL     1      46.000   1.711   8.368  0.00  0.00    +0.000 A 
ATOM     18  C   UNL     1      46.409   2.669   7.451  0.00  0.00    +0.000 A 
ATOM     19  N   UNL     1      45.918   3.938   7.413  0.00  0.00    +0.000 NA
ATOM     20  C   UNL     1      44.977   4.241   8.342  0.00  0.00    +0.000 A 
BRANCH  18  21
ATOM     21  C   UNL     1      47.447   2.309   6.438  0.00  0.00    +0.000 C 
ATOM     22  N   UNL     1      47.504   3.126   5.343  0.00  0.00    +0.000 N 
ATOM     23  O   UNL     1      48.203   1.352   6.568  0.00  0.00    +0.000 OA
ATOM     24  H   UNL     1      46.864   3.910   5.268  0.00  0.00    +0.000 HD
ATOM     25  H   UNL     1      48.182   2.944   4.617  0.00  0.00    +0.000 HD
ENDBRANCH  18  21
ENDBRANCH  14  15
ENDBRANCH   1  14
TORSDOF 7
ENDMDL
MODEL 4
REMARK VINA RESULT:    -7.221      1.458      2.096
REMARK INTER + INTRA:         -11.322
REMARK INTER:                 -10.386
REMARK INTRA:                  -0.936
REMARK UNBOUND:                -1.145
REMARK  Name = 
REMARK  9 active torsions:
REMARK  status: ('A' for Active; 'I' for Inactive)
REMARK    1  A    between atoms: C_1  and  C_2
REMARK    2  A    between atoms: C_2  and  C_3
REMARK    3  A    between atoms: C_2  and  N_4
REMARK    4  A    between atoms: N_4  and  C_5
REMARK    5  A    between atoms: C_5  and  C_6
REMARK    6  A    between atoms: C_9  and  C_10
REMARK    7  A    between atoms: C_10  and  O_11
REMARK    8  A    between atoms: O_11  and  C_12
REMARK    9  A    between atoms: C_15  and  C_16
REMARK                            x       y       z     vdW  Elec       q    Type
REMARK                         _______ _______ _______ _____ _____    ______ ____
ROOT
ATOM      1  C   UNL     1      43.571   4.292  11.349  0.00  0.00    +0.000 C 
ENDROOT
BRANCH   1   5
ATOM      2  C   UNL     1      46.766   6.518  13.211  0.00  0.00    +0.000 A 
ATOM      3  C   UNL     1      46.741   5.117  13.277  0.00  0.00    +0.000 A 
ATOM      4  C   UNL     1      45.696   4.399  12.698  0.00  0.00    +0.000 A 
ATOM      5  C   UNL     1      44.652   5.068  12.050  0.00  0.00    +0.000 A 
ATOM      6  C   UNL     1      44.644   6.468  12.031  0.00  0.00    +0.000 A 
ATOM      7  C   UNL     1      45.697   7.185  12.598  0.00  0.00    +0.000 A 
BRANCH   2   8
ATOM      8  C   UNL     1      47.925   7.298  13.785  0.00  0.00    +0.000 C 
BRANCH   8   9
ATOM      9  N   UNL     1      48.916   6.405  14.389  0.00  0.00    +0.000 NA
ATOM     10  H   UNL     1      48.631   5.441  14.226  0.00  0.00    +0.000 HD
BRANCH   9  12
ATOM     11  C   UNL     1      48.410   5.458  16.565  0.00  0.00    +0.000 C 
ATOM     12  C   UNL     1      49.094   6.615  15.829  0.00  0.00    +0.000 C 
ATOM     13  C   UNL     1      50.569   6.673  16.228  0.00  0.00    +0.000 C 
ENDBRANCH   9  12
ENDBRANCH   8   9
ENDBRANCH   2   8
ENDBRANCH   1   5
BRANCH   1  14
ATOM     14  O   UNL     1      43.595   4.575   9.951  0.00  0.00    +0.000 OA
BRANCH  14  15
ATOM     15  C   UNL     1      44.540   3.894   9.234  0.00  0.00    +0.000 A 
ATOM     16  C   UNL     1      45.481   4.462   8.377  0.00  0.00    +0.000 A 
ATOM     17  C   UNL     1      46.388   3.644   7.707  0.00  0.00    +0.000 A 
ATOM     18  C   UNL     1      46.322   2.274   7.915  0.00  0.00    +0.000 A 
ATOM     19  N   UNL     1      45.419   1.677   8.742  0.00  0.00    +0.000 NA
ATOM     20  C   UNL     1      44.554   2.507   9.377  0.00  0.00    +0.000 A 
BRANCH  18  21
ATOM     21  C   UNL     1      47.288   1.383   7.204  0.00  0.00    +0.000 C 
ATOM     22  N   UNL     1      48.316   2.023   6.568  0.00  0.00    +0.000 N 
ATOM     23  O   UNL     1      47.181   0.162   7.186  0.00  0.00    +0.000 OA
ATOM     24  H   UNL     1      48.376   3.036   6.606  0.00  0.00    +0.000 HD
ATOM     25  H   UNL     1      49.008   1.485   6.068  0.00  0.00    +0.000 HD
ENDBRANCH  18  21
ENDBRANCH  14  15
ENDBRANCH   1  14
TORSDOF 7
ENDMDL
MODEL 5
REMARK VINA RESULT:    -7.029      2.227      3.286
REMARK INTER + INTRA:         -11.050
REMARK INTER:                 -10.411
REMARK INTRA:                  -0.639
REMARK UNBOUND:                -1.145
REMARK  Name = 
REMARK  9 active torsions:
REMARK  status: ('A' for Active; 'I' for Inactive)
REMARK    1  A    between atoms: C_1  and  C_2
REMARK    2  A    between atoms: C_2  and  C_3
REMARK    3  A    between atoms: C_2  and  N_4
REMARK    4  A    between atoms: N_4  and  C_5
REMARK    5  A    between atoms: C_5  and  C_6
REMARK    6  A    between atoms: C_9  and  C_10
REMARK    7  A    between atoms: C_10  and  O_11
REMARK    8  A    between atoms: O_11  and  C_12
REMARK    9  A    between atoms: C_15  and  C_16
REMARK                            x       y       z     vdW  Elec       q    Type
REMARK                         _______ _______ _______ _____ _____    ______ ____
ROOT
ATOM      1  C   UNL     1      44.293   5.889  10.462  0.00  0.00    +0.000 C 
ENDROOT
BRANCH   1   5
ATOM      2  C   UNL     1      46.807   5.189  13.899  0.00  0.00    +0.000 A 
ATOM      3  C   UNL     1      45.668   4.401  13.678  0.00  0.00    +0.000 A 
ATOM      4  C   UNL     1      44.842   4.643  12.582  0.00  0.00    +0.000 A 
ATOM      5  C   UNL     1      45.134   5.683  11.692  0.00  0.00    +0.000 A 
ATOM      6  C   UNL     1      46.237   6.507  11.941  0.00  0.00    +0.000 A 
ATOM      7  C   UNL     1      47.072   6.256  13.030  0.00  0.00    +0.000 A 
BRANCH   2   8
ATOM      8  C   UNL     1      47.738   4.894  15.052  0.00  0.00    +0.000 C 
BRANCH   8   9
ATOM      9  N   UNL     1      47.659   3.487  15.449  0.00  0.00    +0.000 NA
ATOM     10  H   UNL     1      46.682   3.203  15.456  0.00  0.00    +0.000 HD
BRANCH   9  12
ATOM     11  C   UNL     1      47.115   2.798  17.711  0.00  0.00    +0.000 C 
ATOM     12  C   UNL     1      48.246   3.215  16.765  0.00  0.00    +0.000 C 
ATOM     13  C   UNL     1      49.301   2.109  16.710  0.00  0.00    +0.000 C 
ENDBRANCH   9  12
ENDBRANCH   8   9
ENDBRANCH   2   8
ENDBRANCH   1   5
BRANCH   1  14
ATOM     14  O   UNL     1      43.759   4.642  10.021  0.00  0.00    +0.000 OA
BRANCH  14  15
ATOM     15  C   UNL     1      44.624   3.855   9.310  0.00  0.00    +0.000 A 
ATOM     16  C   UNL     1      45.557   4.301   8.376  0.00  0.00    +0.000 A 
ATOM     17  C   UNL     1      46.376   3.383   7.724  0.00  0.00    +0.000 A 
ATOM     18  C   UNL     1      46.233   2.037   8.028  0.00  0.00    +0.000 A 
ATOM     19  N   UNL     1      45.335   1.557   8.932  0.00  0.00    +0.000 NA
ATOM     20  C   UNL     1      44.556   2.482   9.546  0.00  0.00    +0.000 A 
BRANCH  18  21
ATOM     21  C   UNL     1      47.105   1.039   7.337  0.00  0.00    +0.000 C 
ATOM     22  N   UNL     1      46.854  -0.270   7.646  0.00  0.00    +0.000 N 
ATOM     23  O   UNL     1      47.984   1.357   6.544  0.00  0.00    +0.000 OA
ATOM     24  H   UNL     1      46.117  -0.497   8.304  0.00  0.00    +0.000 HD
ATOM     25  H   UNL     1      47.404  -1.000   7.215  0.00  0.00    +0.000 HD
ENDBRANCH  18  21
ENDBRANCH  14  15
ENDBRANCH   1  14
TORSDOF 7
ENDMDL
MODEL 6
REMARK VINA RESULT:    -6.630      4.405      7.845
REMARK INTER + INTRA:         -10.489
REMARK INTER:                  -9.875
REMARK INTRA:                  -0.614
REMARK UNBOUND:                -1.145
REMARK  Name = 
REMARK  9 active torsions:
REMARK  status: ('A' for Active; 'I' for Inactive)
REMARK    1  A    between atoms: C_1  and  C_2
REMARK    2  A    between atoms: C_2  and  C_3
REMARK    3  A    between atoms: C_2  and  N_4
REMARK    4  A    between atoms: N_4  and  C_5
REMARK    5  A    between atoms: C_5  and  C_6
REMARK    6  A    between atoms: C_9  and  C_10
REMARK    7  A    between atoms: C_10  and  O_11
REMARK    8  A    between atoms: O_11  and  C_12
REMARK    9  A    between atoms: C_15  and  C_16
REMARK                            x       y       z     vdW  Elec       q    Type
REMARK                         _______ _______ _______ _____ _____    ______ ____
ROOT
ATOM      1  C   UNL     1      47.174   5.184  14.862  0.00  0.00    +0.000 C 
ENDROOT
BRANCH   1   5
ATOM      2  C   UNL     1      44.884   4.489  11.270  0.00  0.00    +0.000 A 
ATOM      3  C   UNL     1      45.210   5.795  11.666  0.00  0.00    +0.000 A 
ATOM      4  C   UNL     1      45.927   6.022  12.839  0.00  0.00    +0.000 A 
ATOM      5  C   UNL     1      46.325   4.948  13.643  0.00  0.00    +0.000 A 
ATOM      6  C   UNL     1      45.952   3.648  13.282  0.00  0.00    +0.000 A 
ATOM      7  C   UNL     1      45.246   3.420  12.100  0.00  0.00    +0.000 A 
BRANCH   2   8
ATOM      8  C   UNL     1      44.158   4.234   9.970  0.00  0.00    +0.000 C 
BRANCH   8   9
ATOM      9  N   UNL     1      44.975   4.630   8.821  0.00  0.00    +0.000 NA
ATOM     10  H   UNL     1      44.478   5.346   8.296  0.00  0.00    +0.000 HD
BRANCH   9  12
ATOM     11  C   UNL     1      46.630   3.845   7.230  0.00  0.00    +0.000 C 
ATOM     12  C   UNL     1      45.303   3.518   7.923  0.00  0.00    +0.000 C 
ATOM     13  C   UNL     1      45.430   2.190   8.670  0.00  0.00    +0.000 C 
ENDBRANCH   9  12
ENDBRANCH   8   9
ENDBRANCH   2   8
ENDBRANCH   1   5
BRANCH   1  14
ATOM     14  O   UNL     1      46.988   4.124  15.799  0.00  0.00    +0.000 OA
BRANCH  14  15
ATOM     15  C   UNL     1      48.138   3.594  16.317  0.00  0.00    +0.000 A 
ATOM     16  C   UNL     1      48.956   4.194  17.272  0.00  0.00    +0.000 A 
ATOM     17  C   UNL     1      50.103   3.536  17.711  0.00  0.00    +0.000 A 
ATOM     18  C   UNL     1      50.398   2.292  17.173  0.00  0.00    +0.000 A 
ATOM     19  N   UNL     1      49.628   1.670  16.238  0.00  0.00    +0.000 NA
ATOM     20  C   UNL     1      48.520   2.342  15.837  0.00  0.00    +0.000 A 
BRANCH  18  21
ATOM     21  C   UNL     1      51.625   1.573  17.633  0.00  0.00    +0.000 C 
ATOM     22  N   UNL     1      51.419   0.306  18.105  0.00  0.00    +0.000 N 
ATOM     23  O   UNL     1      52.744   2.071  17.594  0.00  0.00    +0.000 OA
ATOM     24  H   UNL     1      50.479  -0.077  18.121  0.00  0.00    +0.000 HD
ATOM     25  H   UNL     1      52.203  -0.241  18.432  0.00  0.00    +0.000 HD
ENDBRANCH  18  21
ENDBRANCH  14  15
ENDBRANCH   1  14
TORSDOF 7
ENDMDL
MODEL 7
REMARK VINA RESULT:    -6.251      4.028      8.354
REMARK INTER + INTRA:          -9.954
REMARK INTER:                  -9.582
REMARK INTRA:                  -0.372
REMARK UNBOUND:                -1.145
REMARK  Name = 
REMARK  9 active torsions:
REMARK  status: ('A' for Active; 'I' for Inactive)
REMARK    1  A    between atoms: C_1  and  C_2
REMARK    2  A    between atoms: C_2  and  C_3
REMARK    3  A    between atoms: C_2  and  N_4
REMARK    4  A    between atoms: N_4  and  C_5
REMARK    5  A    between atoms: C_5  and  C_6
REMARK    6  A    between atoms: C_9  and  C_10
REMARK    7  A    between atoms: C_10  and  O_11
REMARK    8  A    between atoms: O_11  and  C_12
REMARK    9  A    between atoms: C_15  and  C_16
REMARK                            x       y       z     vdW  Elec       q    Type
REMARK                         _______ _______ _______ _____ _____    ______ ____
ROOT
ATOM      1  C   UNL     1      46.354   5.158  13.979  0.00  0.00    +0.000 C 
ENDROOT
BRANCH   1   5
ATOM      2  C   UNL     1      45.058   4.242   9.965  0.00  0.00    +0.000 A 
ATOM      3  C   UNL     1      45.625   5.490  10.264  0.00  0.00    +0.000 A 
ATOM      4  C   UNL     1      46.020   5.796  11.564  0.00  0.00    +0.000 A 
ATOM      5  C   UNL     1      45.848   4.863  12.594  0.00  0.00    +0.000 A 
ATOM      6  C   UNL     1      45.230   3.640  12.311  0.00  0.00    +0.000 A 
ATOM      7  C   UNL     1      44.847   3.329  11.006  0.00  0.00    +0.000 A 
BRANCH   2   8
ATOM      8  C   UNL     1      44.682   3.884   8.547  0.00  0.00    +0.000 C 
BRANCH   8   9
ATOM      9  N   UNL     1      45.745   4.250   7.609  0.00  0.00    +0.000 NA
ATOM     10  H   UNL     1      45.321   4.570   6.741  0.00  0.00    +0.000 HD
BRANCH   9  12
ATOM     11  C   UNL     1      46.139   1.887   7.995  0.00  0.00    +0.000 C 
ATOM     12  C   UNL     1      46.672   3.152   7.315  0.00  0.00    +0.000 C 
ATOM     13  C   UNL     1      46.815   2.903   5.813  0.00  0.00    +0.000 C 
ENDBRANCH   9  12
ENDBRANCH   8   9
ENDBRANCH   2   8
ENDBRANCH   1   5
BRANCH   1  14
ATOM     14  O   UNL     1      46.882   3.971  14.568  0.00  0.00    +0.000 OA
BRANCH  14  15
ATOM     15  C   UNL     1      47.348   4.110  15.847  0.00  0.00    +0.000 A 
ATOM     16  C   UNL     1      47.257   3.156  16.859  0.00  0.00    +0.000 A 
ATOM     17  C   UNL     1      47.777   3.435  18.120  0.00  0.00    +0.000 A 
ATOM     18  C   UNL     1      48.374   4.670  18.331  0.00  0.00    +0.000 A 
ATOM     19  N   UNL     1      48.483   5.631  17.373  0.00  0.00    +0.000 NA
ATOM     20  C   UNL     1      47.965   5.322  16.158  0.00  0.00    +0.000 A 
BRANCH  18  21
ATOM     21  C   UNL     1      48.937   4.984  19.679  0.00  0.00    +0.000 C 
ATOM     22  N   UNL     1      48.748   4.020  20.632  0.00  0.00    +0.000 N 
ATOM     23  O   UNL     1      49.531   6.027  19.928  0.00  0.00    +0.000 OA
ATOM     24  H   UNL     1      48.254   3.167  20.391  0.00  0.00    +0.000 HD
ATOM     25  H   UNL     1      49.103   4.164  21.566  0.00  0.00    +0.000 HD
ENDBRANCH  18  21
ENDBRANCH  14  15
ENDBRANCH   1  14
TORSDOF 7
ENDMDL
MODEL 8
REMARK VINA RESULT:    -6.146      4.122      8.566
REMARK INTER + INTRA:          -9.806
REMARK INTER:                  -9.046
REMARK INTRA:                  -0.760
REMARK UNBOUND:                -1.145
REMARK  Name = 
REMARK  9 active torsions:
REMARK  status: ('A' for Active; 'I' for Inactive)
REMARK    1  A    between atoms: C_1  and  C_2
REMARK    2  A    between atoms: C_2  and  C_3
REMARK    3  A    between atoms: C_2  and  N_4
REMARK    4  A    between atoms: N_4  and  C_5
REMARK    5  A    between atoms: C_5  and  C_6
REMARK    6  A    between atoms: C_9  and  C_10
REMARK    7  A    between atoms: C_10  and  O_11
REMARK    8  A    between atoms: O_11  and  C_12
REMARK    9  A    between atoms: C_15  and  C_16
REMARK                            x       y       z     vdW  Elec       q    Type
REMARK                         _______ _______ _______ _____ _____    ______ ____
ROOT
ATOM      1  C   UNL     1      47.638   6.733  13.854  0.00  0.00    +0.000 C 
ENDROOT
BRANCH   1   5
ATOM      2  C   UNL     1      44.887   4.768  11.172  0.00  0.00    +0.000 A 
ATOM      3  C   UNL     1      45.657   5.854  10.731  0.00  0.00    +0.000 A 
ATOM      4  C   UNL     1      46.527   6.505  11.604  0.00  0.00    +0.000 A 
ATOM      5  C   UNL     1      46.637   6.088  12.936  0.00  0.00    +0.000 A 
ATOM      6  C   UNL     1      45.827   5.042  13.393  0.00  0.00    +0.000 A 
ATOM      7  C   UNL     1      44.967   4.382  12.516  0.00  0.00    +0.000 A 
BRANCH   2   8
ATOM      8  C   UNL     1      43.986   4.021  10.216  0.00  0.00    +0.000 C 
BRANCH   8   9
ATOM      9  N   UNL     1      44.278   4.379   8.826  0.00  0.00    +0.000 NA
ATOM     10  H   UNL     1      43.409   4.635   8.363  0.00  0.00    +0.000 HD
BRANCH   9  12
ATOM     11  C   UNL     1      46.268   3.831   7.549  0.00  0.00    +0.000 C 
ATOM     12  C   UNL     1      44.926   3.304   8.067  0.00  0.00    +0.000 C 
ATOM     13  C   UNL     1      45.162   2.056   8.919  0.00  0.00    +0.000 C 
ENDBRANCH   9  12
ENDBRANCH   8   9
ENDBRANCH   2   8
ENDBRANCH   1   5
BRANCH   1  14
ATOM     14  O   UNL     1      48.463   5.735  14.453  0.00  0.00    +0.000 OA
BRANCH  14  15
ATOM     15  C   UNL     1      48.454   5.713  15.820  0.00  0.00    +0.000 A 
ATOM     16  C   UNL     1      48.922   6.723  16.658  0.00  0.00    +0.000 A 
ATOM     17  C   UNL     1      48.850   6.565  18.040  0.00  0.00    +0.000 A 
ATOM     18  C   UNL     1      48.310   5.390  18.543  0.00  0.00    +0.000 A 
ATOM     19  N   UNL     1      47.843   4.377  17.763  0.00  0.00    +0.000 NA
ATOM     20  C   UNL     1      47.929   4.569  16.422  0.00  0.00    +0.000 A 
BRANCH  18  21
ATOM     21  C   UNL     1      48.226   5.204  20.024  0.00  0.00    +0.000 C 
ATOM     22  N   UNL     1      48.528   3.948  20.474  0.00  0.00    +0.000 N 
ATOM     23  O   UNL     1      47.913   6.106  20.793  0.00  0.00    +0.000 OA
ATOM     24  H   UNL     1      48.786   3.226  19.810  0.00  0.00    +0.000 HD
ATOM     25  H   UNL     1      48.493   3.750  21.464  0.00  0.00    +0.000 HD
ENDBRANCH  18  21
ENDBRANCH  14  15
ENDBRANCH   1  14
TORSDOF 7
ENDMDL
MODEL 9
REMARK VINA RESULT:    -5.645      2.213      6.413
REMARK INTER + INTRA:          -9.100
REMARK INTER:                  -8.763
REMARK INTRA:                  -0.337
REMARK UNBOUND:                -1.145
REMARK  Name = 
REMARK  9 active torsions:
REMARK  status: ('A' for Active; 'I' for Inactive)
REMARK    1  A    between atoms: C_1  and  C_2
REMARK    2  A    between atoms: C_2  and  C_3
REMARK    3  A    between atoms: C_2  and  N_4
REMARK    4  A    between atoms: N_4  and  C_5
REMARK    5  A    between atoms: C_5  and  C_6
REMARK    6  A    between atoms: C_9  and  C_10
REMARK    7  A    between atoms: C_10  and  O_11
REMARK    8  A    between atoms: O_11  and  C_12
REMARK    9  A    between atoms: C_15  and  C_16
REMARK                            x       y       z     vdW  Elec       q    Type
REMARK                         _______ _______ _______ _____ _____    ______ ____
ROOT
ATOM      1  C   UNL     1      43.352   5.046  12.945  0.00  0.00    +0.000 C 
ENDROOT
BRANCH   1   5
ATOM      2  C   UNL     1      44.500   3.024   9.309  0.00  0.00    +0.000 A 
ATOM      3  C   UNL     1      44.349   4.418   9.331  0.00  0.00    +0.000 A 
ATOM      4  C   UNL     1      43.953   5.069  10.498  0.00  0.00    +0.000 A 
ATOM      5  C   UNL     1      43.693   4.338  11.663  0.00  0.00    +0.000 A 
ATOM      6  C   UNL     1      43.788   2.942  11.629  0.00  0.00    +0.000 A 
ATOM      7  C   UNL     1      44.197   2.292  10.465  0.00  0.00    +0.000 A 
BRANCH   2   8
ATOM      8  C   UNL     1      44.985   2.319   8.065  0.00  0.00    +0.000 C 
BRANCH   8   9
ATOM      9  N   UNL     1      45.749   3.227   7.206  0.00  0.00    +0.000 NA
ATOM     10  H   UNL     1      45.211   3.410   6.361  0.00  0.00    +0.000 HD
BRANCH   9  12
ATOM     11  C   UNL     1      47.166   1.261   7.323  0.00  0.00    +0.000 C 
ATOM     12  C   UNL     1      47.068   2.709   6.831  0.00  0.00    +0.000 C 
ATOM     13  C   UNL     1      47.299   2.751   5.320  0.00  0.00    +0.000 C 
ENDBRANCH   9  12
ENDBRANCH   8   9
ENDBRANCH   2   8
ENDBRANCH   1   5
BRANCH   1  14
ATOM     14  O   UNL     1      43.852   6.382  12.913  0.00  0.00    +0.000 OA
BRANCH  14  15
ATOM     15  C   UNL     1      45.216   6.495  12.907  0.00  0.00    +0.000 A 
ATOM     16  C   UNL     1      46.115   5.571  13.436  0.00  0.00    +0.000 A 
ATOM     17  C   UNL     1      47.484   5.817  13.360  0.00  0.00    +0.000 A 
ATOM     18  C   UNL     1      47.912   6.990  12.755  0.00  0.00    +0.000 A 
ATOM     19  N   UNL     1      47.070   7.920  12.227  0.00  0.00    +0.000 NA
ATOM     20  C   UNL     1      45.744   7.644  12.320  0.00  0.00    +0.000 A 
BRANCH  18  21
ATOM     21  C   UNL     1      49.377   7.269  12.666  0.00  0.00    +0.000 C 
ATOM     22  N   UNL     1      50.043   7.290  13.861  0.00  0.00    +0.000 N 
ATOM     23  O   UNL     1      49.956   7.464  11.603  0.00  0.00    +0.000 OA
ATOM     24  H   UNL     1      49.533   7.122  14.722  0.00  0.00    +0.000 HD
ATOM     25  H   UNL     1      51.037   7.471  13.877  0.00  0.00    +0.000 HD
ENDBRANCH  18  21
ENDBRANCH  14  15
ENDBRANCH   1  14
TORSDOF 7
ENDMDL
