MODEL 1
REMARK VINA RESULT:    -9.255      0.000      0.000
REMARK INTER + INTRA:         -13.419
REMARK INTER:                 -12.501
REMARK INTRA:                  -0.917
REMARK UNBOUND:                -0.917
REMARK  Name = 
REMARK  6 active torsions:
REMARK  status: ('A' for Active; 'I' for Inactive)
REMARK    1  A    between atoms: C_2  and  C_4
REMARK    2  A    between atoms: C_7  and  O_8
REMARK    3  A    between atoms: O_8  and  C_9
REMARK    4  A    between atoms: C_9  and  C_10
REMARK    5  A    between atoms: C_12  and  C_13
REMARK    6  A    between atoms: C_20  and  N_21
REMARK                            x       y       z     vdW  Elec       q    Type
REMARK                         _______ _______ _______ _____ _____    ______ ____
ROOT
ATOM      1  C   UNL     1      45.032   4.898  11.971  0.00  0.00    +0.000 A 
ATOM      2  C   UNL     1      45.650   6.125  11.672  0.00  0.00    +0.000 A 
ATOM      3  C   UNL     1      46.732   6.628  12.424  0.00  0.00    +0.000 A 
ATOM      4  C   UNL     1      47.197   5.845  13.495  0.00  0.00    +0.000 A 
ATOM      5  C   UNL     1      46.596   4.614  13.799  0.00  0.00    +0.000 A 
ATOM      6  C   UNL     1      45.516   4.141  13.045  0.00  0.00    +0.000 A 
ENDROOT
BRANCH   3   7
ATOM      7  C   UNL     1      47.329   7.946  12.117  0.00  0.00    +0.000 A 
ATOM      8  C   UNL     1      48.672   8.098  11.743  0.00  0.00    +0.000 A 
ATOM      9  C   UNL     1      49.200   9.362  11.480  0.00  0.00    +0.000 A 
ATOM     10  C   UNL     1      48.365  10.459  11.583  0.00  0.00    +0.000 A 
ATOM     11  N   UNL     1      47.068  10.374  11.933  0.00  0.00    +0.000 NA
ATOM     12  C   UNL     1      46.590   9.133  12.195  0.00  0.00    +0.000 A 
ENDBRANCH   3   7
BRANCH   5  13
ATOM     13  N   UNL     1      47.081   3.833  14.944  0.00  0.00    +0.000 N 
ATOM     14  O   UNL     1      46.750   4.205  16.078  0.00  0.00    +0.000 OA
ATOM     15  O   UNL     1      47.795   2.847  14.709  0.00  0.00    +0.000 OA
ENDBRANCH   5  13
BRANCH   1  16
ATOM     16  C   UNL     1      43.780   4.446  11.248  0.00  0.00    +0.000 C 
BRANCH  16  17
ATOM     17  O   UNL     1      43.810   4.797   9.860  0.00  0.00    +0.000 OA
BRANCH  17  21
ATOM     18  C   UNL     1      46.346   2.314   7.766  0.00  0.00    +0.000 A 
ATOM     19  C   UNL     1      45.457   1.766   8.693  0.00  0.00    +0.000 A 
ATOM     20  C   UNL     1      44.601   2.616   9.400  0.00  0.00    +0.000 A 
ATOM     21  C   UNL     1      44.667   3.980   9.148  0.00  0.00    +0.000 A 
ATOM     22  N   UNL     1      45.517   4.533   8.259  0.00  0.00    +0.000 NA
ATOM     23  C   UNL     1      46.348   3.692   7.598  0.00  0.00    +0.000 A 
BRANCH  18  25
ATOM     24  N   UNL     1      48.420   2.149   6.509  0.00  0.00    +0.000 N 
ATOM     25  C   UNL     1      47.301   1.516   6.974  0.00  0.00    +0.000 C 
ATOM     26  O   UNL     1      47.122   0.322   6.772  0.00  0.00    +0.000 OA
ATOM     27  H   UNL     1      49.113   1.556   6.069  0.00  0.00    +0.000 HD
ATOM     28  H   UNL     1      48.730   3.041   6.866  0.00  0.00    +0.000 HD
ENDBRANCH  18  25
ENDBRANCH  17  21
ENDBRANCH  16  17
ENDBRANCH   1  16
TORSDOF 6
ENDMDL
MODEL 2
REMARK VINA RESULT:    -8.231      2.538      3.995
REMARK INTER + INTRA:         -12.035
REMARK INTER:                 -11.110
REMARK INTRA:                  -0.925
REMARK UNBOUND:                -0.917
REMARK  Name = 
REMARK  6 active torsions:
REMARK  status: ('A' for Active; 'I' for Inactive)
REMARK    1  A    between atoms: C_2  and  C_4
REMARK    2  A    between atoms: C_7  and  O_8
REMARK    3  A    between atoms: O_8  and  C_9
REMARK    4  A    between atoms: C_9  and  C_10
REMARK    5  A    between atoms: C_12  and  C_13
REMARK    6  A    between atoms: C_20  and  N_21
REMARK                            x       y       z     vdW  Elec       q    Type
REMARK                         _______ _______ _______ _____ _____    ______ ____
ROOT
ATOM      1  C   UNL     1      44.669   4.881  12.082  0.00  0.00    +0.000 A 
ATOM      2  C   UNL     1      45.521   4.560  13.152  0.00  0.00    +0.000 A 
ATOM      3  C   UNL     1      46.344   5.522  13.777  0.00  0.00    +0.000 A 
ATOM      4  C   UNL     1      46.274   6.842  13.298  0.00  0.00    +0.000 A 
ATOM      5  C   UNL     1      45.421   7.178  12.236  0.00  0.00    +0.000 A 
ATOM      6  C   UNL     1      44.623   6.204  11.626  0.00  0.00    +0.000 A 
ENDROOT
BRANCH   3   7
ATOM      7  C   UNL     1      47.269   5.144  14.867  0.00  0.00    +0.000 A 
ATOM      8  C   UNL     1      47.164   3.928  15.558  0.00  0.00    +0.000 A 
ATOM      9  C   UNL     1      48.047   3.618  16.593  0.00  0.00    +0.000 A 
ATOM     10  C   UNL     1      49.033   4.532  16.913  0.00  0.00    +0.000 A 
ATOM     11  N   UNL     1      49.184   5.712  16.282  0.00  0.00    +0.000 NA
ATOM     12  C   UNL     1      48.302   5.988  15.290  0.00  0.00    +0.000 A 
ENDBRANCH   3   7
BRANCH   5  13
ATOM     13  N   UNL     1      45.394   8.558  11.736  0.00  0.00    +0.000 N 
ATOM     14  O   UNL     1      44.414   8.910  11.066  0.00  0.00    +0.000 OA
ATOM     15  O   UNL     1      46.354   9.292  12.014  0.00  0.00    +0.000 OA
ENDBRANCH   5  13
BRANCH   1  16
ATOM     16  C   UNL     1      43.906   3.809  11.329  0.00  0.00    +0.000 C 
BRANCH  16  17
ATOM     17  O   UNL     1      43.673   4.179   9.966  0.00  0.00    +0.000 OA
BRANCH  17  21
ATOM     18  C   UNL     1      46.594   2.646   7.496  0.00  0.00    +0.000 A 
ATOM     19  C   UNL     1      45.904   1.792   8.358  0.00  0.00    +0.000 A 
ATOM     20  C   UNL     1      44.916   2.321   9.194  0.00  0.00    +0.000 A 
ATOM     21  C   UNL     1      44.655   3.683   9.130  0.00  0.00    +0.000 A 
ATOM     22  N   UNL     1      45.308   4.529   8.306  0.00  0.00    +0.000 NA
ATOM     23  C   UNL     1      46.272   3.997   7.517  0.00  0.00    +0.000 A 
BRANCH  18  25
ATOM     24  N   UNL     1      47.918   2.976   5.483  0.00  0.00    +0.000 N 
ATOM     25  C   UNL     1      47.662   2.201   6.581  0.00  0.00    +0.000 C 
ATOM     26  O   UNL     1      48.324   1.198   6.813  0.00  0.00    +0.000 OA
ATOM     27  H   UNL     1      48.729   2.714   4.936  0.00  0.00    +0.000 HD
ATOM     28  H   UNL     1      47.586   3.926   5.397  0.00  0.00    +0.000 HD
ENDBRANCH  18  25
ENDBRANCH  17  21
ENDBRANCH  16  17
ENDBRANCH   1  16
TORSDOF 6
ENDMDL
MODEL 3
REMARK VINA RESULT:    -7.357      2.736      7.192
REMARK INTER + INTRA:         -10.855
REMARK INTER:                 -10.089
REMARK INTRA:                  -0.766
REMARK UNBOUND:                -0.917
REMARK  Name = 
REMARK  6 active torsions:
REMARK  status: ('A' for Active; 'I' for Inactive)
REMARK    1  A    between atoms: C_2  and  C_4
REMARK    2  A    between atoms: C_7  and  O_8
REMARK    3  A    between atoms: O_8  and  C_9
REMARK    4  A    between atoms: C_9  and  C_10
REMARK    5  A    between atoms: C_12  and  C_13
REMARK    6  A    between atoms: C_20  and  N_21
REMARK                            x       y       z     vdW  Elec       q    Type
REMARK                         _______ _______ _______ _____ _____    ______ ____
ROOT
ATOM      1  C   UNL     1      44.998   5.527  10.544  0.00  0.00    +0.000 A 
ATOM      2  C   UNL     1      45.586   4.945   9.409  0.00  0.00    +0.000 A 
ATOM      3  C   UNL     1      45.466   3.570   9.116  0.00  0.00    +0.000 A 
ATOM      4  C   UNL     1      44.710   2.783  10.004  0.00  0.00    +0.000 A 
ATOM      5  C   UNL     1      44.109   3.353  11.136  0.00  0.00    +0.000 A 
ATOM      6  C   UNL     1      44.253   4.718  11.410  0.00  0.00    +0.000 A 
ENDROOT
BRANCH   3   7
ATOM      7  C   UNL     1      46.139   2.976   7.941  0.00  0.00    +0.000 A 
ATOM      8  C   UNL     1      46.418   3.711   6.780  0.00  0.00    +0.000 A 
ATOM      9  C   UNL     1      47.039   3.107   5.686  0.00  0.00    +0.000 A 
ATOM     10  C   UNL     1      47.384   1.772   5.779  0.00  0.00    +0.000 A 
ATOM     11  N   UNL     1      47.145   1.018   6.869  0.00  0.00    +0.000 NA
ATOM     12  C   UNL     1      46.529   1.632   7.909  0.00  0.00    +0.000 A 
ENDBRANCH   3   7
BRANCH   5  13
ATOM     13  N   UNL     1      43.354   2.501  12.063  0.00  0.00    +0.000 N 
ATOM     14  O   UNL     1      42.728   1.544  11.587  0.00  0.00    +0.000 OA
ATOM     15  O   UNL     1      43.387   2.788  13.269  0.00  0.00    +0.000 OA
ENDBRANCH   5  13
BRANCH   1  16
ATOM     16  C   UNL     1      45.262   6.971  10.920  0.00  0.00    +0.000 C 
BRANCH  16  17
ATOM     17  O   UNL     1      45.023   7.212  12.311  0.00  0.00    +0.000 OA
BRANCH  17  21
ATOM     18  C   UNL     1      48.548   7.565  14.415  0.00  0.00    +0.000 A 
ATOM     19  C   UNL     1      47.900   8.715  13.961  0.00  0.00    +0.000 A 
ATOM     20  C   UNL     1      46.706   8.586  13.246  0.00  0.00    +0.000 A 
ATOM     21  C   UNL     1      46.206   7.311  13.019  0.00  0.00    +0.000 A 
ATOM     22  N   UNL     1      46.814   6.185  13.446  0.00  0.00    +0.000 NA
ATOM     23  C   UNL     1      47.978   6.334  14.123  0.00  0.00    +0.000 A 
BRANCH  18  25
ATOM     24  N   UNL     1      50.980   7.551  14.446  0.00  0.00    +0.000 N 
ATOM     25  C   UNL     1      49.818   7.581  15.167  0.00  0.00    +0.000 C 
ATOM     26  O   UNL     1      49.835   7.658  16.388  0.00  0.00    +0.000 OA
ATOM     27  H   UNL     1      51.833   7.679  14.976  0.00  0.00    +0.000 HD
ATOM     28  H   UNL     1      51.013   7.750  13.457  0.00  0.00    +0.000 HD
ENDBRANCH  18  25
ENDBRANCH  17  21
ENDBRANCH  16  17
ENDBRANCH   1  16
TORSDOF 6
ENDMDL
MODEL 4
REMARK VINA RESULT:    -7.003      2.419      4.017
REMARK INTER + INTRA:         -10.377
REMARK INTER:                  -9.650
REMARK INTRA:                  -0.726
REMARK UNBOUND:                -0.917
REMARK  Name = 
REMARK  6 active torsions:
REMARK  status: ('A' for Active; 'I' for Inactive)
REMARK    1  A    between atoms: C_2  and  C_4
REMARK    2  A    between atoms: C_7  and  O_8
REMARK    3  A    between atoms: O_8  and  C_9
REMARK    4  A    between atoms: C_9  and  C_10
REMARK    5  A    between atoms: C_12  and  C_13
REMARK    6  A    between atoms: C_20  and  N_21
REMARK                            x       y       z     vdW  Elec       q    Type
REMARK                         _______ _______ _______ _____ _____    ______ ____
ROOT
ATOM      1  C   UNL     1      44.193   6.672  11.371  0.00  0.00    +0.000 A 
ATOM      2  C   UNL     1      45.311   6.542  12.213  0.00  0.00    +0.000 A 
ATOM      3  C   UNL     1      46.033   7.657  12.689  0.00  0.00    +0.000 A 
ATOM      4  C   UNL     1      45.583   8.932  12.301  0.00  0.00    +0.000 A 
ATOM      5  C   UNL     1      44.463   9.077  11.469  0.00  0.00    +0.000 A 
ATOM      6  C   UNL     1      43.771   7.955  11.001  0.00  0.00    +0.000 A 
ENDROOT
BRANCH   3   7
ATOM      7  C   UNL     1      47.236   7.487  13.531  0.00  0.00    +0.000 A 
ATOM      8  C   UNL     1      48.045   8.566  13.918  0.00  0.00    +0.000 A 
ATOM      9  C   UNL     1      49.183   8.359  14.699  0.00  0.00    +0.000 A 
ATOM     10  C   UNL     1      49.485   7.069  15.093  0.00  0.00    +0.000 A 
ATOM     11  N   UNL     1      48.744   5.997  14.756  0.00  0.00    +0.000 NA
ATOM     12  C   UNL     1      47.653   6.231  13.986  0.00  0.00    +0.000 A 
ENDBRANCH   3   7
BRANCH   5  13
ATOM     13  N   UNL     1      44.036  10.420  11.054  0.00  0.00    +0.000 N 
ATOM     14  O   UNL     1      43.914  10.637   9.841  0.00  0.00    +0.000 OA
ATOM     15  O   UNL     1      43.824  11.258  11.942  0.00  0.00    +0.000 OA
ENDBRANCH   5  13
BRANCH   1  16
ATOM     16  C   UNL     1      43.524   5.462  10.752  0.00  0.00    +0.000 C 
BRANCH  16  17
ATOM     17  O   UNL     1      44.232   4.253  11.047  0.00  0.00    +0.000 OA
BRANCH  17  21
ATOM     18  C   UNL     1      46.164   2.733   7.739  0.00  0.00    +0.000 A 
ATOM     19  C   UNL     1      45.607   1.858   8.673  0.00  0.00    +0.000 A 
ATOM     20  C   UNL     1      44.955   2.381   9.793  0.00  0.00    +0.000 A 
ATOM     21  C   UNL     1      44.883   3.761   9.931  0.00  0.00    +0.000 A 
ATOM     22  N   UNL     1      45.413   4.627   9.043  0.00  0.00    +0.000 NA
ATOM     23  C   UNL     1      46.054   4.097   7.974  0.00  0.00    +0.000 A 
BRANCH  18  25
ATOM     24  N   UNL     1      47.145   3.234   5.571  0.00  0.00    +0.000 N 
ATOM     25  C   UNL     1      46.884   2.293   6.529  0.00  0.00    +0.000 C 
ATOM     26  O   UNL     1      47.270   1.139   6.401  0.00  0.00    +0.000 OA
ATOM     27  H   UNL     1      47.738   2.935   4.807  0.00  0.00    +0.000 HD
ATOM     28  H   UNL     1      47.080   4.225   5.749  0.00  0.00    +0.000 HD
ENDBRANCH  18  25
ENDBRANCH  17  21
ENDBRANCH  16  17
ENDBRANCH   1  16
TORSDOF 6
ENDMDL
MODEL 5
REMARK VINA RESULT:    -6.825      3.292      6.969
REMARK INTER + INTRA:         -10.136
REMARK INTER:                  -9.388
REMARK INTRA:                  -0.748
REMARK UNBOUND:                -0.917
REMARK  Name = 
REMARK  6 active torsions:
REMARK  status: ('A' for Active; 'I' for Inactive)
REMARK    1  A    between atoms: C_2  and  C_4
REMARK    2  A    between atoms: C_7  and  O_8
REMARK    3  A    between atoms: O_8  and  C_9
REMARK    4  A    between atoms: C_9  and  C_10
REMARK    5  A    between atoms: C_12  and  C_13
REMARK    6  A    between atoms: C_20  and  N_21
REMARK                            x       y       z     vdW  Elec       q    Type
REMARK                         _______ _______ _______ _____ _____    ______ ____
ROOT
ATOM      1  C   UNL     1      46.297   4.378  13.429  0.00  0.00    +0.000 A 
ATOM      2  C   UNL     1      46.572   5.750  13.302  0.00  0.00    +0.000 A 
ATOM      3  C   UNL     1      45.964   6.554  12.315  0.00  0.00    +0.000 A 
ATOM      4  C   UNL     1      45.044   5.933  11.451  0.00  0.00    +0.000 A 
ATOM      5  C   UNL     1      44.754   4.566  11.573  0.00  0.00    +0.000 A 
ATOM      6  C   UNL     1      45.378   3.788  12.553  0.00  0.00    +0.000 A 
ENDROOT
BRANCH   3   7
ATOM      7  C   UNL     1      46.311   7.984  12.173  0.00  0.00    +0.000 A 
ATOM      8  C   UNL     1      47.637   8.436  12.110  0.00  0.00    +0.000 A 
ATOM      9  C   UNL     1      47.922   9.798  11.994  0.00  0.00    +0.000 A 
ATOM     10  C   UNL     1      46.866  10.687  11.929  0.00  0.00    +0.000 A 
ATOM     11  N   UNL     1      45.574  10.311  11.980  0.00  0.00    +0.000 NA
ATOM     12  C   UNL     1      45.333   8.983  12.106  0.00  0.00    +0.000 A 
ENDBRANCH   3   7
BRANCH   5  13
ATOM     13  N   UNL     1      43.813   3.938  10.635  0.00  0.00    +0.000 N 
ATOM     14  O   UNL     1      42.947   3.187  11.104  0.00  0.00    +0.000 OA
ATOM     15  O   UNL     1      43.942   4.196   9.430  0.00  0.00    +0.000 OA
ENDBRANCH   5  13
BRANCH   1  16
ATOM     16  C   UNL     1      47.069   3.503  14.396  0.00  0.00    +0.000 C 
BRANCH  16  17
ATOM     17  O   UNL     1      47.014   4.010  15.734  0.00  0.00    +0.000 OA
BRANCH  17  21
ATOM     18  C   UNL     1      50.619   3.522  17.668  0.00  0.00    +0.000 A 
ATOM     19  C   UNL     1      49.859   2.399  17.337  0.00  0.00    +0.000 A 
ATOM     20  C   UNL     1      48.636   2.574  16.683  0.00  0.00    +0.000 A 
ATOM     21  C   UNL     1      48.226   3.865  16.382  0.00  0.00    +0.000 A 
ATOM     22  N   UNL     1      48.941   4.966  16.692  0.00  0.00    +0.000 NA
ATOM     23  C   UNL     1      50.115   4.774  17.340  0.00  0.00    +0.000 A 
BRANCH  18  25
ATOM     24  N   UNL     1      52.508   2.231  18.494  0.00  0.00    +0.000 N 
ATOM     25  C   UNL     1      51.916   3.458  18.369  0.00  0.00    +0.000 C 
ATOM     26  O   UNL     1      52.464   4.468  18.790  0.00  0.00    +0.000 OA
ATOM     27  H   UNL     1      53.446   2.229  18.874  0.00  0.00    +0.000 HD
ATOM     28  H   UNL     1      52.226   1.433  17.944  0.00  0.00    +0.000 HD
ENDBRANCH  18  25
ENDBRANCH  17  21
ENDBRANCH  16  17
ENDBRANCH   1  16
TORSDOF 6
ENDMDL
MODEL 6
REMARK VINA RESULT:    -6.787      4.152      7.891
REMARK INTER + INTRA:         -10.085
REMARK INTER:                  -9.183
REMARK INTRA:                  -0.902
REMARK UNBOUND:                -0.917
REMARK  Name = 
REMARK  6 active torsions:
REMARK  status: ('A' for Active; 'I' for Inactive)
REMARK    1  A    between atoms: C_2  and  C_4
REMARK    2  A    between atoms: C_7  and  O_8
REMARK    3  A    between atoms: O_8  and  C_9
REMARK    4  A    between atoms: C_9  and  C_10
REMARK    5  A    between atoms: C_12  and  C_13
REMARK    6  A    between atoms: C_20  and  N_21
REMARK                            x       y       z     vdW  Elec       q    Type
REMARK                         _______ _______ _______ _____ _____    ______ ____
ROOT
ATOM      1  C   UNL     1      48.443   6.484  14.664  0.00  0.00    +0.000 A 
ATOM      2  C   UNL     1      47.324   5.788  14.176  0.00  0.00    +0.000 A 
ATOM      3  C   UNL     1      46.888   5.902  12.838  0.00  0.00    +0.000 A 
ATOM      4  C   UNL     1      47.631   6.738  11.985  0.00  0.00    +0.000 A 
ATOM      5  C   UNL     1      48.755   7.431  12.457  0.00  0.00    +0.000 A 
ATOM      6  C   UNL     1      49.161   7.310  13.791  0.00  0.00    +0.000 A 
ENDROOT
BRANCH   3   7
ATOM      7  C   UNL     1      45.677   5.197  12.366  0.00  0.00    +0.000 A 
ATOM      8  C   UNL     1      45.167   5.360  11.069  0.00  0.00    +0.000 A 
ATOM      9  C   UNL     1      44.010   4.690  10.669  0.00  0.00    +0.000 A 
ATOM     10  C   UNL     1      43.388   3.853  11.576  0.00  0.00    +0.000 A 
ATOM     11  N   UNL     1      43.833   3.655  12.831  0.00  0.00    +0.000 NA
ATOM     12  C   UNL     1      44.952   4.331  13.192  0.00  0.00    +0.000 A 
ENDBRANCH   3   7
BRANCH   5  13
ATOM     13  N   UNL     1      49.491   8.322  11.551  0.00  0.00    +0.000 N 
ATOM     14  O   UNL     1      49.002   9.435  11.314  0.00  0.00    +0.000 OA
ATOM     15  O   UNL     1      50.559   7.909  11.076  0.00  0.00    +0.000 OA
ENDBRANCH   5  13
BRANCH   1  16
ATOM     16  C   UNL     1      48.805   6.466  16.135  0.00  0.00    +0.000 C 
BRANCH  16  17
ATOM     17  O   UNL     1      48.258   5.324  16.805  0.00  0.00    +0.000 OA
BRANCH  17  21
ATOM     18  C   UNL     1      51.159   2.473  17.465  0.00  0.00    +0.000 A 
ATOM     19  C   UNL     1      51.441   3.815  17.727  0.00  0.00    +0.000 A 
ATOM     20  C   UNL     1      50.453   4.776  17.498  0.00  0.00    +0.000 A 
ATOM     21  C   UNL     1      49.219   4.354  17.021  0.00  0.00    +0.000 A 
ATOM     22  N   UNL     1      48.922   3.064  16.760  0.00  0.00    +0.000 NA
ATOM     23  C   UNL     1      49.901   2.153  16.973  0.00  0.00    +0.000 A 
BRANCH  18  25
ATOM     24  N   UNL     1      51.653   0.187  18.133  0.00  0.00    +0.000 N 
ATOM     25  C   UNL     1      52.129   1.378  17.657  0.00  0.00    +0.000 C 
ATOM     26  O   UNL     1      53.310   1.513  17.364  0.00  0.00    +0.000 OA
ATOM     27  H   UNL     1      52.313  -0.580  18.146  0.00  0.00    +0.000 HD
ATOM     28  H   UNL     1      50.670  -0.044  18.136  0.00  0.00    +0.000 HD
ENDBRANCH  18  25
ENDBRANCH  17  21
ENDBRANCH  16  17
ENDBRANCH   1  16
TORSDOF 6
ENDMDL
MODEL 7
REMARK VINA RESULT:    -6.736      3.346      8.227
REMARK INTER + INTRA:         -10.016
REMARK INTER:                  -9.244
REMARK INTRA:                  -0.772
REMARK UNBOUND:                -0.917
REMARK  Name = 
REMARK  6 active torsions:
REMARK  status: ('A' for Active; 'I' for Inactive)
REMARK    1  A    between atoms: C_2  and  C_4
REMARK    2  A    between atoms: C_7  and  O_8
REMARK    3  A    between atoms: O_8  and  C_9
REMARK    4  A    between atoms: C_9  and  C_10
REMARK    5  A    between atoms: C_12  and  C_13
REMARK    6  A    between atoms: C_20  and  N_21
REMARK                            x       y       z     vdW  Elec       q    Type
REMARK                         _______ _______ _______ _____ _____    ______ ____
ROOT
ATOM      1  C   UNL     1      46.941   7.232  12.910  0.00  0.00    +0.000 A 
ATOM      2  C   UNL     1      46.611   6.111  12.130  0.00  0.00    +0.000 A 
ATOM      3  C   UNL     1      45.556   6.127  11.193  0.00  0.00    +0.000 A 
ATOM      4  C   UNL     1      44.837   7.326  11.048  0.00  0.00    +0.000 A 
ATOM      5  C   UNL     1      45.161   8.456  11.814  0.00  0.00    +0.000 A 
ATOM      6  C   UNL     1      46.205   8.412  12.744  0.00  0.00    +0.000 A 
ENDROOT
BRANCH   3   7
ATOM      7  C   UNL     1      45.200   4.916  10.422  0.00  0.00    +0.000 A 
ATOM      8  C   UNL     1      45.509   4.769   9.062  0.00  0.00    +0.000 A 
ATOM      9  C   UNL     1      45.138   3.617   8.367  0.00  0.00    +0.000 A 
ATOM     10  C   UNL     1      44.471   2.620   9.054  0.00  0.00    +0.000 A 
ATOM     11  N   UNL     1      44.152   2.704  10.359  0.00  0.00    +0.000 NA
ATOM     12  C   UNL     1      44.514   3.841  11.001  0.00  0.00    +0.000 A 
ENDBRANCH   3   7
BRANCH   5  13
ATOM     13  N   UNL     1      44.371   9.685  11.665  0.00  0.00    +0.000 N 
ATOM     14  O   UNL     1      44.774  10.703  12.243  0.00  0.00    +0.000 OA
ATOM     15  O   UNL     1      43.347   9.632  10.969  0.00  0.00    +0.000 OA
ENDBRANCH   5  13
BRANCH   1  16
ATOM     16  C   UNL     1      47.977   7.151  14.013  0.00  0.00    +0.000 C 
BRANCH  16  17
ATOM     17  O   UNL     1      48.279   5.796  14.362  0.00  0.00    +0.000 OA
BRANCH  17  21
ATOM     18  C   UNL     1      48.130   5.178  18.433  0.00  0.00    +0.000 A 
ATOM     19  C   UNL     1      47.437   4.316  17.581  0.00  0.00    +0.000 A 
ATOM     20  C   UNL     1      47.491   4.534  16.201  0.00  0.00    +0.000 A 
ATOM     21  C   UNL     1      48.241   5.603  15.730  0.00  0.00    +0.000 A 
ATOM     22  N   UNL     1      48.918   6.450  16.533  0.00  0.00    +0.000 NA
ATOM     23  C   UNL     1      48.838   6.229  17.866  0.00  0.00    +0.000 A 
BRANCH  18  25
ATOM     24  N   UNL     1      48.565   3.867  20.435  0.00  0.00    +0.000 N 
ATOM     25  C   UNL     1      48.133   5.051  19.903  0.00  0.00    +0.000 C 
ATOM     26  O   UNL     1      47.800   5.982  20.624  0.00  0.00    +0.000 OA
ATOM     27  H   UNL     1      48.667   3.846  21.442  0.00  0.00    +0.000 HD
ATOM     28  H   UNL     1      49.085   3.187  19.900  0.00  0.00    +0.000 HD
ENDBRANCH  18  25
ENDBRANCH  17  21
ENDBRANCH  16  17
ENDBRANCH   1  16
TORSDOF 6
ENDMDL
MODEL 8
REMARK VINA RESULT:    -6.460      4.996      7.441
REMARK INTER + INTRA:          -9.643
REMARK INTER:                  -8.858
REMARK INTRA:                  -0.785
REMARK UNBOUND:                -0.917
REMARK  Name = 
REMARK  6 active torsions:
REMARK  status: ('A' for Active; 'I' for Inactive)
REMARK    1  A    between atoms: C_2  and  C_4
REMARK    2  A    between atoms: C_7  and  O_8
REMARK    3  A    between atoms: O_8  and  C_9
REMARK    4  A    between atoms: C_9  and  C_10
REMARK    5  A    between atoms: C_12  and  C_13
REMARK    6  A    between atoms: C_20  and  N_21
REMARK                            x       y       z     vdW  Elec       q    Type
REMARK                         _______ _______ _______ _____ _____    ______ ____
ROOT
ATOM      1  C   UNL     1      48.274   4.056  16.964  0.00  0.00    +0.000 A 
ATOM      2  C   UNL     1      49.405   3.226  17.053  0.00  0.00    +0.000 A 
ATOM      3  C   UNL     1      50.555   3.593  17.784  0.00  0.00    +0.000 A 
ATOM      4  C   UNL     1      50.532   4.833  18.447  0.00  0.00    +0.000 A 
ATOM      5  C   UNL     1      49.406   5.667  18.373  0.00  0.00    +0.000 A 
ATOM      6  C   UNL     1      48.282   5.286  17.633  0.00  0.00    +0.000 A 
ENDROOT
BRANCH   3   7
ATOM      7  C   UNL     1      51.750   2.722  17.818  0.00  0.00    +0.000 A 
ATOM      8  C   UNL     1      51.706   1.367  17.458  0.00  0.00    +0.000 A 
ATOM      9  C   UNL     1      52.853   0.575  17.522  0.00  0.00    +0.000 A 
ATOM     10  C   UNL     1      54.035   1.161  17.935  0.00  0.00    +0.000 A 
ATOM     11  N   UNL     1      54.138   2.456  18.288  0.00  0.00    +0.000 NA
ATOM     12  C   UNL     1      53.002   3.194  18.227  0.00  0.00    +0.000 A 
ENDBRANCH   3   7
BRANCH   5  13
ATOM     13  N   UNL     1      49.424   6.971  19.049  0.00  0.00    +0.000 N 
ATOM     14  O   UNL     1      49.890   7.936  18.428  0.00  0.00    +0.000 OA
ATOM     15  O   UNL     1      48.972   7.030  20.201  0.00  0.00    +0.000 OA
ENDBRANCH   5  13
BRANCH   1  16
ATOM     16  C   UNL     1      47.111   3.712  16.056  0.00  0.00    +0.000 C 
BRANCH  16  17
ATOM     17  O   UNL     1      47.548   3.369  14.736  0.00  0.00    +0.000 OA
BRANCH  17  21
ATOM     18  C   UNL     1      44.935   4.793  11.886  0.00  0.00    +0.000 A 
ATOM     19  C   UNL     1      45.634   5.695  12.691  0.00  0.00    +0.000 A 
ATOM     20  C   UNL     1      46.516   5.203  13.656  0.00  0.00    +0.000 A 
ATOM     21  C   UNL     1      46.668   3.828  13.775  0.00  0.00    +0.000 A 
ATOM     22  N   UNL     1      46.004   2.937  13.010  0.00  0.00    +0.000 NA
ATOM     23  C   UNL     1      45.143   3.436  12.092  0.00  0.00    +0.000 A 
BRANCH  18  25
ATOM     24  N   UNL     1      43.366   6.417  10.983  0.00  0.00    +0.000 N 
ATOM     25  C   UNL     1      43.970   5.198  10.846  0.00  0.00    +0.000 C 
ATOM     26  O   UNL     1      43.745   4.488   9.874  0.00  0.00    +0.000 OA
ATOM     27  H   UNL     1      42.799   6.720  10.201  0.00  0.00    +0.000 HD
ATOM     28  H   UNL     1      43.711   7.128  11.612  0.00  0.00    +0.000 HD
ENDBRANCH  18  25
ENDBRANCH  17  21
ENDBRANCH  16  17
ENDBRANCH   1  16
TORSDOF 6
ENDMDL
MODEL 9
REMARK VINA RESULT:    -6.394      2.658      7.339
REMARK INTER + INTRA:          -9.554
REMARK INTER:                  -8.799
REMARK INTRA:                  -0.754
REMARK UNBOUND:                -0.917
REMARK  Name = 
REMARK  6 active torsions:
REMARK  status: ('A' for Active; 'I' for Inactive)
REMARK    1  A    between atoms: C_2  and  C_4
REMARK    2  A    between atoms: C_7  and  O_8
REMARK    3  A    between atoms: O_8  and  C_9
REMARK    4  A    between atoms: C_9  and  C_10
REMARK    5  A    between atoms: C_12  and  C_13
REMARK    6  A    between atoms: C_20  and  N_21
REMARK                            x       y       z     vdW  Elec       q    Type
REMARK                         _______ _______ _______ _____ _____    ______ ____
ROOT
ATOM      1  C   UNL     1      45.552   5.545  10.754  0.00  0.00    +0.000 A 
ATOM      2  C   UNL     1      46.031   4.954   9.572  0.00  0.00    +0.000 A 
ATOM      3  C   UNL     1      45.671   3.647   9.182  0.00  0.00    +0.000 A 
ATOM      4  C   UNL     1      44.787   2.942  10.018  0.00  0.00    +0.000 A 
ATOM      5  C   UNL     1      44.295   3.523  11.196  0.00  0.00    +0.000 A 
ATOM      6  C   UNL     1      44.675   4.817  11.568  0.00  0.00    +0.000 A 
ENDROOT
BRANCH   3   7
ATOM      7  C   UNL     1      46.230   3.033   7.959  0.00  0.00    +0.000 A 
ATOM      8  C   UNL     1      46.625   1.688   7.903  0.00  0.00    +0.000 A 
ATOM      9  C   UNL     1      47.166   1.152   6.733  0.00  0.00    +0.000 A 
ATOM     10  C   UNL     1      47.291   1.974   5.629  0.00  0.00    +0.000 A 
ATOM     11  N   UNL     1      46.926   3.269   5.623  0.00  0.00    +0.000 NA
ATOM     12  C   UNL     1      46.416   3.762   6.779  0.00  0.00    +0.000 A 
ENDBRANCH   3   7
BRANCH   5  13
ATOM     13  N   UNL     1      43.400   2.750  12.068  0.00  0.00    +0.000 N 
ATOM     14  O   UNL     1      43.336   3.073  13.261  0.00  0.00    +0.000 OA
ATOM     15  O   UNL     1      42.761   1.818  11.557  0.00  0.00    +0.000 OA
ENDBRANCH   5  13
BRANCH   1  16
ATOM     16  C   UNL     1      46.065   6.888  11.231  0.00  0.00    +0.000 C 
BRANCH  16  17
ATOM     17  O   UNL     1      47.491   6.899  11.360  0.00  0.00    +0.000 OA
BRANCH  17  21
ATOM     18  C   UNL     1      48.677   6.768  15.305  0.00  0.00    +0.000 A 
ATOM     19  C   UNL     1      48.901   7.925  14.557  0.00  0.00    +0.000 A 
ATOM     20  C   UNL     1      48.498   7.960  13.219  0.00  0.00    +0.000 A 
ATOM     21  C   UNL     1      47.881   6.837  12.684  0.00  0.00    +0.000 A 
ATOM     22  N   UNL     1      47.654   5.707  13.386  0.00  0.00    +0.000 NA
ATOM     23  C   UNL     1      48.068   5.690  14.675  0.00  0.00    +0.000 A 
BRANCH  18  25
ATOM     24  N   UNL     1      49.853   5.540  17.043  0.00  0.00    +0.000 N 
ATOM     25  C   UNL     1      49.071   6.614  16.718  0.00  0.00    +0.000 C 
ATOM     26  O   UNL     1      48.746   7.437  17.564  0.00  0.00    +0.000 OA
ATOM     27  H   UNL     1      50.205   5.520  17.993  0.00  0.00    +0.000 HD
ATOM     28  H   UNL     1      50.350   4.999  16.351  0.00  0.00    +0.000 HD
ENDBRANCH  18  25
ENDBRANCH  17  21
ENDBRANCH  16  17
ENDBRANCH   1  16
TORSDOF 6
ENDMDL
