MODEL 1
REMARK VINA RESULT:    -8.298      0.000      0.000
REMARK INTER + INTRA:         -12.242
REMARK INTER:                 -11.209
REMARK INTRA:                  -1.033
REMARK UNBOUND:                -1.033
REMARK  Name = 
REMARK  7 active torsions:
REMARK  status: ('A' for Active; 'I' for Inactive)
REMARK    1  A    between atoms: C_1  and  C_2
REMARK    2  A    between atoms: C_2  and  N_3
REMARK    3  A    between atoms: C_2  and  C_16
REMARK    4  A    between atoms: C_4  and  C_6
REMARK    5  A    between atoms: C_19  and  C_20
REMARK    6  A    between atoms: C_20  and  N_21
REMARK    7  A    between atoms: C_22  and  C_24
REMARK                            x       y       z     vdW  Elec       q    Type
REMARK                         _______ _______ _______ _____ _____    ______ ____
ROOT
ATOM      1  C   UNL     1      46.021   6.465  12.706  0.00  0.00    +0.000 A 
ATOM      2  C   UNL     1      46.447   5.136  12.862  0.00  0.00    +0.000 A 
ATOM      3  C   UNL     1      45.745   4.080  12.267  0.00  0.00    +0.000 A 
ATOM      4  C   UNL     1      44.603   4.328  11.497  0.00  0.00    +0.000 A 
ATOM      5  C   UNL     1      44.150   5.643  11.391  0.00  0.00    +0.000 A 
ATOM      6  F   UNL     1      43.039   5.910  10.689  0.00  0.00    +0.000 F 
ATOM      7  C   UNL     1      44.848   6.703  11.972  0.00  0.00    +0.000 A 
ENDROOT
BRANCH   1   9
ATOM      8  C   UNL     1      46.053   8.883  13.245  0.00  0.00    +0.000 C 
ATOM      9  C   UNL     1      46.897   7.601  13.230  0.00  0.00    +0.000 C 
BRANCH   9  10
ATOM     10  N   UNL     1      47.455   7.295  14.537  0.00  0.00    +0.000 N 
ATOM     11  C   UNL     1      48.772   6.937  14.711  0.00  0.00    +0.000 C 
ATOM     12  O   UNL     1      49.573   6.874  13.782  0.00  0.00    +0.000 OA
ATOM     13  H   UNL     1      46.797   6.981  15.244  0.00  0.00    +0.000 HD
BRANCH  11  14
ATOM     14  C   UNL     1      49.202   6.699  16.094  0.00  0.00    +0.000 A 
ATOM     15  C   UNL     1      50.184   7.508  16.655  0.00  0.00    +0.000 A 
ATOM     16  S   UNL     1      50.546   7.117  18.275  0.00  0.00    +0.000 S 
ATOM     17  C   UNL     1      49.435   5.827  18.268  0.00  0.00    +0.000 A 
ATOM     18  N   UNL     1      49.272   5.037  19.362  0.00  0.00    +0.000 NA
ATOM     19  C   UNL     1      48.423   4.076  19.204  0.00  0.00    +0.000 A 
ATOM     20  N   UNL     1      47.713   3.842  18.055  0.00  0.00    +0.000 N 
ATOM     21  C   UNL     1      47.811   4.641  16.942  0.00  0.00    +0.000 A 
ATOM     22  O   UNL     1      47.108   4.455  15.953  0.00  0.00    +0.000 OA
ATOM     23  C   UNL     1      48.777   5.716  17.056  0.00  0.00    +0.000 A 
ATOM     24  H   UNL     1      47.050   3.082  18.002  0.00  0.00    +0.000 HD
ENDBRANCH  11  14
ENDBRANCH   9  10
ENDBRANCH   1   9
BRANCH   4  25
ATOM     25  C   UNL     1      43.896   3.209  10.788  0.00  0.00    +0.000 C 
BRANCH  25  26
ATOM     26  N   UNL     1      44.750   2.544   9.834  0.00  0.00    +0.000 N 
ATOM     27  C   UNL     1      45.173   3.146   8.674  0.00  0.00    +0.000 C 
ATOM     28  O   UNL     1      44.856   4.290   8.362  0.00  0.00    +0.000 OA
ATOM     29  H   UNL     1      45.104   1.636  10.088  0.00  0.00    +0.000 HD
BRANCH  27  30
ATOM     30  C   UNL     1      46.022   2.337   7.841  0.00  0.00    +0.000 A 
ATOM     31  C   UNL     1      46.440   1.022   7.910  0.00  0.00    +0.000 A 
ATOM     32  N   UNL     1      47.264   0.703   6.861  0.00  0.00    +0.000 NA
ATOM     33  C   UNL     1      47.350   1.798   6.145  0.00  0.00    +0.000 A 
ATOM     34  N   UNL     1      46.612   2.808   6.689  0.00  0.00    +0.000 N 
ATOM     35  H   UNL     1      46.507   3.746   6.326  0.00  0.00    +0.000 HD
ENDBRANCH  27  30
ENDBRANCH  25  26
ENDBRANCH   4  25
TORSDOF 6
ENDMDL
MODEL 2
REMARK VINA RESULT:    -7.858      1.814      2.164
REMARK INTER + INTRA:         -11.647
REMARK INTER:                 -10.367
REMARK INTRA:                  -1.280
REMARK UNBOUND:                -1.033
REMARK  Name = 
REMARK  7 active torsions:
REMARK  status: ('A' for Active; 'I' for Inactive)
REMARK    1  A    between atoms: C_1  and  C_2
REMARK    2  A    between atoms: C_2  and  N_3
REMARK    3  A    between atoms: C_2  and  C_16
REMARK    4  A    between atoms: C_4  and  C_6
REMARK    5  A    between atoms: C_19  and  C_20
REMARK    6  A    between atoms: C_20  and  N_21
REMARK    7  A    between atoms: C_22  and  C_24
REMARK                            x       y       z     vdW  Elec       q    Type
REMARK                         _______ _______ _______ _____ _____    ______ ____
ROOT
ATOM      1  C   UNL     1      46.737   6.278  13.221  0.00  0.00    +0.000 A 
ATOM      2  C   UNL     1      46.903   4.914  13.517  0.00  0.00    +0.000 A 
ATOM      3  C   UNL     1      46.118   3.941  12.886  0.00  0.00    +0.000 A 
ATOM      4  C   UNL     1      45.152   4.306  11.941  0.00  0.00    +0.000 A 
ATOM      5  C   UNL     1      44.952   5.664  11.691  0.00  0.00    +0.000 A 
ATOM      6  F   UNL     1      44.010   6.048  10.817  0.00  0.00    +0.000 F 
ATOM      7  C   UNL     1      45.736   6.641  12.307  0.00  0.00    +0.000 A 
ENDROOT
BRANCH   1   9
ATOM      8  C   UNL     1      47.195   8.700  13.465  0.00  0.00    +0.000 C 
ATOM      9  C   UNL     1      47.716   7.296  13.802  0.00  0.00    +0.000 C 
BRANCH   9  10
ATOM     10  N   UNL     1      47.906   7.108  15.231  0.00  0.00    +0.000 N 
ATOM     11  C   UNL     1      49.139   6.842  15.782  0.00  0.00    +0.000 C 
ATOM     12  O   UNL     1      50.165   6.768  15.112  0.00  0.00    +0.000 OA
ATOM     13  H   UNL     1      47.093   6.801  15.756  0.00  0.00    +0.000 HD
BRANCH  11  14
ATOM     14  C   UNL     1      49.182   6.720  17.244  0.00  0.00    +0.000 A 
ATOM     15  C   UNL     1      49.766   5.599  17.821  0.00  0.00    +0.000 A 
ATOM     16  S   UNL     1      49.760   5.628  19.526  0.00  0.00    +0.000 S 
ATOM     17  C   UNL     1      48.938   7.118  19.551  0.00  0.00    +0.000 A 
ATOM     18  N   UNL     1      48.584   7.704  20.726  0.00  0.00    +0.000 NA
ATOM     19  C   UNL     1      47.935   8.813  20.594  0.00  0.00    +0.000 A 
ATOM     20  N   UNL     1      47.619   9.395  19.395  0.00  0.00    +0.000 N 
ATOM     21  C   UNL     1      47.995   8.864  18.185  0.00  0.00    +0.000 A 
ATOM     22  O   UNL     1      47.765   9.444  17.129  0.00  0.00    +0.000 OA
ATOM     23  C   UNL     1      48.699   7.600  18.276  0.00  0.00    +0.000 A 
ATOM     24  H   UNL     1      47.123  10.275  19.361  0.00  0.00    +0.000 HD
ENDBRANCH  11  14
ENDBRANCH   9  10
ENDBRANCH   1   9
BRANCH   4  25
ATOM     25  C   UNL     1      44.368   3.261  11.201  0.00  0.00    +0.000 C 
BRANCH  25  26
ATOM     26  N   UNL     1      45.154   2.609  10.182  0.00  0.00    +0.000 N 
ATOM     27  C   UNL     1      45.212   3.066   8.888  0.00  0.00    +0.000 C 
ATOM     28  O   UNL     1      44.600   4.056   8.501  0.00  0.00    +0.000 OA
ATOM     29  H   UNL     1      45.740   1.843  10.472  0.00  0.00    +0.000 HD
BRANCH  27  30
ATOM     30  C   UNL     1      46.048   2.295   8.006  0.00  0.00    +0.000 A 
ATOM     31  C   UNL     1      46.373   0.954   7.942  0.00  0.00    +0.000 A 
ATOM     32  N   UNL     1      47.229   0.695   6.902  0.00  0.00    +0.000 NA
ATOM     33  C   UNL     1      47.426   1.855   6.321  0.00  0.00    +0.000 A 
ATOM     34  N   UNL     1      46.729   2.848   6.944  0.00  0.00    +0.000 N 
ATOM     35  H   UNL     1      46.706   3.826   6.687  0.00  0.00    +0.000 HD
ENDBRANCH  27  30
ENDBRANCH  25  26
ENDBRANCH   4  25
TORSDOF 6
ENDMDL
MODEL 3
REMARK VINA RESULT:    -7.748      2.366      4.030
REMARK INTER + INTRA:         -11.499
REMARK INTER:                 -10.178
REMARK INTRA:                  -1.321
REMARK UNBOUND:                -1.033
REMARK  Name = 
REMARK  7 active torsions:
REMARK  status: ('A' for Active; 'I' for Inactive)
REMARK    1  A    between atoms: C_1  and  C_2
REMARK    2  A    between atoms: C_2  and  N_3
REMARK    3  A    between atoms: C_2  and  C_16
REMARK    4  A    between atoms: C_4  and  C_6
REMARK    5  A    between atoms: C_19  and  C_20
REMARK    6  A    between atoms: C_20  and  N_21
REMARK    7  A    between atoms: C_22  and  C_24
REMARK                            x       y       z     vdW  Elec       q    Type
REMARK                         _______ _______ _______ _____ _____    ______ ____
ROOT
ATOM      1  C   UNL     1      46.195   4.982  13.709  0.00  0.00    +0.000 A 
ATOM      2  C   UNL     1      46.209   3.646  13.275  0.00  0.00    +0.000 A 
ATOM      3  C   UNL     1      45.491   3.250  12.140  0.00  0.00    +0.000 A 
ATOM      4  C   UNL     1      44.746   4.181  11.408  0.00  0.00    +0.000 A 
ATOM      5  C   UNL     1      44.688   5.494  11.873  0.00  0.00    +0.000 A 
ATOM      6  F   UNL     1      43.954   6.403  11.213  0.00  0.00    +0.000 F 
ATOM      7  C   UNL     1      45.408   5.901  12.997  0.00  0.00    +0.000 A 
ENDROOT
BRANCH   1   9
ATOM      8  C   UNL     1      47.484   4.159  15.657  0.00  0.00    +0.000 C 
ATOM      9  C   UNL     1      47.115   5.411  14.850  0.00  0.00    +0.000 C 
BRANCH   9  10
ATOM     10  N   UNL     1      48.288   6.117  14.362  0.00  0.00    +0.000 N 
ATOM     11  C   UNL     1      48.915   7.100  15.093  0.00  0.00    +0.000 C 
ATOM     12  O   UNL     1      48.544   7.432  16.216  0.00  0.00    +0.000 OA
ATOM     13  H   UNL     1      48.405   6.151  13.354  0.00  0.00    +0.000 HD
BRANCH  11  14
ATOM     14  C   UNL     1      50.113   7.693  14.490  0.00  0.00    +0.000 A 
ATOM     15  C   UNL     1      51.334   7.592  15.147  0.00  0.00    +0.000 A 
ATOM     16  S   UNL     1      52.627   8.308  14.297  0.00  0.00    +0.000 S 
ATOM     17  C   UNL     1      51.593   8.815  13.044  0.00  0.00    +0.000 A 
ATOM     18  N   UNL     1      52.068   9.531  11.989  0.00  0.00    +0.000 NA
ATOM     19  C   UNL     1      51.167   9.879  11.132  0.00  0.00    +0.000 A 
ATOM     20  N   UNL     1      49.836   9.565  11.227  0.00  0.00    +0.000 N 
ATOM     21  C   UNL     1      49.320   8.807  12.249  0.00  0.00    +0.000 A 
ATOM     22  O   UNL     1      48.138   8.476  12.270  0.00  0.00    +0.000 OA
ATOM     23  C   UNL     1      50.285   8.418  13.257  0.00  0.00    +0.000 A 
ATOM     24  H   UNL     1      49.184   9.854  10.511  0.00  0.00    +0.000 HD
ENDBRANCH  11  14
ENDBRANCH   9  10
ENDBRANCH   1   9
BRANCH   4  25
ATOM     25  C   UNL     1      44.043   3.778  10.142  0.00  0.00    +0.000 C 
BRANCH  25  26
ATOM     26  N   UNL     1      44.918   3.080   9.232  0.00  0.00    +0.000 N 
ATOM     27  C   UNL     1      45.699   3.733   8.310  0.00  0.00    +0.000 C 
ATOM     28  O   UNL     1      45.709   4.953   8.188  0.00  0.00    +0.000 OA
ATOM     29  H   UNL     1      45.007   2.084   9.352  0.00  0.00    +0.000 HD
BRANCH  27  30
ATOM     30  C   UNL     1      46.513   2.879   7.486  0.00  0.00    +0.000 A 
ATOM     31  C   UNL     1      46.884   1.551   7.576  0.00  0.00    +0.000 A 
ATOM     32  N   UNL     1      47.688   1.183   6.528  0.00  0.00    +0.000 NA
ATOM     33  C   UNL     1      47.809   2.262   5.792  0.00  0.00    +0.000 A 
ATOM     34  N   UNL     1      47.111   3.307   6.322  0.00  0.00    +0.000 N 
ATOM     35  H   UNL     1      47.037   4.242   5.943  0.00  0.00    +0.000 HD
ENDBRANCH  27  30
ENDBRANCH  25  26
ENDBRANCH   4  25
TORSDOF 6
ENDMDL
MODEL 4
REMARK VINA RESULT:    -7.335      3.857      8.357
REMARK INTER + INTRA:         -10.941
REMARK INTER:                  -9.647
REMARK INTRA:                  -1.294
REMARK UNBOUND:                -1.033
REMARK  Name = 
REMARK  7 active torsions:
REMARK  status: ('A' for Active; 'I' for Inactive)
REMARK    1  A    between atoms: C_1  and  C_2
REMARK    2  A    between atoms: C_2  and  N_3
REMARK    3  A    between atoms: C_2  and  C_16
REMARK    4  A    between atoms: C_4  and  C_6
REMARK    5  A    between atoms: C_19  and  C_20
REMARK    6  A    between atoms: C_20  and  N_21
REMARK    7  A    between atoms: C_22  and  C_24
REMARK                            x       y       z     vdW  Elec       q    Type
REMARK                         _______ _______ _______ _____ _____    ______ ____
ROOT
ATOM      1  C   UNL     1      48.716   6.618  14.941  0.00  0.00    +0.000 A 
ATOM      2  C   UNL     1      49.894   6.978  15.618  0.00  0.00    +0.000 A 
ATOM      3  C   UNL     1      50.249   6.359  16.823  0.00  0.00    +0.000 A 
ATOM      4  C   UNL     1      49.438   5.362  17.378  0.00  0.00    +0.000 A 
ATOM      5  C   UNL     1      48.242   5.047  16.733  0.00  0.00    +0.000 A 
ATOM      6  F   UNL     1      47.427   4.121  17.259  0.00  0.00    +0.000 F 
ATOM      7  C   UNL     1      47.885   5.651  15.527  0.00  0.00    +0.000 A 
ENDROOT
BRANCH   1   9
ATOM      8  C   UNL     1      49.795   7.493  12.890  0.00  0.00    +0.000 C 
ATOM      9  C   UNL     1      48.443   7.194  13.554  0.00  0.00    +0.000 C 
BRANCH   9  10
ATOM     10  N   UNL     1      47.621   6.303  12.751  0.00  0.00    +0.000 N 
ATOM     11  C   UNL     1      46.566   6.757  11.992  0.00  0.00    +0.000 C 
ATOM     12  O   UNL     1      46.260   7.944  11.920  0.00  0.00    +0.000 OA
ATOM     13  H   UNL     1      47.589   5.332  13.048  0.00  0.00    +0.000 HD
BRANCH  11  14
ATOM     14  C   UNL     1      45.855   5.746  11.201  0.00  0.00    +0.000 A 
ATOM     15  C   UNL     1      45.956   5.766   9.815  0.00  0.00    +0.000 A 
ATOM     16  S   UNL     1      45.094   4.508   9.051  0.00  0.00    +0.000 S 
ATOM     17  C   UNL     1      44.522   3.921  10.543  0.00  0.00    +0.000 A 
ATOM     18  N   UNL     1      43.684   2.852  10.601  0.00  0.00    +0.000 NA
ATOM     19  C   UNL     1      43.303   2.538  11.794  0.00  0.00    +0.000 A 
ATOM     20  N   UNL     1      43.693   3.189  12.936  0.00  0.00    +0.000 N 
ATOM     21  C   UNL     1      44.573   4.243  12.929  0.00  0.00    +0.000 A 
ATOM     22  O   UNL     1      44.965   4.759  13.972  0.00  0.00    +0.000 OA
ATOM     23  C   UNL     1      45.007   4.657  11.610  0.00  0.00    +0.000 A 
ATOM     24  H   UNL     1      43.371   2.881  13.843  0.00  0.00    +0.000 HD
ENDBRANCH  11  14
ENDBRANCH   9  10
ENDBRANCH   1   9
BRANCH   4  25
ATOM     25  C   UNL     1      49.857   4.637  18.625  0.00  0.00    +0.000 C 
BRANCH  25  26
ATOM     26  N   UNL     1      51.020   3.810  18.410  0.00  0.00    +0.000 N 
ATOM     27  C   UNL     1      50.952   2.584  17.796  0.00  0.00    +0.000 C 
ATOM     28  O   UNL     1      49.902   2.099  17.387  0.00  0.00    +0.000 OA
ATOM     29  H   UNL     1      51.915   4.204  18.652  0.00  0.00    +0.000 HD
BRANCH  27  30
ATOM     30  C   UNL     1      52.210   1.899  17.661  0.00  0.00    +0.000 A 
ATOM     31  C   UNL     1      53.514   2.249  17.951  0.00  0.00    +0.000 A 
ATOM     32  N   UNL     1      54.386   1.238  17.640  0.00  0.00    +0.000 NA
ATOM     33  C   UNL     1      53.636   0.268  17.172  0.00  0.00    +0.000 A 
ATOM     34  N   UNL     1      52.317   0.615  17.174  0.00  0.00    +0.000 N 
ATOM     35  H   UNL     1      51.539   0.044  16.871  0.00  0.00    +0.000 HD
ENDBRANCH  27  30
ENDBRANCH  25  26
ENDBRANCH   4  25
TORSDOF 6
ENDMDL
MODEL 5
REMARK VINA RESULT:    -7.330      3.517      8.718
REMARK INTER + INTRA:         -10.934
REMARK INTER:                  -9.704
REMARK INTRA:                  -1.231
REMARK UNBOUND:                -1.033
REMARK  Name = 
REMARK  7 active torsions:
REMARK  status: ('A' for Active; 'I' for Inactive)
REMARK    1  A    between atoms: C_1  and  C_2
REMARK    2  A    between atoms: C_2  and  N_3
REMARK    3  A    between atoms: C_2  and  C_16
REMARK    4  A    between atoms: C_4  and  C_6
REMARK    5  A    between atoms: C_19  and  C_20
REMARK    6  A    between atoms: C_20  and  N_21
REMARK    7  A    between atoms: C_22  and  C_24
REMARK                            x       y       z     vdW  Elec       q    Type
REMARK                         _______ _______ _______ _____ _____    ______ ____
ROOT
ATOM      1  C   UNL     1      48.694   7.374  13.783  0.00  0.00    +0.000 A 
ATOM      2  C   UNL     1      50.002   7.874  13.900  0.00  0.00    +0.000 A 
ATOM      3  C   UNL     1      50.776   7.607  15.037  0.00  0.00    +0.000 A 
ATOM      4  C   UNL     1      50.262   6.830  16.082  0.00  0.00    +0.000 A 
ATOM      5  C   UNL     1      48.945   6.383  15.987  0.00  0.00    +0.000 A 
ATOM      6  F   UNL     1      48.412   5.666  16.988  0.00  0.00    +0.000 F 
ATOM      7  C   UNL     1      48.169   6.635  14.855  0.00  0.00    +0.000 A 
ENDROOT
BRANCH   1   9
ATOM      8  C   UNL     1      48.967   7.863  11.370  0.00  0.00    +0.000 C 
ATOM      9  C   UNL     1      47.940   7.546  12.466  0.00  0.00    +0.000 C 
BRANCH   9  10
ATOM     10  N   UNL     1      47.138   6.377  12.146  0.00  0.00    +0.000 N 
ATOM     11  C   UNL     1      45.767   6.367  12.269  0.00  0.00    +0.000 C 
ATOM     12  O   UNL     1      45.125   7.349  12.633  0.00  0.00    +0.000 OA
ATOM     13  H   UNL     1      47.610   5.479  12.201  0.00  0.00    +0.000 HD
BRANCH  11  14
ATOM     14  C   UNL     1      45.089   5.129  11.868  0.00  0.00    +0.000 A 
ATOM     15  C   UNL     1      44.384   4.396  12.815  0.00  0.00    +0.000 A 
ATOM     16  S   UNL     1      43.633   3.003  12.178  0.00  0.00    +0.000 S 
ATOM     17  C   UNL     1      44.261   3.309  10.626  0.00  0.00    +0.000 A 
ATOM     18  N   UNL     1      44.020   2.459   9.592  0.00  0.00    +0.000 NA
ATOM     19  C   UNL     1      44.588   2.796   8.482  0.00  0.00    +0.000 A 
ATOM     20  N   UNL     1      45.364   3.912   8.308  0.00  0.00    +0.000 N 
ATOM     21  C   UNL     1      45.596   4.822   9.311  0.00  0.00    +0.000 A 
ATOM     22  O   UNL     1      46.232   5.852   9.109  0.00  0.00    +0.000 OA
ATOM     23  C   UNL     1      45.008   4.473  10.589  0.00  0.00    +0.000 A 
ATOM     24  H   UNL     1      45.765   4.128   7.407  0.00  0.00    +0.000 HD
ENDBRANCH  11  14
ENDBRANCH   9  10
ENDBRANCH   1   9
BRANCH   4  25
ATOM     25  C   UNL     1      51.117   6.471  17.264  0.00  0.00    +0.000 C 
BRANCH  25  26
ATOM     26  N   UNL     1      51.550   5.095  17.225  0.00  0.00    +0.000 N 
ATOM     27  C   UNL     1      51.096   4.152  18.115  0.00  0.00    +0.000 C 
ATOM     28  O   UNL     1      50.294   4.407  19.007  0.00  0.00    +0.000 OA
ATOM     29  H   UNL     1      52.142   4.820  16.458  0.00  0.00    +0.000 HD
BRANCH  27  30
ATOM     30  C   UNL     1      51.630   2.830  17.927  0.00  0.00    +0.000 A 
ATOM     31  C   UNL     1      51.181   1.715  17.246  0.00  0.00    +0.000 A 
ATOM     32  N   UNL     1      52.059   0.668  17.363  0.00  0.00    +0.000 NA
ATOM     33  C   UNL     1      53.045   1.127  18.098  0.00  0.00    +0.000 A 
ATOM     34  N   UNL     1      52.837   2.426  18.455  0.00  0.00    +0.000 N 
ATOM     35  H   UNL     1      53.449   3.008  19.011  0.00  0.00    +0.000 HD
ENDBRANCH  27  30
ENDBRANCH  25  26
ENDBRANCH   4  25
TORSDOF 6
ENDMDL
MODEL 6
REMARK VINA RESULT:    -7.164      3.792      5.078
REMARK INTER + INTRA:         -10.710
REMARK INTER:                  -9.595
REMARK INTRA:                  -1.115
REMARK UNBOUND:                -1.033
REMARK  Name = 
REMARK  7 active torsions:
REMARK  status: ('A' for Active; 'I' for Inactive)
REMARK    1  A    between atoms: C_1  and  C_2
REMARK    2  A    between atoms: C_2  and  N_3
REMARK    3  A    between atoms: C_2  and  C_16
REMARK    4  A    between atoms: C_4  and  C_6
REMARK    5  A    between atoms: C_19  and  C_20
REMARK    6  A    between atoms: C_20  and  N_21
REMARK    7  A    between atoms: C_22  and  C_24
REMARK                            x       y       z     vdW  Elec       q    Type
REMARK                         _______ _______ _______ _____ _____    ______ ____
ROOT
ATOM      1  C   UNL     1      48.022   4.973  16.150  0.00  0.00    +0.000 A 
ATOM      2  C   UNL     1      47.045   4.424  15.302  0.00  0.00    +0.000 A 
ATOM      3  C   UNL     1      46.699   5.053  14.101  0.00  0.00    +0.000 A 
ATOM      4  C   UNL     1      47.324   6.244  13.714  0.00  0.00    +0.000 A 
ATOM      5  C   UNL     1      48.253   6.816  14.583  0.00  0.00    +0.000 A 
ATOM      6  F   UNL     1      48.844   7.975  14.257  0.00  0.00    +0.000 F 
ATOM      7  C   UNL     1      48.612   6.191  15.779  0.00  0.00    +0.000 A 
ENDROOT
BRANCH   1   9
ATOM      8  C   UNL     1      47.642   2.904  17.458  0.00  0.00    +0.000 C 
ATOM      9  C   UNL     1      48.491   4.180  17.368  0.00  0.00    +0.000 C 
BRANCH   9  10
ATOM     10  N   UNL     1      49.914   3.891  17.310  0.00  0.00    +0.000 N 
ATOM     11  C   UNL     1      50.760   4.136  18.367  0.00  0.00    +0.000 C 
ATOM     12  O   UNL     1      50.371   4.592  19.439  0.00  0.00    +0.000 OA
ATOM     13  H   UNL     1      50.331   3.870  16.384  0.00  0.00    +0.000 HD
BRANCH  11  14
ATOM     14  C   UNL     1      52.164   3.752  18.176  0.00  0.00    +0.000 A 
ATOM     15  C   UNL     1      53.164   4.701  18.354  0.00  0.00    +0.000 A 
ATOM     16  S   UNL     1      54.737   4.084  18.123  0.00  0.00    +0.000 S 
ATOM     17  C   UNL     1      54.133   2.541  17.735  0.00  0.00    +0.000 A 
ATOM     18  N   UNL     1      54.971   1.525  17.394  0.00  0.00    +0.000 NA
ATOM     19  C   UNL     1      54.374   0.421  17.090  0.00  0.00    +0.000 A 
ATOM     20  N   UNL     1      53.016   0.236  17.109  0.00  0.00    +0.000 N 
ATOM     21  C   UNL     1      52.135   1.218  17.490  0.00  0.00    +0.000 A 
ATOM     22  O   UNL     1      50.929   1.004  17.571  0.00  0.00    +0.000 OA
ATOM     23  C   UNL     1      52.753   2.490  17.810  0.00  0.00    +0.000 A 
ATOM     24  H   UNL     1      52.612  -0.660  16.876  0.00  0.00    +0.000 HD
ENDBRANCH  11  14
ENDBRANCH   9  10
ENDBRANCH   1   9
BRANCH   4  25
ATOM     25  C   UNL     1      47.017   6.878  12.387  0.00  0.00    +0.000 C 
BRANCH  25  26
ATOM     26  N   UNL     1      46.582   5.910  11.409  0.00  0.00    +0.000 N 
ATOM     27  C   UNL     1      45.260   5.732  11.082  0.00  0.00    +0.000 C 
ATOM     28  O   UNL     1      44.352   6.377  11.596  0.00  0.00    +0.000 OA
ATOM     29  H   UNL     1      47.298   5.417  10.900  0.00  0.00    +0.000 HD
BRANCH  27  30
ATOM     30  C   UNL     1      45.009   4.726  10.084  0.00  0.00    +0.000 A 
ATOM     31  C   UNL     1      44.327   3.525  10.102  0.00  0.00    +0.000 A 
ATOM     32  N   UNL     1      44.368   2.907   8.878  0.00  0.00    +0.000 NA
ATOM     33  C   UNL     1      45.055   3.716   8.107  0.00  0.00    +0.000 A 
ATOM     34  N   UNL     1      45.455   4.830   8.786  0.00  0.00    +0.000 N 
ATOM     35  H   UNL     1      45.990   5.605   8.417  0.00  0.00    +0.000 HD
ENDBRANCH  27  30
ENDBRANCH  25  26
ENDBRANCH   4  25
TORSDOF 6
ENDMDL
MODEL 7
REMARK VINA RESULT:    -6.764      2.350      3.271
REMARK INTER + INTRA:         -10.169
REMARK INTER:                  -9.995
REMARK INTRA:                  -0.175
REMARK UNBOUND:                -1.033
REMARK  Name = 
REMARK  7 active torsions:
REMARK  status: ('A' for Active; 'I' for Inactive)
REMARK    1  A    between atoms: C_1  and  C_2
REMARK    2  A    between atoms: C_2  and  N_3
REMARK    3  A    between atoms: C_2  and  C_16
REMARK    4  A    between atoms: C_4  and  C_6
REMARK    5  A    between atoms: C_19  and  C_20
REMARK    6  A    between atoms: C_20  and  N_21
REMARK    7  A    between atoms: C_22  and  C_24
REMARK                            x       y       z     vdW  Elec       q    Type
REMARK                         _______ _______ _______ _____ _____    ______ ____
ROOT
ATOM      1  C   UNL     1      45.957   4.983  13.325  0.00  0.00    +0.000 A 
ATOM      2  C   UNL     1      44.868   4.105  13.194  0.00  0.00    +0.000 A 
ATOM      3  C   UNL     1      44.255   3.899  11.952  0.00  0.00    +0.000 A 
ATOM      4  C   UNL     1      44.720   4.561  10.809  0.00  0.00    +0.000 A 
ATOM      5  C   UNL     1      45.765   5.473  10.953  0.00  0.00    +0.000 A 
ATOM      6  F   UNL     1      46.211   6.149   9.883  0.00  0.00    +0.000 F 
ATOM      7  C   UNL     1      46.389   5.678  12.184  0.00  0.00    +0.000 A 
ENDROOT
BRANCH   1   9
ATOM      8  C   UNL     1      47.458   3.738  14.853  0.00  0.00    +0.000 C 
ATOM      9  C   UNL     1      46.702   5.060  14.655  0.00  0.00    +0.000 C 
BRANCH   9  10
ATOM     10  N   UNL     1      47.586   6.213  14.715  0.00  0.00    +0.000 N 
ATOM     11  C   UNL     1      48.643   6.288  15.591  0.00  0.00    +0.000 C 
ATOM     12  O   UNL     1      48.930   5.380  16.367  0.00  0.00    +0.000 OA
ATOM     13  H   UNL     1      47.198   7.093  14.387  0.00  0.00    +0.000 HD
BRANCH  11  14
ATOM     14  C   UNL     1      49.472   7.496  15.505  0.00  0.00    +0.000 A 
ATOM     15  C   UNL     1      50.389   7.625  14.468  0.00  0.00    +0.000 A 
ATOM     16  S   UNL     1      51.249   9.098  14.499  0.00  0.00    +0.000 S 
ATOM     17  C   UNL     1      50.458   9.592  15.923  0.00  0.00    +0.000 A 
ATOM     18  N   UNL     1      50.760  10.777  16.518  0.00  0.00    +0.000 NA
ATOM     19  C   UNL     1      50.109  11.007  17.609  0.00  0.00    +0.000 A 
ATOM     20  N   UNL     1      49.174  10.165  18.153  0.00  0.00    +0.000 N 
ATOM     21  C   UNL     1      48.804   8.981  17.564  0.00  0.00    +0.000 A 
ATOM     22  O   UNL     1      47.909   8.282  18.031  0.00  0.00    +0.000 OA
ATOM     23  C   UNL     1      49.530   8.660  16.351  0.00  0.00    +0.000 A 
ATOM     24  H   UNL     1      48.686  10.413  19.002  0.00  0.00    +0.000 HD
ENDBRANCH  11  14
ENDBRANCH   9  10
ENDBRANCH   1   9
BRANCH   4  25
ATOM     25  C   UNL     1      44.121   4.279   9.461  0.00  0.00    +0.000 C 
BRANCH  25  26
ATOM     26  N   UNL     1      45.113   3.861   8.500  0.00  0.00    +0.000 N 
ATOM     27  C   UNL     1      45.504   2.552   8.362  0.00  0.00    +0.000 C 
ATOM     28  O   UNL     1      45.044   1.642   9.044  0.00  0.00    +0.000 OA
ATOM     29  H   UNL     1      45.457   4.559   7.861  0.00  0.00    +0.000 HD
BRANCH  27  30
ATOM     30  C   UNL     1      46.502   2.316   7.352  0.00  0.00    +0.000 A 
ATOM     31  C   UNL     1      47.469   1.344   7.186  0.00  0.00    +0.000 A 
ATOM     32  N   UNL     1      48.195   1.550   6.041  0.00  0.00    +0.000 NA
ATOM     33  C   UNL     1      47.682   2.629   5.498  0.00  0.00    +0.000 A 
ATOM     34  N   UNL     1      46.653   3.122   6.246  0.00  0.00    +0.000 N 
ATOM     35  H   UNL     1      46.090   3.937   6.041  0.00  0.00    +0.000 HD
ENDBRANCH  27  30
ENDBRANCH  25  26
ENDBRANCH   4  25
TORSDOF 6
ENDMDL
MODEL 8
REMARK VINA RESULT:    -6.635      3.753      5.587
REMARK INTER + INTRA:          -9.996
REMARK INTER:                  -9.428
REMARK INTRA:                  -0.568
REMARK UNBOUND:                -1.033
REMARK  Name = 
REMARK  7 active torsions:
REMARK  status: ('A' for Active; 'I' for Inactive)
REMARK    1  A    between atoms: C_1  and  C_2
REMARK    2  A    between atoms: C_2  and  N_3
REMARK    3  A    between atoms: C_2  and  C_16
REMARK    4  A    between atoms: C_4  and  C_6
REMARK    5  A    between atoms: C_19  and  C_20
REMARK    6  A    between atoms: C_20  and  N_21
REMARK    7  A    between atoms: C_22  and  C_24
REMARK                            x       y       z     vdW  Elec       q    Type
REMARK                         _______ _______ _______ _____ _____    ______ ____
ROOT
ATOM      1  C   UNL     1      48.039   4.613  16.827  0.00  0.00    +0.000 A 
ATOM      2  C   UNL     1      47.168   4.182  15.812  0.00  0.00    +0.000 A 
ATOM      3  C   UNL     1      47.050   4.896  14.613  0.00  0.00    +0.000 A 
ATOM      4  C   UNL     1      47.803   6.056  14.397  0.00  0.00    +0.000 A 
ATOM      5  C   UNL     1      48.624   6.512  15.428  0.00  0.00    +0.000 A 
ATOM      6  F   UNL     1      49.333   7.639  15.266  0.00  0.00    +0.000 F 
ATOM      7  C   UNL     1      48.756   5.802  16.623  0.00  0.00    +0.000 A 
ENDROOT
BRANCH   1   9
ATOM      8  C   UNL     1      47.327   2.516  17.936  0.00  0.00    +0.000 C 
ATOM      9  C   UNL     1      48.264   3.726  18.049  0.00  0.00    +0.000 C 
BRANCH   9  10
ATOM     10  N   UNL     1      49.657   3.333  18.182  0.00  0.00    +0.000 N 
ATOM     11  C   UNL     1      50.267   2.468  17.303  0.00  0.00    +0.000 C 
ATOM     12  O   UNL     1      49.687   1.987  16.333  0.00  0.00    +0.000 OA
ATOM     13  H   UNL     1      50.053   3.394  19.116  0.00  0.00    +0.000 HD
BRANCH  11  14
ATOM     14  C   UNL     1      51.690   2.198  17.541  0.00  0.00    +0.000 A 
ATOM     15  C   UNL     1      52.135   0.883  17.611  0.00  0.00    +0.000 A 
ATOM     16  S   UNL     1      53.816   0.746  17.863  0.00  0.00    +0.000 S 
ATOM     17  C   UNL     1      53.998   2.437  17.930  0.00  0.00    +0.000 A 
ATOM     18  N   UNL     1      55.214   3.003  18.161  0.00  0.00    +0.000 NA
ATOM     19  C   UNL     1      55.198   4.293  18.221  0.00  0.00    +0.000 A 
ATOM     20  N   UNL     1      54.080   5.069  18.059  0.00  0.00    +0.000 N 
ATOM     21  C   UNL     1      52.842   4.544  17.779  0.00  0.00    +0.000 A 
ATOM     22  O   UNL     1      51.872   5.265  17.564  0.00  0.00    +0.000 OA
ATOM     23  C   UNL     1      52.798   3.096  17.734  0.00  0.00    +0.000 A 
ATOM     24  H   UNL     1      54.139   6.077  18.101  0.00  0.00    +0.000 HD
ENDBRANCH  11  14
ENDBRANCH   9  10
ENDBRANCH   1   9
BRANCH   4  25
ATOM     25  C   UNL     1      47.743   6.777  13.081  0.00  0.00    +0.000 C 
BRANCH  25  26
ATOM     26  N   UNL     1      47.056   6.011  12.071  0.00  0.00    +0.000 N 
ATOM     27  C   UNL     1      45.718   6.169  11.805  0.00  0.00    +0.000 C 
ATOM     28  O   UNL     1      45.008   6.968  12.405  0.00  0.00    +0.000 OA
ATOM     29  H   UNL     1      47.616   5.403  11.494  0.00  0.00    +0.000 HD
BRANCH  27  30
ATOM     30  C   UNL     1      45.199   5.324  10.762  0.00  0.00    +0.000 A 
ATOM     31  C   UNL     1      44.225   4.346  10.734  0.00  0.00    +0.000 A 
ATOM     32  N   UNL     1      44.087   3.811   9.478  0.00  0.00    +0.000 NA
ATOM     33  C   UNL     1      44.956   4.453   8.734  0.00  0.00    +0.000 A 
ATOM     34  N   UNL     1      45.643   5.381   9.460  0.00  0.00    +0.000 N 
ATOM     35  H   UNL     1      46.360   6.008   9.119  0.00  0.00    +0.000 HD
ENDBRANCH  27  30
ENDBRANCH  25  26
ENDBRANCH   4  25
TORSDOF 6
ENDMDL
MODEL 9
REMARK VINA RESULT:    -6.566      4.756      7.670
REMARK INTER + INTRA:          -9.903
REMARK INTER:                  -9.622
REMARK INTRA:                  -0.281
REMARK UNBOUND:                -1.033
REMARK  Name = 
REMARK  7 active torsions:
REMARK  status: ('A' for Active; 'I' for Inactive)
REMARK    1  A    between atoms: C_1  and  C_2
REMARK    2  A    between atoms: C_2  and  N_3
REMARK    3  A    between atoms: C_2  and  C_16
REMARK    4  A    between atoms: C_4  and  C_6
REMARK    5  A    between atoms: C_19  and  C_20
REMARK    6  A    between atoms: C_20  and  N_21
REMARK    7  A    between atoms: C_22  and  C_24
REMARK                            x       y       z     vdW  Elec       q    Type
REMARK                         _______ _______ _______ _____ _____    ______ ____
ROOT
ATOM      1  C   UNL     1      47.912   8.166  12.468  0.00  0.00    +0.000 A 
ATOM      2  C   UNL     1      48.886   7.153  12.456  0.00  0.00    +0.000 A 
ATOM      3  C   UNL     1      50.155   7.380  11.911  0.00  0.00    +0.000 A 
ATOM      4  C   UNL     1      50.485   8.628  11.370  0.00  0.00    +0.000 A 
ATOM      5  C   UNL     1      49.500   9.614  11.332  0.00  0.00    +0.000 A 
ATOM      6  F   UNL     1      49.774  10.809  10.788  0.00  0.00    +0.000 F 
ATOM      7  C   UNL     1      48.234   9.400  11.882  0.00  0.00    +0.000 A 
ENDROOT
BRANCH   1   9
ATOM      8  C   UNL     1      45.671   9.123  12.913  0.00  0.00    +0.000 C 
ATOM      9  C   UNL     1      46.599   7.937  13.213  0.00  0.00    +0.000 C 
BRANCH   9  10
ATOM     10  N   UNL     1      45.994   6.663  12.864  0.00  0.00    +0.000 N 
ATOM     11  C   UNL     1      45.155   6.516  11.784  0.00  0.00    +0.000 C 
ATOM     12  O   UNL     1      44.878   7.442  11.026  0.00  0.00    +0.000 OA
ATOM     13  H   UNL     1      45.890   5.993  13.621  0.00  0.00    +0.000 HD
BRANCH  11  14
ATOM     14  C   UNL     1      44.655   5.159  11.531  0.00  0.00    +0.000 A 
ATOM     15  C   UNL     1      43.908   4.511  12.507  0.00  0.00    +0.000 A 
ATOM     16  S   UNL     1      43.381   2.957  12.043  0.00  0.00    +0.000 S 
ATOM     17  C   UNL     1      44.170   3.080  10.539  0.00  0.00    +0.000 A 
ATOM     18  N   UNL     1      44.146   2.053   9.648  0.00  0.00    +0.000 NA
ATOM     19  C   UNL     1      44.815   2.271   8.566  0.00  0.00    +0.000 A 
ATOM     20  N   UNL     1      45.497   3.427   8.288  0.00  0.00    +0.000 N 
ATOM     21  C   UNL     1      45.512   4.507   9.137  0.00  0.00    +0.000 A 
ATOM     22  O   UNL     1      46.067   5.558   8.831  0.00  0.00    +0.000 OA
ATOM     23  C   UNL     1      44.801   4.302  10.383  0.00  0.00    +0.000 A 
ATOM     24  H   UNL     1      45.988   3.541   7.412  0.00  0.00    +0.000 HD
ENDBRANCH  11  14
ENDBRANCH   9  10
ENDBRANCH   1   9
BRANCH   4  25
ATOM     25  C   UNL     1      51.872   8.902  10.862  0.00  0.00    +0.000 C 
BRANCH  25  26
ATOM     26  N   UNL     1      52.198   8.099   9.708  0.00  0.00    +0.000 N 
ATOM     27  C   UNL     1      53.150   7.109   9.742  0.00  0.00    +0.000 C 
ATOM     28  O   UNL     1      53.793   6.835  10.749  0.00  0.00    +0.000 OA
ATOM     29  H   UNL     1      51.637   8.230   8.883  0.00  0.00    +0.000 HD
BRANCH  27  30
ATOM     30  C   UNL     1      53.342   6.406   8.501  0.00  0.00    +0.000 A 
ATOM     31  C   UNL     1      53.268   6.788   7.176  0.00  0.00    +0.000 A 
ATOM     32  N   UNL     1      53.539   5.739   6.336  0.00  0.00    +0.000 NA
ATOM     33  C   UNL     1      53.788   4.721   7.125  0.00  0.00    +0.000 A 
ATOM     34  N   UNL     1      53.691   5.076   8.439  0.00  0.00    +0.000 N 
ATOM     35  H   UNL     1      53.842   4.478   9.241  0.00  0.00    +0.000 HD
ENDBRANCH  27  30
ENDBRANCH  25  26
ENDBRANCH   4  25
TORSDOF 6
ENDMDL
