MODEL 1
REMARK VINA RESULT:    -7.910      0.000      0.000
REMARK INTER + INTRA:         -11.892
REMARK INTER:                 -10.916
REMARK INTRA:                  -0.976
REMARK UNBOUND:                -0.976
REMARK  Name = 
REMARK  7 active torsions:
REMARK  status: ('A' for Active; 'I' for Inactive)
REMARK    1  A    between atoms: N_1  and  C_2
REMARK    2  A    between atoms: C_2  and  C_3
REMARK    3  A    between atoms: C_6  and  C_7
REMARK    4  A    between atoms: C_7  and  C_8
REMARK    5  A    between atoms: C_11  and  C_12
REMARK    6  A    between atoms: C_12  and  N_13
REMARK    7  A    between atoms: C_14  and  C_16
REMARK                            x       y       z     vdW  Elec       q    Type
REMARK                         _______ _______ _______ _____ _____    ______ ____
ROOT
ATOM      1  C   UNL     1      44.711   3.684   8.792  0.00  0.00    +0.000 A 
ATOM      2  C   UNL     1      44.183   2.683   9.612  0.00  0.00    +0.000 A 
ATOM      3  C   UNL     1      43.933   2.920  10.965  0.00  0.00    +0.000 A 
ATOM      4  C   UNL     1      44.219   4.169  11.530  0.00  0.00    +0.000 A 
ATOM      5  C   UNL     1      44.794   5.158  10.720  0.00  0.00    +0.000 A 
ATOM      6  C   UNL     1      45.024   4.924   9.360  0.00  0.00    +0.000 A 
ENDROOT
BRANCH   1   7
ATOM      7  C   UNL     1      44.999   3.400   7.337  0.00  0.00    +0.000 C 
BRANCH   7  11
ATOM      8  C   UNL     1      47.814   1.608   6.789  0.00  0.00    +0.000 C 
ATOM      9  C   UNL     1      47.924   2.287   5.425  0.00  0.00    +0.000 C 
ATOM     10  C   UNL     1      46.746   3.263   5.387  0.00  0.00    +0.000 C 
ATOM     11  C   UNL     1      46.441   3.644   6.849  0.00  0.00    +0.000 C 
ATOM     12  C   UNL     1      47.427   2.795   7.678  0.00  0.00    +0.000 C 
BRANCH   8  13
ATOM     13  C   UNL     1      46.816   0.438   6.717  0.00  0.00    +0.000 C 
BRANCH  13  14
ATOM     14  N   UNL     1      46.868  -0.440   7.879  0.00  0.00    +0.000 NA
ATOM     15  H   UNL     1      46.937   0.131   8.721  0.00  0.00    +0.000 HD
ATOM     16  H   UNL     1      47.724  -0.994   7.855  0.00  0.00    +0.000 HD
ENDBRANCH  13  14
ENDBRANCH   8  13
ENDBRANCH   7  11
ENDBRANCH   1   7
BRANCH   4  17
ATOM     17  C   UNL     1      43.953   4.424  12.989  0.00  0.00    +0.000 C 
BRANCH  17  18
ATOM     18  N   UNL     1      45.053   5.116  13.611  0.00  0.00    +0.000 N 
ATOM     19  C   UNL     1      46.216   4.462  13.924  0.00  0.00    +0.000 C 
ATOM     20  O   UNL     1      46.384   3.273  13.655  0.00  0.00    +0.000 OA
ATOM     21  H   UNL     1      44.854   6.021  14.026  0.00  0.00    +0.000 HD
BRANCH  19  22
ATOM     22  C   UNL     1      47.278   5.262  14.542  0.00  0.00    +0.000 A 
ATOM     23  C   UNL     1      47.909   6.253  13.800  0.00  0.00    +0.000 A 
ATOM     24  S   UNL     1      49.087   7.120  14.675  0.00  0.00    +0.000 S 
ATOM     25  C   UNL     1      48.834   6.168  16.062  0.00  0.00    +0.000 A 
ATOM     26  N   UNL     1      49.565   6.374  17.191  0.00  0.00    +0.000 NA
ATOM     27  C   UNL     1      49.294   5.557  18.155  0.00  0.00    +0.000 A 
ATOM     28  N   UNL     1      48.352   4.564  18.097  0.00  0.00    +0.000 N 
ATOM     29  C   UNL     1      47.568   4.339  16.990  0.00  0.00    +0.000 A 
ATOM     30  O   UNL     1      46.706   3.472  16.987  0.00  0.00    +0.000 OA
ATOM     31  C   UNL     1      47.847   5.218  15.869  0.00  0.00    +0.000 A 
ATOM     32  H   UNL     1      48.178   3.968  18.892  0.00  0.00    +0.000 HD
ENDBRANCH  19  22
ENDBRANCH  17  18
ENDBRANCH   4  17
TORSDOF 7
ENDMDL
MODEL 2
REMARK VINA RESULT:    -7.729      1.640      2.521
REMARK INTER + INTRA:         -11.641
REMARK INTER:                 -10.376
REMARK INTRA:                  -1.265
REMARK UNBOUND:                -0.976
REMARK  Name = 
REMARK  7 active torsions:
REMARK  status: ('A' for Active; 'I' for Inactive)
REMARK    1  A    between atoms: N_1  and  C_2
REMARK    2  A    between atoms: C_2  and  C_3
REMARK    3  A    between atoms: C_6  and  C_7
REMARK    4  A    between atoms: C_7  and  C_8
REMARK    5  A    between atoms: C_11  and  C_12
REMARK    6  A    between atoms: C_12  and  N_13
REMARK    7  A    between atoms: C_14  and  C_16
REMARK                            x       y       z     vdW  Elec       q    Type
REMARK                         _______ _______ _______ _____ _____    ______ ____
ROOT
ATOM      1  C   UNL     1      44.783   3.703   8.809  0.00  0.00    +0.000 A 
ATOM      2  C   UNL     1      44.401   2.678   9.680  0.00  0.00    +0.000 A 
ATOM      3  C   UNL     1      44.232   2.921  11.044  0.00  0.00    +0.000 A 
ATOM      4  C   UNL     1      44.453   4.200  11.569  0.00  0.00    +0.000 A 
ATOM      5  C   UNL     1      44.883   5.217  10.705  0.00  0.00    +0.000 A 
ATOM      6  C   UNL     1      45.033   4.976   9.335  0.00  0.00    +0.000 A 
ENDROOT
BRANCH   1   7
ATOM      7  C   UNL     1      44.986   3.415   7.341  0.00  0.00    +0.000 C 
BRANCH   7  11
ATOM      8  C   UNL     1      47.796   1.612   6.797  0.00  0.00    +0.000 C 
ATOM      9  C   UNL     1      47.840   2.194   5.386  0.00  0.00    +0.000 C 
ATOM     10  C   UNL     1      46.650   3.156   5.330  0.00  0.00    +0.000 C 
ATOM     11  C   UNL     1      46.403   3.636   6.775  0.00  0.00    +0.000 C 
ATOM     12  C   UNL     1      47.433   2.855   7.618  0.00  0.00    +0.000 C 
BRANCH   8  13
ATOM     13  C   UNL     1      46.808   0.431   6.850  0.00  0.00    +0.000 C 
BRANCH  13  14
ATOM     14  N   UNL     1      47.101  -0.520   7.915  0.00  0.00    +0.000 NA
ATOM     15  H   UNL     1      46.577  -1.378   7.743  0.00  0.00    +0.000 HD
ATOM     16  H   UNL     1      46.753  -0.161   8.804  0.00  0.00    +0.000 HD
ENDBRANCH  13  14
ENDBRANCH   8  13
ENDBRANCH   7  11
ENDBRANCH   1   7
BRANCH   4  17
ATOM     17  C   UNL     1      44.275   4.461  13.040  0.00  0.00    +0.000 C 
BRANCH  17  18
ATOM     18  N   UNL     1      45.366   5.236  13.573  0.00  0.00    +0.000 N 
ATOM     19  C   UNL     1      46.516   4.633  14.009  0.00  0.00    +0.000 C 
ATOM     20  O   UNL     1      46.682   3.416  13.928  0.00  0.00    +0.000 OA
ATOM     21  H   UNL     1      45.165   6.195  13.841  0.00  0.00    +0.000 HD
BRANCH  19  22
ATOM     22  C   UNL     1      47.571   5.514  14.520  0.00  0.00    +0.000 A 
ATOM     23  C   UNL     1      47.991   5.386  15.838  0.00  0.00    +0.000 A 
ATOM     24  S   UNL     1      49.252   6.451  16.263  0.00  0.00    +0.000 S 
ATOM     25  C   UNL     1      49.248   7.158  14.716  0.00  0.00    +0.000 A 
ATOM     26  N   UNL     1      50.091   8.182  14.415  0.00  0.00    +0.000 NA
ATOM     27  C   UNL     1      49.957   8.646  13.217  0.00  0.00    +0.000 A 
ATOM     28  N   UNL     1      49.068   8.172  12.290  0.00  0.00    +0.000 N 
ATOM     29  C   UNL     1      48.219   7.119  12.537  0.00  0.00    +0.000 A 
ATOM     30  O   UNL     1      47.467   6.692  11.672  0.00  0.00    +0.000 OA
ATOM     31  C   UNL     1      48.315   6.573  13.878  0.00  0.00    +0.000 A 
ATOM     32  H   UNL     1      49.022   8.571  11.364  0.00  0.00    +0.000 HD
ENDBRANCH  19  22
ENDBRANCH  17  18
ENDBRANCH   4  17
TORSDOF 7
ENDMDL
MODEL 3
REMARK VINA RESULT:    -7.131      3.691      6.489
REMARK INTER + INTRA:         -10.817
REMARK INTER:                  -9.731
REMARK INTRA:                  -1.086
REMARK UNBOUND:                -0.976
REMARK  Name = 
REMARK  7 active torsions:
REMARK  status: ('A' for Active; 'I' for Inactive)
REMARK    1  A    between atoms: N_1  and  C_2
REMARK    2  A    between atoms: C_2  and  C_3
REMARK    3  A    between atoms: C_6  and  C_7
REMARK    4  A    between atoms: C_7  and  C_8
REMARK    5  A    between atoms: C_11  and  C_12
REMARK    6  A    between atoms: C_12  and  N_13
REMARK    7  A    between atoms: C_14  and  C_16
REMARK                            x       y       z     vdW  Elec       q    Type
REMARK                         _______ _______ _______ _____ _____    ______ ____
ROOT
ATOM      1  C   UNL     1      47.084   5.089  14.091  0.00  0.00    +0.000 A 
ATOM      2  C   UNL     1      47.815   6.276  13.996  0.00  0.00    +0.000 A 
ATOM      3  C   UNL     1      48.586   6.733  15.066  0.00  0.00    +0.000 A 
ATOM      4  C   UNL     1      48.632   6.011  16.265  0.00  0.00    +0.000 A 
ATOM      5  C   UNL     1      47.860   4.846  16.380  0.00  0.00    +0.000 A 
ATOM      6  C   UNL     1      47.104   4.380  15.298  0.00  0.00    +0.000 A 
ENDROOT
BRANCH   1   7
ATOM      7  C   UNL     1      46.235   4.625  12.932  0.00  0.00    +0.000 C 
BRANCH   7  11
ATOM      8  C   UNL     1      43.763   4.664  10.624  0.00  0.00    +0.000 C 
ATOM      9  C   UNL     1      42.817   5.164  11.714  0.00  0.00    +0.000 C 
ATOM     10  C   UNL     1      43.704   5.311  12.953  0.00  0.00    +0.000 C 
ATOM     11  C   UNL     1      45.133   5.586  12.443  0.00  0.00    +0.000 C 
ATOM     12  C   UNL     1      45.011   5.508  10.907  0.00  0.00    +0.000 C 
BRANCH   8  13
ATOM     13  C   UNL     1      43.920   3.135  10.722  0.00  0.00    +0.000 C 
BRANCH  13  14
ATOM     14  N   UNL     1      42.875   2.496  11.512  0.00  0.00    +0.000 NA
ATOM     15  H   UNL     1      43.304   1.806  12.128  0.00  0.00    +0.000 HD
ATOM     16  H   UNL     1      42.255   1.966  10.899  0.00  0.00    +0.000 HD
ENDBRANCH  13  14
ENDBRANCH   8  13
ENDBRANCH   7  11
ENDBRANCH   1   7
BRANCH   4  17
ATOM     17  C   UNL     1      49.459   6.505  17.421  0.00  0.00    +0.000 C 
BRANCH  17  18
ATOM     18  N   UNL     1      50.404   5.508  17.856  0.00  0.00    +0.000 N 
ATOM     19  C   UNL     1      51.650   5.420  17.294  0.00  0.00    +0.000 C 
ATOM     20  O   UNL     1      52.028   6.207  16.427  0.00  0.00    +0.000 OA
ATOM     21  H   UNL     1      50.040   4.734  18.403  0.00  0.00    +0.000 HD
BRANCH  19  22
ATOM     22  C   UNL     1      52.540   4.379  17.819  0.00  0.00    +0.000 A 
ATOM     23  C   UNL     1      53.759   4.739  18.379  0.00  0.00    +0.000 A 
ATOM     24  S   UNL     1      54.652   3.418  18.983  0.00  0.00    +0.000 S 
ATOM     25  C   UNL     1      53.466   2.313  18.470  0.00  0.00    +0.000 A 
ATOM     26  N   UNL     1      53.632   0.976  18.658  0.00  0.00    +0.000 NA
ATOM     27  C   UNL     1      52.672   0.250  18.190  0.00  0.00    +0.000 A 
ATOM     28  N   UNL     1      51.556   0.740  17.563  0.00  0.00    +0.000 N 
ATOM     29  C   UNL     1      51.330   2.083  17.378  0.00  0.00    +0.000 A 
ATOM     30  O   UNL     1      50.303   2.489  16.853  0.00  0.00    +0.000 OA
ATOM     31  C   UNL     1      52.391   2.943  17.870  0.00  0.00    +0.000 A 
ATOM     32  H   UNL     1      50.834   0.119  17.231  0.00  0.00    +0.000 HD
ENDBRANCH  19  22
ENDBRANCH  17  18
ENDBRANCH   4  17
TORSDOF 7
ENDMDL
MODEL 4
REMARK VINA RESULT:    -6.864      4.312      9.843
REMARK INTER + INTRA:         -10.448
REMARK INTER:                  -9.386
REMARK INTRA:                  -1.062
REMARK UNBOUND:                -0.976
REMARK  Name = 
REMARK  7 active torsions:
REMARK  status: ('A' for Active; 'I' for Inactive)
REMARK    1  A    between atoms: N_1  and  C_2
REMARK    2  A    between atoms: C_2  and  C_3
REMARK    3  A    between atoms: C_6  and  C_7
REMARK    4  A    between atoms: C_7  and  C_8
REMARK    5  A    between atoms: C_11  and  C_12
REMARK    6  A    between atoms: C_12  and  N_13
REMARK    7  A    between atoms: C_14  and  C_16
REMARK                            x       y       z     vdW  Elec       q    Type
REMARK                         _______ _______ _______ _____ _____    ______ ____
ROOT
ATOM      1  C   UNL     1      51.428   4.062  17.624  0.00  0.00    +0.000 A 
ATOM      2  C   UNL     1      50.920   2.770  17.457  0.00  0.00    +0.000 A 
ATOM      3  C   UNL     1      49.568   2.560  17.177  0.00  0.00    +0.000 A 
ATOM      4  C   UNL     1      48.690   3.646  17.069  0.00  0.00    +0.000 A 
ATOM      5  C   UNL     1      49.188   4.938  17.284  0.00  0.00    +0.000 A 
ATOM      6  C   UNL     1      50.547   5.147  17.545  0.00  0.00    +0.000 A 
ENDROOT
BRANCH   1   7
ATOM      7  C   UNL     1      52.886   4.267  17.953  0.00  0.00    +0.000 C 
BRANCH   7  11
ATOM      8  C   UNL     1      54.504   3.523  20.829  0.00  0.00    +0.000 C 
ATOM      9  C   UNL     1      55.227   4.864  20.714  0.00  0.00    +0.000 C 
ATOM     10  C   UNL     1      54.637   5.511  19.458  0.00  0.00    +0.000 C 
ATOM     11  C   UNL     1      53.212   4.946  19.299  0.00  0.00    +0.000 C 
ATOM     12  C   UNL     1      53.074   3.927  20.448  0.00  0.00    +0.000 C 
BRANCH   8  13
ATOM     13  C   UNL     1      55.191   2.474  19.936  0.00  0.00    +0.000 C 
BRANCH  13  14
ATOM     14  N   UNL     1      54.305   1.392  19.527  0.00  0.00    +0.000 NA
ATOM     15  H   UNL     1      54.595   0.534  19.994  0.00  0.00    +0.000 HD
ATOM     16  H   UNL     1      54.418   1.212  18.529  0.00  0.00    +0.000 HD
ENDBRANCH  13  14
ENDBRANCH   8  13
ENDBRANCH   7  11
ENDBRANCH   1   7
BRANCH   4  17
ATOM     17  C   UNL     1      47.233   3.419  16.770  0.00  0.00    +0.000 C 
BRANCH  17  18
ATOM     18  N   UNL     1      46.739   4.372  15.810  0.00  0.00    +0.000 N 
ATOM     19  C   UNL     1      46.777   4.108  14.466  0.00  0.00    +0.000 C 
ATOM     20  O   UNL     1      47.198   3.039  14.026  0.00  0.00    +0.000 OA
ATOM     21  H   UNL     1      46.593   5.323  16.134  0.00  0.00    +0.000 HD
BRANCH  19  22
ATOM     22  C   UNL     1      46.235   5.139  13.574  0.00  0.00    +0.000 A 
ATOM     23  C   UNL     1      46.970   6.293  13.335  0.00  0.00    +0.000 A 
ATOM     24  S   UNL     1      46.222   7.368  12.243  0.00  0.00    +0.000 S 
ATOM     25  C   UNL     1      44.865   6.354  12.091  0.00  0.00    +0.000 A 
ATOM     26  N   UNL     1      43.813   6.711  11.306  0.00  0.00    +0.000 NA
ATOM     27  C   UNL     1      42.836   5.866  11.310  0.00  0.00    +0.000 A 
ATOM     28  N   UNL     1      42.822   4.691  12.016  0.00  0.00    +0.000 N 
ATOM     29  C   UNL     1      43.874   4.274  12.796  0.00  0.00    +0.000 A 
ATOM     30  O   UNL     1      43.846   3.199  13.379  0.00  0.00    +0.000 OA
ATOM     31  C   UNL     1      44.991   5.199  12.842  0.00  0.00    +0.000 A 
ATOM     32  H   UNL     1      42.031   4.066  11.965  0.00  0.00    +0.000 HD
ENDBRANCH  19  22
ENDBRANCH  17  18
ENDBRANCH   4  17
TORSDOF 7
ENDMDL
MODEL 5
REMARK VINA RESULT:    -6.718      3.697      5.644
REMARK INTER + INTRA:         -10.247
REMARK INTER:                  -9.065
REMARK INTRA:                  -1.182
REMARK UNBOUND:                -0.976
REMARK  Name = 
REMARK  7 active torsions:
REMARK  status: ('A' for Active; 'I' for Inactive)
REMARK    1  A    between atoms: N_1  and  C_2
REMARK    2  A    between atoms: C_2  and  C_3
REMARK    3  A    between atoms: C_6  and  C_7
REMARK    4  A    between atoms: C_7  and  C_8
REMARK    5  A    between atoms: C_11  and  C_12
REMARK    6  A    between atoms: C_12  and  N_13
REMARK    7  A    between atoms: C_14  and  C_16
REMARK                            x       y       z     vdW  Elec       q    Type
REMARK                         _______ _______ _______ _____ _____    ______ ____
ROOT
ATOM      1  C   UNL     1      46.813   6.361  12.262  0.00  0.00    +0.000 A 
ATOM      2  C   UNL     1      47.145   5.481  13.296  0.00  0.00    +0.000 A 
ATOM      3  C   UNL     1      47.859   5.921  14.412  0.00  0.00    +0.000 A 
ATOM      4  C   UNL     1      48.267   7.257  14.511  0.00  0.00    +0.000 A 
ATOM      5  C   UNL     1      47.978   8.129  13.452  0.00  0.00    +0.000 A 
ATOM      6  C   UNL     1      47.244   7.690  12.344  0.00  0.00    +0.000 A 
ENDROOT
BRANCH   1   7
ATOM      7  C   UNL     1      46.064   5.861  11.051  0.00  0.00    +0.000 C 
BRANCH   7  11
ATOM      8  C   UNL     1      43.195   4.083  11.279  0.00  0.00    +0.000 C 
ATOM      9  C   UNL     1      42.693   5.112  12.290  0.00  0.00    +0.000 C 
ATOM     10  C   UNL     1      43.816   6.149  12.372  0.00  0.00    +0.000 C 
ATOM     11  C   UNL     1      44.544   6.119  11.013  0.00  0.00    +0.000 C 
ATOM     12  C   UNL     1      43.839   4.994  10.227  0.00  0.00    +0.000 C 
BRANCH   8  13
ATOM     13  C   UNL     1      44.116   3.065  11.975  0.00  0.00    +0.000 C 
BRANCH  13  14
ATOM     14  N   UNL     1      43.414   1.878  12.448  0.00  0.00    +0.000 NA
ATOM     15  H   UNL     1      42.678   2.165  13.091  0.00  0.00    +0.000 HD
ATOM     16  H   UNL     1      44.048   1.299  12.999  0.00  0.00    +0.000 HD
ENDBRANCH  13  14
ENDBRANCH   8  13
ENDBRANCH   7  11
ENDBRANCH   1   7
BRANCH   4  17
ATOM     17  C   UNL     1      49.040   7.730  15.712  0.00  0.00    +0.000 C 
BRANCH  17  18
ATOM     18  N   UNL     1      50.054   6.781  16.093  0.00  0.00    +0.000 N 
ATOM     19  C   UNL     1      50.026   6.168  17.318  0.00  0.00    +0.000 C 
ATOM     20  O   UNL     1      49.120   6.371  18.124  0.00  0.00    +0.000 OA
ATOM     21  H   UNL     1      50.905   6.766  15.539  0.00  0.00    +0.000 HD
BRANCH  19  22
ATOM     22  C   UNL     1      51.097   5.207  17.601  0.00  0.00    +0.000 A 
ATOM     23  C   UNL     1      52.339   5.669  18.019  0.00  0.00    +0.000 A 
ATOM     24  S   UNL     1      53.457   4.425  18.348  0.00  0.00    +0.000 S 
ATOM     25  C   UNL     1      52.340   3.226  17.894  0.00  0.00    +0.000 A 
ATOM     26  N   UNL     1      52.683   1.910  17.915  0.00  0.00    +0.000 NA
ATOM     27  C   UNL     1      51.751   1.112  17.513  0.00  0.00    +0.000 A 
ATOM     28  N   UNL     1      50.505   1.508  17.103  0.00  0.00    +0.000 N 
ATOM     29  C   UNL     1      50.103   2.823  17.094  0.00  0.00    +0.000 A 
ATOM     30  O   UNL     1      48.968   3.138  16.764  0.00  0.00    +0.000 OA
ATOM     31  C   UNL     1      51.122   3.765  17.520  0.00  0.00    +0.000 A 
ATOM     32  H   UNL     1      49.816   0.831  16.813  0.00  0.00    +0.000 HD
ENDBRANCH  19  22
ENDBRANCH  17  18
ENDBRANCH   4  17
TORSDOF 7
ENDMDL
MODEL 6
REMARK VINA RESULT:    -6.717      3.273      8.491
REMARK INTER + INTRA:         -10.245
REMARK INTER:                  -9.377
REMARK INTRA:                  -0.867
REMARK UNBOUND:                -0.976
REMARK  Name = 
REMARK  7 active torsions:
REMARK  status: ('A' for Active; 'I' for Inactive)
REMARK    1  A    between atoms: N_1  and  C_2
REMARK    2  A    between atoms: C_2  and  C_3
REMARK    3  A    between atoms: C_6  and  C_7
REMARK    4  A    between atoms: C_7  and  C_8
REMARK    5  A    between atoms: C_11  and  C_12
REMARK    6  A    between atoms: C_12  and  N_13
REMARK    7  A    between atoms: C_14  and  C_16
REMARK                            x       y       z     vdW  Elec       q    Type
REMARK                         _______ _______ _______ _____ _____    ______ ____
ROOT
ATOM      1  C   UNL     1      48.880   6.843  16.670  0.00  0.00    +0.000 A 
ATOM      2  C   UNL     1      48.146   5.983  15.847  0.00  0.00    +0.000 A 
ATOM      3  C   UNL     1      48.005   6.242  14.482  0.00  0.00    +0.000 A 
ATOM      4  C   UNL     1      48.590   7.378  13.912  0.00  0.00    +0.000 A 
ATOM      5  C   UNL     1      49.285   8.267  14.744  0.00  0.00    +0.000 A 
ATOM      6  C   UNL     1      49.442   7.995  16.108  0.00  0.00    +0.000 A 
ENDROOT
BRANCH   1   7
ATOM      7  C   UNL     1      49.000   6.561  18.147  0.00  0.00    +0.000 C 
BRANCH   7  11
ATOM      8  C   UNL     1      49.136   3.183  18.258  0.00  0.00    +0.000 C 
ATOM      9  C   UNL     1      50.505   3.263  17.586  0.00  0.00    +0.000 C 
ATOM     10  C   UNL     1      50.773   4.763  17.439  0.00  0.00    +0.000 C 
ATOM     11  C   UNL     1      49.996   5.463  18.572  0.00  0.00    +0.000 C 
ATOM     12  C   UNL     1      49.244   4.319  19.283  0.00  0.00    +0.000 C 
BRANCH   8  13
ATOM     13  C   UNL     1      48.022   3.303  17.202  0.00  0.00    +0.000 C 
BRANCH  13  14
ATOM     14  N   UNL     1      46.692   3.029  17.731  0.00  0.00    +0.000 NA
ATOM     15  H   UNL     1      46.116   2.637  16.987  0.00  0.00    +0.000 HD
ATOM     16  H   UNL     1      46.238   3.904  17.995  0.00  0.00    +0.000 HD
ENDBRANCH  13  14
ENDBRANCH   8  13
ENDBRANCH   7  11
ENDBRANCH   1   7
BRANCH   4  17
ATOM     17  C   UNL     1      48.435   7.659  12.442  0.00  0.00    +0.000 C 
BRANCH  17  18
ATOM     18  N   UNL     1      47.689   6.617  11.784  0.00  0.00    +0.000 N 
ATOM     19  C   UNL     1      46.366   6.784  11.470  0.00  0.00    +0.000 C 
ATOM     20  O   UNL     1      45.772   7.836  11.701  0.00  0.00    +0.000 OA
ATOM     21  H   UNL     1      48.095   5.687  11.782  0.00  0.00    +0.000 HD
BRANCH  19  22
ATOM     22  C   UNL     1      45.702   5.668  10.788  0.00  0.00    +0.000 A 
ATOM     23  C   UNL     1      45.804   5.552   9.407  0.00  0.00    +0.000 A 
ATOM     24  S   UNL     1      45.016   4.178   8.775  0.00  0.00    +0.000 S 
ATOM     25  C   UNL     1      44.466   3.717  10.318  0.00  0.00    +0.000 A 
ATOM     26  N   UNL     1      43.688   2.613  10.479  0.00  0.00    +0.000 NA
ATOM     27  C   UNL     1      43.314   2.401  11.697  0.00  0.00    +0.000 A 
ATOM     28  N   UNL     1      43.656   3.183  12.768  0.00  0.00    +0.000 N 
ATOM     29  C   UNL     1      44.465   4.290  12.659  0.00  0.00    +0.000 A 
ATOM     30  O   UNL     1      44.788   4.942  13.642  0.00  0.00    +0.000 OA
ATOM     31  C   UNL     1      44.899   4.585  11.305  0.00  0.00    +0.000 A 
ATOM     32  H   UNL     1      43.341   2.955  13.699  0.00  0.00    +0.000 HD
ENDBRANCH  19  22
ENDBRANCH  17  18
ENDBRANCH   4  17
TORSDOF 7
ENDMDL
MODEL 7
REMARK VINA RESULT:    -6.682      3.071      9.646
REMARK INTER + INTRA:         -10.196
REMARK INTER:                  -8.897
REMARK INTRA:                  -1.300
REMARK UNBOUND:                -0.976
REMARK  Name = 
REMARK  7 active torsions:
REMARK  status: ('A' for Active; 'I' for Inactive)
REMARK    1  A    between atoms: N_1  and  C_2
REMARK    2  A    between atoms: C_2  and  C_3
REMARK    3  A    between atoms: C_6  and  C_7
REMARK    4  A    between atoms: C_7  and  C_8
REMARK    5  A    between atoms: C_11  and  C_12
REMARK    6  A    between atoms: C_12  and  N_13
REMARK    7  A    between atoms: C_14  and  C_16
REMARK                            x       y       z     vdW  Elec       q    Type
REMARK                         _______ _______ _______ _____ _____    ______ ____
ROOT
ATOM      1  C   UNL     1      49.118   7.801  16.057  0.00  0.00    +0.000 A 
ATOM      2  C   UNL     1      48.955   8.992  15.342  0.00  0.00    +0.000 A 
ATOM      3  C   UNL     1      48.362   8.996  14.078  0.00  0.00    +0.000 A 
ATOM      4  C   UNL     1      47.926   7.800  13.496  0.00  0.00    +0.000 A 
ATOM      5  C   UNL     1      48.133   6.599  14.190  0.00  0.00    +0.000 A 
ATOM      6  C   UNL     1      48.710   6.600  15.465  0.00  0.00    +0.000 A 
ENDROOT
BRANCH   1   7
ATOM      7  C   UNL     1      49.785   7.813  17.410  0.00  0.00    +0.000 C 
BRANCH   7  11
ATOM      8  C   UNL     1      47.276   7.307  19.621  0.00  0.00    +0.000 C 
ATOM      9  C   UNL     1      48.196   7.843  20.716  0.00  0.00    +0.000 C 
ATOM     10  C   UNL     1      49.479   8.235  19.981  0.00  0.00    +0.000 C 
ATOM     11  C   UNL     1      49.070   8.587  18.536  0.00  0.00    +0.000 C 
ATOM     12  C   UNL     1      47.555   8.303  18.488  0.00  0.00    +0.000 C 
BRANCH   8  13
ATOM     13  C   UNL     1      47.595   5.827  19.340  0.00  0.00    +0.000 C 
BRANCH  13  14
ATOM     14  N   UNL     1      46.655   5.197  18.421  0.00  0.00    +0.000 NA
ATOM     15  H   UNL     1      47.069   5.177  17.489  0.00  0.00    +0.000 HD
ATOM     16  H   UNL     1      45.817   5.772  18.336  0.00  0.00    +0.000 HD
ENDBRANCH  13  14
ENDBRANCH   8  13
ENDBRANCH   7  11
ENDBRANCH   1   7
BRANCH   4  17
ATOM     17  C   UNL     1      47.290   7.804  12.132  0.00  0.00    +0.000 C 
BRANCH  17  18
ATOM     18  N   UNL     1      46.674   6.536  11.836  0.00  0.00    +0.000 N 
ATOM     19  C   UNL     1      45.311   6.406  11.783  0.00  0.00    +0.000 C 
ATOM     20  O   UNL     1      44.561   7.367  11.949  0.00  0.00    +0.000 OA
ATOM     21  H   UNL     1      47.258   5.709  11.909  0.00  0.00    +0.000 HD
BRANCH  19  22
ATOM     22  C   UNL     1      44.786   5.076  11.459  0.00  0.00    +0.000 A 
ATOM     23  C   UNL     1      44.055   4.377  12.411  0.00  0.00    +0.000 A 
ATOM     24  S   UNL     1      43.479   2.869  11.862  0.00  0.00    +0.000 S 
ATOM     25  C   UNL     1      44.230   3.072  10.350  0.00  0.00    +0.000 A 
ATOM     26  N   UNL     1      44.151   2.104   9.398  0.00  0.00    +0.000 NA
ATOM     27  C   UNL     1      44.796   2.374   8.311  0.00  0.00    +0.000 A 
ATOM     28  N   UNL     1      45.501   3.527   8.087  0.00  0.00    +0.000 N 
ATOM     29  C   UNL     1      45.583   4.546   9.006  0.00  0.00    +0.000 A 
ATOM     30  O   UNL     1      46.184   5.582   8.757  0.00  0.00    +0.000 OA
ATOM     31  C   UNL     1      44.890   4.285  10.255  0.00  0.00    +0.000 A 
ATOM     32  H   UNL     1      45.973   3.683   7.209  0.00  0.00    +0.000 HD
ENDBRANCH  19  22
ENDBRANCH  17  18
ENDBRANCH   4  17
TORSDOF 7
ENDMDL
MODEL 8
REMARK VINA RESULT:    -6.531      3.334      5.148
REMARK INTER + INTRA:          -9.989
REMARK INTER:                  -8.563
REMARK INTRA:                  -1.426
REMARK UNBOUND:                -0.976
REMARK  Name = 
REMARK  7 active torsions:
REMARK  status: ('A' for Active; 'I' for Inactive)
REMARK    1  A    between atoms: N_1  and  C_2
REMARK    2  A    between atoms: C_2  and  C_3
REMARK    3  A    between atoms: C_6  and  C_7
REMARK    4  A    between atoms: C_7  and  C_8
REMARK    5  A    between atoms: C_11  and  C_12
REMARK    6  A    between atoms: C_12  and  N_13
REMARK    7  A    between atoms: C_14  and  C_16
REMARK                            x       y       z     vdW  Elec       q    Type
REMARK                         _______ _______ _______ _____ _____    ______ ____
ROOT
ATOM      1  C   UNL     1      46.170   6.794  11.411  0.00  0.00    +0.000 A 
ATOM      2  C   UNL     1      45.381   7.710  12.112  0.00  0.00    +0.000 A 
ATOM      3  C   UNL     1      45.924   8.494  13.132  0.00  0.00    +0.000 A 
ATOM      4  C   UNL     1      47.274   8.369  13.479  0.00  0.00    +0.000 A 
ATOM      5  C   UNL     1      48.056   7.417  12.810  0.00  0.00    +0.000 A 
ATOM      6  C   UNL     1      47.514   6.646  11.775  0.00  0.00    +0.000 A 
ENDROOT
BRANCH   1   7
ATOM      7  C   UNL     1      45.559   5.936  10.330  0.00  0.00    +0.000 C 
BRANCH   7  11
ATOM      8  C   UNL     1      43.796   3.659  12.104  0.00  0.00    +0.000 C 
ATOM      9  C   UNL     1      43.700   2.814  10.835  0.00  0.00    +0.000 C 
ATOM     10  C   UNL     1      44.499   3.598   9.791  0.00  0.00    +0.000 C 
ATOM     11  C   UNL     1      45.556   4.412  10.565  0.00  0.00    +0.000 C 
ATOM     12  C   UNL     1      45.261   4.109  12.048  0.00  0.00    +0.000 C 
BRANCH   8  13
ATOM     13  C   UNL     1      42.727   4.767  12.082  0.00  0.00    +0.000 C 
BRANCH  13  14
ATOM     14  N   UNL     1      42.667   5.537  13.318  0.00  0.00    +0.000 NA
ATOM     15  H   UNL     1      43.592   5.546  13.746  0.00  0.00    +0.000 HD
ATOM     16  H   UNL     1      42.059   5.068  13.989  0.00  0.00    +0.000 HD
ENDBRANCH  13  14
ENDBRANCH   8  13
ENDBRANCH   7  11
ENDBRANCH   1   7
BRANCH   4  17
ATOM     17  C   UNL     1      47.859   9.212  14.580  0.00  0.00    +0.000 C 
BRANCH  17  18
ATOM     18  N   UNL     1      48.056   8.444  15.782  0.00  0.00    +0.000 N 
ATOM     19  C   UNL     1      49.314   8.197  16.267  0.00  0.00    +0.000 C 
ATOM     20  O   UNL     1      50.320   8.649  15.722  0.00  0.00    +0.000 OA
ATOM     21  H   UNL     1      47.269   7.894  16.115  0.00  0.00    +0.000 HD
BRANCH  19  22
ATOM     22  C   UNL     1      49.403   7.416  17.506  0.00  0.00    +0.000 A 
ATOM     23  C   UNL     1      49.898   8.015  18.657  0.00  0.00    +0.000 A 
ATOM     24  S   UNL     1      49.894   6.988  20.019  0.00  0.00    +0.000 S 
ATOM     25  C   UNL     1      49.280   5.691  19.106  0.00  0.00    +0.000 A 
ATOM     26  N   UNL     1      49.067   4.476  19.678  0.00  0.00    +0.000 NA
ATOM     27  C   UNL     1      48.632   3.573  18.862  0.00  0.00    +0.000 A 
ATOM     28  N   UNL     1      48.380   3.779  17.532  0.00  0.00    +0.000 N 
ATOM     29  C   UNL     1      48.550   4.997  16.917  0.00  0.00    +0.000 A 
ATOM     30  O   UNL     1      48.273   5.157  15.736  0.00  0.00    +0.000 OA
ATOM     31  C   UNL     1      49.057   6.043  17.786  0.00  0.00    +0.000 A 
ATOM     32  H   UNL     1      48.027   3.033  16.950  0.00  0.00    +0.000 HD
ENDBRANCH  19  22
ENDBRANCH  17  18
ENDBRANCH   4  17
TORSDOF 7
ENDMDL
MODEL 9
REMARK VINA RESULT:    -6.451      3.343      5.433
REMARK INTER + INTRA:          -9.877
REMARK INTER:                  -8.547
REMARK INTRA:                  -1.330
REMARK UNBOUND:                -0.976
REMARK  Name = 
REMARK  7 active torsions:
REMARK  status: ('A' for Active; 'I' for Inactive)
REMARK    1  A    between atoms: N_1  and  C_2
REMARK    2  A    between atoms: C_2  and  C_3
REMARK    3  A    between atoms: C_6  and  C_7
REMARK    4  A    between atoms: C_7  and  C_8
REMARK    5  A    between atoms: C_11  and  C_12
REMARK    6  A    between atoms: C_12  and  N_13
REMARK    7  A    between atoms: C_14  and  C_16
REMARK                            x       y       z     vdW  Elec       q    Type
REMARK                         _______ _______ _______ _____ _____    ______ ____
ROOT
ATOM      1  C   UNL     1      45.652   7.300  11.974  0.00  0.00    +0.000 A 
ATOM      2  C   UNL     1      46.740   6.656  11.378  0.00  0.00    +0.000 A 
ATOM      3  C   UNL     1      48.050   7.005  11.709  0.00  0.00    +0.000 A 
ATOM      4  C   UNL     1      48.300   8.020  12.640  0.00  0.00    +0.000 A 
ATOM      5  C   UNL     1      47.211   8.700  13.203  0.00  0.00    +0.000 A 
ATOM      6  C   UNL     1      45.898   8.335  12.885  0.00  0.00    +0.000 A 
ENDROOT
BRANCH   1   7
ATOM      7  C   UNL     1      44.242   6.928  11.585  0.00  0.00    +0.000 C 
BRANCH   7  11
ATOM      8  C   UNL     1      43.447   3.666  11.174  0.00  0.00    +0.000 C 
ATOM      9  C   UNL     1      44.073   3.390  12.540  0.00  0.00    +0.000 C 
ATOM     10  C   UNL     1      44.509   4.767  13.047  0.00  0.00    +0.000 C 
ATOM     11  C   UNL     1      43.569   5.797  12.389  0.00  0.00    +0.000 C 
ATOM     12  C   UNL     1      42.669   4.956  11.461  0.00  0.00    +0.000 C 
BRANCH   8  13
ATOM     13  C   UNL     1      44.544   3.741  10.096  0.00  0.00    +0.000 C 
BRANCH  13  14
ATOM     14  N   UNL     1      44.088   4.337   8.847  0.00  0.00    +0.000 NA
ATOM     15  H   UNL     1      43.426   5.083   9.059  0.00  0.00    +0.000 HD
ATOM     16  H   UNL     1      43.561   3.650   8.308  0.00  0.00    +0.000 HD
ENDBRANCH  13  14
ENDBRANCH   8  13
ENDBRANCH   7  11
ENDBRANCH   1   7
BRANCH   4  17
ATOM     17  C   UNL     1      49.713   8.398  12.994  0.00  0.00    +0.000 C 
BRANCH  17  18
ATOM     18  N   UNL     1      50.277   7.485  13.954  0.00  0.00    +0.000 N 
ATOM     19  C   UNL     1      50.999   7.941  15.026  0.00  0.00    +0.000 C 
ATOM     20  O   UNL     1      51.163   9.142  15.234  0.00  0.00    +0.000 OA
ATOM     21  H   UNL     1      50.335   6.507  13.685  0.00  0.00    +0.000 HD
BRANCH  19  22
ATOM     22  C   UNL     1      51.518   6.929  15.952  0.00  0.00    +0.000 A 
ATOM     23  C   UNL     1      52.889   6.812  16.141  0.00  0.00    +0.000 A 
ATOM     24  S   UNL     1      53.325   5.622  17.281  0.00  0.00    +0.000 S 
ATOM     25  C   UNL     1      51.700   5.183  17.524  0.00  0.00    +0.000 A 
ATOM     26  N   UNL     1      51.371   4.176  18.378  0.00  0.00    +0.000 NA
ATOM     27  C   UNL     1      50.105   3.926  18.440  0.00  0.00    +0.000 A 
ATOM     28  N   UNL     1      49.140   4.597  17.737  0.00  0.00    +0.000 N 
ATOM     29  C   UNL     1      49.422   5.641  16.888  0.00  0.00    +0.000 A 
ATOM     30  O   UNL     1      48.531   6.248  16.309  0.00  0.00    +0.000 OA
ATOM     31  C   UNL     1      50.834   5.951  16.766  0.00  0.00    +0.000 A 
ATOM     32  H   UNL     1      48.164   4.361  17.842  0.00  0.00    +0.000 HD
ENDBRANCH  19  22
ENDBRANCH  17  18
ENDBRANCH   4  17
TORSDOF 7
ENDMDL
