MODEL 1
REMARK VINA RESULT:    -8.082      0.000      0.000
REMARK INTER + INTRA:         -12.409
REMARK INTER:                 -11.389
REMARK INTRA:                  -1.019
REMARK UNBOUND:                -1.019
REMARK  Name = 
REMARK  8 active torsions:
REMARK  status: ('A' for Active; 'I' for Inactive)
REMARK    1  A    between atoms: C_1  and  O_2
REMARK    2  A    between atoms: O_2  and  C_3
REMARK    3  A    between atoms: C_10  and  C_11
REMARK    4  A    between atoms: N_13  and  C_14
REMARK    5  A    between atoms: C_14  and  C_15
REMARK    6  A    between atoms: C_18  and  C_19
REMARK    7  A    between atoms: C_19  and  C_20
REMARK    8  A    between atoms: C_20  and  N_21
REMARK                            x       y       z     vdW  Elec       q    Type
REMARK                         _______ _______ _______ _____ _____    ______ ____
ROOT
ATOM      1  C   UNL     1      47.838   7.284  13.323  0.00  0.00    +0.000 C 
ENDROOT
BRANCH   1   2
ATOM      2  C   UNL     1      46.879   6.267  12.763  0.00  0.00    +0.000 A 
ATOM      3  C   UNL     1      46.574   5.112  13.488  0.00  0.00    +0.000 A 
ATOM      4  C   UNL     1      45.673   4.170  12.981  0.00  0.00    +0.000 A 
ATOM      5  C   UNL     1      45.059   4.353  11.733  0.00  0.00    +0.000 A 
ATOM      6  C   UNL     1      45.397   5.498  10.996  0.00  0.00    +0.000 A 
ATOM      7  C   UNL     1      46.299   6.441  11.501  0.00  0.00    +0.000 A 
BRANCH   5   8
ATOM      8  C   UNL     1      44.043   3.382  11.154  0.00  0.00    +0.000 C 
BRANCH   8   9
ATOM      9  C   UNL     1      44.186   3.115   9.651  0.00  0.00    +0.000 C 
BRANCH   9  10
ATOM     10  N   UNL     1      44.886   1.857   9.377  0.00  0.00    +0.000 N 
ATOM     11  C   UNL     1      45.791   1.984   8.297  0.00  0.00    +0.000 A 
ATOM     12  C   UNL     1      46.550   0.885   7.886  0.00  0.00    +0.000 A 
ATOM     13  N   UNL     1      47.438   0.918   6.857  0.00  0.00    +0.000 NA
ATOM     14  C   UNL     1      47.561   2.116   6.251  0.00  0.00    +0.000 A 
ATOM     15  C   UNL     1      46.832   3.219   6.651  0.00  0.00    +0.000 A 
ATOM     16  N   UNL     1      45.944   3.173   7.671  0.00  0.00    +0.000 NA
ATOM     17  H   UNL     1      44.246   1.092   9.172  0.00  0.00    +0.000 HD
ENDBRANCH   9  10
ENDBRANCH   8   9
ENDBRANCH   5   8
ENDBRANCH   1   2
BRANCH   1  20
ATOM     18  C   UNL     1      49.011   7.034  15.461  0.00  0.00    +0.000 C 
ATOM     19  O   UNL     1      50.077   6.843  14.882  0.00  0.00    +0.000 OA
ATOM     20  N   UNL     1      47.856   7.247  14.762  0.00  0.00    +0.000 N 
ATOM     21  H   UNL     1      46.976   7.363  15.248  0.00  0.00    +0.000 HD
BRANCH  18  29
ATOM     22  C   UNL     1      48.871   4.580  17.883  0.00  0.00    +0.000 A 
ATOM     23  N   UNL     1      48.726   3.852  19.009  0.00  0.00    +0.000 NA
ATOM     24  C   UNL     1      48.587   4.503  20.168  0.00  0.00    +0.000 A 
ATOM     25  N   UNL     1      48.587   5.820  20.350  0.00  0.00    +0.000 NA
ATOM     26  C   UNL     1      48.724   6.509  19.205  0.00  0.00    +0.000 A 
ATOM     27  S   UNL     1      48.756   8.205  19.253  0.00  0.00    +0.000 S 
ATOM     28  C   UNL     1      48.907   8.298  17.565  0.00  0.00    +0.000 A 
ATOM     29  C   UNL     1      48.933   7.060  16.932  0.00  0.00    +0.000 A 
ATOM     30  C   UNL     1      48.854   5.987  17.921  0.00  0.00    +0.000 A 
BRANCH  22  32
ATOM     31  C   UNL     1      47.939   3.114  16.297  0.00  0.00    +0.000 C 
ATOM     32  O   UNL     1      49.054   3.911  16.689  0.00  0.00    +0.000 OA
ENDBRANCH  22  32
ENDBRANCH  18  29
ENDBRANCH   1  20
TORSDOF 7
ENDMDL
MODEL 2
REMARK VINA RESULT:    -7.831      1.338      1.661
REMARK INTER + INTRA:         -12.055
REMARK INTER:                 -10.892
REMARK INTRA:                  -1.163
REMARK UNBOUND:                -1.019
REMARK  Name = 
REMARK  8 active torsions:
REMARK  status: ('A' for Active; 'I' for Inactive)
REMARK    1  A    between atoms: C_1  and  O_2
REMARK    2  A    between atoms: O_2  and  C_3
REMARK    3  A    between atoms: C_10  and  C_11
REMARK    4  A    between atoms: N_13  and  C_14
REMARK    5  A    between atoms: C_14  and  C_15
REMARK    6  A    between atoms: C_18  and  C_19
REMARK    7  A    between atoms: C_19  and  C_20
REMARK    8  A    between atoms: C_20  and  N_21
REMARK                            x       y       z     vdW  Elec       q    Type
REMARK                         _______ _______ _______ _____ _____    ______ ____
ROOT
ATOM      1  C   UNL     1      46.994   7.924  13.126  0.00  0.00    +0.000 C 
ENDROOT
BRANCH   1   2
ATOM      2  C   UNL     1      46.308   6.675  12.639  0.00  0.00    +0.000 A 
ATOM      3  C   UNL     1      46.061   6.492  11.275  0.00  0.00    +0.000 A 
ATOM      4  C   UNL     1      45.437   5.330  10.814  0.00  0.00    +0.000 A 
ATOM      5  C   UNL     1      45.034   4.322  11.703  0.00  0.00    +0.000 A 
ATOM      6  C   UNL     1      45.253   4.528  13.073  0.00  0.00    +0.000 A 
ATOM      7  C   UNL     1      45.877   5.692  13.537  0.00  0.00    +0.000 A 
BRANCH   5   8
ATOM      8  C   UNL     1      44.389   3.022  11.253  0.00  0.00    +0.000 C 
BRANCH   8   9
ATOM      9  C   UNL     1      44.294   2.837   9.733  0.00  0.00    +0.000 C 
BRANCH   9  10
ATOM     10  N   UNL     1      44.998   1.635   9.278  0.00  0.00    +0.000 N 
ATOM     11  C   UNL     1      45.974   1.937   8.300  0.00  0.00    +0.000 A 
ATOM     12  C   UNL     1      46.748   0.915   7.743  0.00  0.00    +0.000 A 
ATOM     13  N   UNL     1      47.704   1.116   6.797  0.00  0.00    +0.000 NA
ATOM     14  C   UNL     1      47.880   2.402   6.432  0.00  0.00    +0.000 A 
ATOM     15  C   UNL     1      47.137   3.429   6.981  0.00  0.00    +0.000 A 
ATOM     16  N   UNL     1      46.182   3.218   7.915  0.00  0.00    +0.000 NA
ATOM     17  H   UNL     1      44.365   0.936   8.894  0.00  0.00    +0.000 HD
ENDBRANCH   9  10
ENDBRANCH   8   9
ENDBRANCH   5   8
ENDBRANCH   1   2
BRANCH   1  20
ATOM     18  C   UNL     1      49.152   7.459  14.193  0.00  0.00    +0.000 C 
ATOM     19  O   UNL     1      49.723   7.482  13.106  0.00  0.00    +0.000 OA
ATOM     20  N   UNL     1      47.802   7.655  14.287  0.00  0.00    +0.000 N 
ATOM     21  H   UNL     1      47.336   7.594  15.182  0.00  0.00    +0.000 HD
BRANCH  18  29
ATOM     22  C   UNL     1      48.891   5.149  16.743  0.00  0.00    +0.000 A 
ATOM     23  N   UNL     1      48.967   4.445  17.892  0.00  0.00    +0.000 NA
ATOM     24  C   UNL     1      49.880   4.808  18.796  0.00  0.00    +0.000 A 
ATOM     25  N   UNL     1      50.759   5.800  18.690  0.00  0.00    +0.000 NA
ATOM     26  C   UNL     1      50.645   6.483  17.539  0.00  0.00    +0.000 A 
ATOM     27  S   UNL     1      51.697   7.779  17.232  0.00  0.00    +0.000 S 
ATOM     28  C   UNL     1      50.951   8.093  15.740  0.00  0.00    +0.000 A 
ATOM     29  C   UNL     1      49.898   7.236  15.444  0.00  0.00    +0.000 A 
ATOM     30  C   UNL     1      49.736   6.250  16.511  0.00  0.00    +0.000 A 
BRANCH  22  32
ATOM     31  C   UNL     1      47.275   3.555  16.125  0.00  0.00    +0.000 C 
ATOM     32  O   UNL     1      47.974   4.753  15.790  0.00  0.00    +0.000 OA
ENDBRANCH  22  32
ENDBRANCH  18  29
ENDBRANCH   1  20
TORSDOF 7
ENDMDL
MODEL 3
REMARK VINA RESULT:    -7.318      1.660      2.766
REMARK INTER + INTRA:         -11.332
REMARK INTER:                 -10.305
REMARK INTRA:                  -1.027
REMARK UNBOUND:                -1.019
REMARK  Name = 
REMARK  8 active torsions:
REMARK  status: ('A' for Active; 'I' for Inactive)
REMARK    1  A    between atoms: C_1  and  O_2
REMARK    2  A    between atoms: O_2  and  C_3
REMARK    3  A    between atoms: C_10  and  C_11
REMARK    4  A    between atoms: N_13  and  C_14
REMARK    5  A    between atoms: C_14  and  C_15
REMARK    6  A    between atoms: C_18  and  C_19
REMARK    7  A    between atoms: C_19  and  C_20
REMARK    8  A    between atoms: C_20  and  N_21
REMARK                            x       y       z     vdW  Elec       q    Type
REMARK                         _______ _______ _______ _____ _____    ______ ____
ROOT
ATOM      1  C   UNL     1      48.416   6.549  13.863  0.00  0.00    +0.000 C 
ENDROOT
BRANCH   1   2
ATOM      2  C   UNL     1      47.306   5.797  13.177  0.00  0.00    +0.000 A 
ATOM      3  C   UNL     1      46.923   4.534  13.635  0.00  0.00    +0.000 A 
ATOM      4  C   UNL     1      45.884   3.836  13.012  0.00  0.00    +0.000 A 
ATOM      5  C   UNL     1      45.206   4.377  11.910  0.00  0.00    +0.000 A 
ATOM      6  C   UNL     1      45.620   5.630  11.434  0.00  0.00    +0.000 A 
ATOM      7  C   UNL     1      46.660   6.330  12.056  0.00  0.00    +0.000 A 
BRANCH   5   8
ATOM      8  C   UNL     1      44.044   3.680  11.221  0.00  0.00    +0.000 C 
BRANCH   8   9
ATOM      9  C   UNL     1      44.239   3.420   9.723  0.00  0.00    +0.000 C 
BRANCH   9  10
ATOM     10  N   UNL     1      44.861   2.118   9.463  0.00  0.00    +0.000 N 
ATOM     11  C   UNL     1      45.768   2.177   8.379  0.00  0.00    +0.000 A 
ATOM     12  C   UNL     1      46.458   1.028   7.981  0.00  0.00    +0.000 A 
ATOM     13  N   UNL     1      47.343   0.993   6.950  0.00  0.00    +0.000 NA
ATOM     14  C   UNL     1      47.537   2.175   6.328  0.00  0.00    +0.000 A 
ATOM     15  C   UNL     1      46.878   3.325   6.715  0.00  0.00    +0.000 A 
ATOM     16  N   UNL     1      45.992   3.346   7.738  0.00  0.00    +0.000 NA
ATOM     17  H   UNL     1      44.175   1.392   9.270  0.00  0.00    +0.000 HD
ENDBRANCH   9  10
ENDBRANCH   8   9
ENDBRANCH   5   8
ENDBRANCH   1   2
BRANCH   1  20
ATOM     18  C   UNL     1      48.757   6.284  16.277  0.00  0.00    +0.000 C 
ATOM     19  O   UNL     1      49.671   5.486  16.084  0.00  0.00    +0.000 OA
ATOM     20  N   UNL     1      48.077   6.845  15.232  0.00  0.00    +0.000 N 
ATOM     21  H   UNL     1      47.300   7.469  15.401  0.00  0.00    +0.000 HD
BRANCH  18  29
ATOM     22  C   UNL     1      48.755   9.291  17.968  0.00  0.00    +0.000 A 
ATOM     23  N   UNL     1      48.722  10.288  18.877  0.00  0.00    +0.000 NA
ATOM     24  C   UNL     1      48.326   9.997  20.119  0.00  0.00    +0.000 A 
ATOM     25  N   UNL     1      47.936   8.812  20.576  0.00  0.00    +0.000 NA
ATOM     26  C   UNL     1      47.992   7.845  19.646  0.00  0.00    +0.000 A 
ATOM     27  S   UNL     1      47.518   6.267  20.055  0.00  0.00    +0.000 S 
ATOM     28  C   UNL     1      47.880   5.703  18.496  0.00  0.00    +0.000 A 
ATOM     29  C   UNL     1      48.366   6.684  17.639  0.00  0.00    +0.000 A 
ATOM     30  C   UNL     1      48.403   7.975  18.322  0.00  0.00    +0.000 A 
BRANCH  22  32
ATOM     31  C   UNL     1      48.954  10.969  16.332  0.00  0.00    +0.000 C 
ATOM     32  O   UNL     1      49.127   9.595  16.673  0.00  0.00    +0.000 OA
ENDBRANCH  22  32
ENDBRANCH  18  29
ENDBRANCH   1  20
TORSDOF 7
ENDMDL
MODEL 4
REMARK VINA RESULT:    -6.943      1.532      2.229
REMARK INTER + INTRA:         -10.803
REMARK INTER:                  -9.827
REMARK INTRA:                  -0.976
REMARK UNBOUND:                -1.019
REMARK  Name = 
REMARK  8 active torsions:
REMARK  status: ('A' for Active; 'I' for Inactive)
REMARK    1  A    between atoms: C_1  and  O_2
REMARK    2  A    between atoms: O_2  and  C_3
REMARK    3  A    between atoms: C_10  and  C_11
REMARK    4  A    between atoms: N_13  and  C_14
REMARK    5  A    between atoms: C_14  and  C_15
REMARK    6  A    between atoms: C_18  and  C_19
REMARK    7  A    between atoms: C_19  and  C_20
REMARK    8  A    between atoms: C_20  and  N_21
REMARK                            x       y       z     vdW  Elec       q    Type
REMARK                         _______ _______ _______ _____ _____    ______ ____
ROOT
ATOM      1  C   UNL     1      48.714   7.043  13.430  0.00  0.00    +0.000 C 
ENDROOT
BRANCH   1   2
ATOM      2  C   UNL     1      47.318   6.493  13.299  0.00  0.00    +0.000 A 
ATOM      3  C   UNL     1      46.249   7.345  13.010  0.00  0.00    +0.000 A 
ATOM      4  C   UNL     1      44.952   6.840  12.873  0.00  0.00    +0.000 A 
ATOM      5  C   UNL     1      44.687   5.472  13.029  0.00  0.00    +0.000 A 
ATOM      6  C   UNL     1      45.760   4.627  13.354  0.00  0.00    +0.000 A 
ATOM      7  C   UNL     1      47.058   5.131  13.492  0.00  0.00    +0.000 A 
BRANCH   5   8
ATOM      8  C   UNL     1      43.306   4.864  12.851  0.00  0.00    +0.000 C 
BRANCH   8   9
ATOM      9  C   UNL     1      42.779   4.861  11.411  0.00  0.00    +0.000 C 
BRANCH   9  10
ATOM     10  N   UNL     1      43.796   5.294  10.449  0.00  0.00    +0.000 N 
ATOM     11  C   UNL     1      44.384   4.196   9.778  0.00  0.00    +0.000 A 
ATOM     12  C   UNL     1      45.381   4.412   8.822  0.00  0.00    +0.000 A 
ATOM     13  N   UNL     1      46.001   3.417   8.133  0.00  0.00    +0.000 NA
ATOM     14  C   UNL     1      45.571   2.172   8.424  0.00  0.00    +0.000 A 
ATOM     15  C   UNL     1      44.577   1.937   9.353  0.00  0.00    +0.000 A 
ATOM     16  N   UNL     1      43.972   2.934  10.039  0.00  0.00    +0.000 NA
ATOM     17  H   UNL     1      44.537   5.838  10.885  0.00  0.00    +0.000 HD
ENDBRANCH   9  10
ENDBRANCH   8   9
ENDBRANCH   5   8
ENDBRANCH   1   2
BRANCH   1  20
ATOM     18  C   UNL     1      49.022   7.815  15.736  0.00  0.00    +0.000 C 
ATOM     19  O   UNL     1      48.425   8.861  15.492  0.00  0.00    +0.000 OA
ATOM     20  N   UNL     1      49.218   6.871  14.767  0.00  0.00    +0.000 N 
ATOM     21  H   UNL     1      49.746   6.032  14.968  0.00  0.00    +0.000 HD
BRANCH  18  29
ATOM     22  C   UNL     1      48.526   5.237  17.975  0.00  0.00    +0.000 A 
ATOM     23  N   UNL     1      48.456   4.426  19.050  0.00  0.00    +0.000 NA
ATOM     24  C   UNL     1      49.140   4.768  20.145  0.00  0.00    +0.000 A 
ATOM     25  N   UNL     1      49.915   5.837  20.301  0.00  0.00    +0.000 NA
ATOM     26  C   UNL     1      49.950   6.624  19.214  0.00  0.00    +0.000 A 
ATOM     27  S   UNL     1      50.901   8.030  19.234  0.00  0.00    +0.000 S 
ATOM     28  C   UNL     1      50.422   8.435  17.657  0.00  0.00    +0.000 A 
ATOM     29  C   UNL     1      49.538   7.527  17.085  0.00  0.00    +0.000 A 
ATOM     30  C   UNL     1      49.280   6.425  18.010  0.00  0.00    +0.000 A 
BRANCH  22  32
ATOM     31  C   UNL     1      47.687   3.457  16.686  0.00  0.00    +0.000 C 
ATOM     32  O   UNL     1      47.851   4.867  16.828  0.00  0.00    +0.000 OA
ENDBRANCH  22  32
ENDBRANCH  18  29
ENDBRANCH   1  20
TORSDOF 7
ENDMDL
MODEL 5
REMARK VINA RESULT:    -5.186      1.859      3.166
REMARK INTER + INTRA:          -8.327
REMARK INTER:                  -7.352
REMARK INTRA:                  -0.975
REMARK UNBOUND:                -1.019
REMARK  Name = 
REMARK  8 active torsions:
REMARK  status: ('A' for Active; 'I' for Inactive)
REMARK    1  A    between atoms: C_1  and  O_2
REMARK    2  A    between atoms: O_2  and  C_3
REMARK    3  A    between atoms: C_10  and  C_11
REMARK    4  A    between atoms: N_13  and  C_14
REMARK    5  A    between atoms: C_14  and  C_15
REMARK    6  A    between atoms: C_18  and  C_19
REMARK    7  A    between atoms: C_19  and  C_20
REMARK    8  A    between atoms: C_20  and  N_21
REMARK                            x       y       z     vdW  Elec       q    Type
REMARK                         _______ _______ _______ _____ _____    ______ ____
ROOT
ATOM      1  C   UNL     1      47.550   3.498  15.362  0.00  0.00    +0.000 C 
ENDROOT
BRANCH   1   2
ATOM      2  C   UNL     1      46.917   4.395  14.332  0.00  0.00    +0.000 A 
ATOM      3  C   UNL     1      45.529   4.411  14.168  0.00  0.00    +0.000 A 
ATOM      4  C   UNL     1      44.933   5.252  13.223  0.00  0.00    +0.000 A 
ATOM      5  C   UNL     1      45.708   6.093  12.411  0.00  0.00    +0.000 A 
ATOM      6  C   UNL     1      47.103   6.046  12.556  0.00  0.00    +0.000 A 
ATOM      7  C   UNL     1      47.701   5.204  13.501  0.00  0.00    +0.000 A 
BRANCH   5   8
ATOM      8  C   UNL     1      45.110   7.055  11.398  0.00  0.00    +0.000 C 
BRANCH   8   9
ATOM      9  C   UNL     1      44.584   6.402  10.114  0.00  0.00    +0.000 C 
BRANCH   9  10
ATOM     10  N   UNL     1      44.368   4.961  10.275  0.00  0.00    +0.000 N 
ATOM     11  C   UNL     1      45.086   4.212   9.313  0.00  0.00    +0.000 A 
ATOM     12  C   UNL     1      45.001   2.816   9.307  0.00  0.00    +0.000 A 
ATOM     13  N   UNL     1      45.653   2.021   8.418  0.00  0.00    +0.000 NA
ATOM     14  C   UNL     1      46.424   2.677   7.528  0.00  0.00    +0.000 A 
ATOM     15  C   UNL     1      46.534   4.054   7.526  0.00  0.00    +0.000 A 
ATOM     16  N   UNL     1      45.875   4.837   8.410  0.00  0.00    +0.000 NA
ATOM     17  H   UNL     1      43.384   4.706  10.213  0.00  0.00    +0.000 HD
ENDBRANCH   9  10
ENDBRANCH   8   9
ENDBRANCH   5   8
ENDBRANCH   1   2
BRANCH   1  20
ATOM     18  C   UNL     1      47.765   4.646  17.518  0.00  0.00    +0.000 C 
ATOM     19  O   UNL     1      46.602   4.375  17.805  0.00  0.00    +0.000 OA
ATOM     20  N   UNL     1      48.306   4.259  16.323  0.00  0.00    +0.000 N 
ATOM     21  H   UNL     1      49.251   4.522  16.079  0.00  0.00    +0.000 HD
BRANCH  18  29
ATOM     22  C   UNL     1      50.132   7.125  17.122  0.00  0.00    +0.000 A 
ATOM     23  N   UNL     1      51.138   8.014  17.252  0.00  0.00    +0.000 NA
ATOM     24  C   UNL     1      51.644   8.221  18.471  0.00  0.00    +0.000 A 
ATOM     25  N   UNL     1      51.255   7.648  19.605  0.00  0.00    +0.000 NA
ATOM     26  C   UNL     1      50.259   6.763  19.433  0.00  0.00    +0.000 A 
ATOM     27  S   UNL     1      49.630   5.945  20.781  0.00  0.00    +0.000 S 
ATOM     28  C   UNL     1      48.543   5.079  19.807  0.00  0.00    +0.000 A 
ATOM     29  C   UNL     1      48.632   5.383  18.453  0.00  0.00    +0.000 A 
ATOM     30  C   UNL     1      49.642   6.417  18.235  0.00  0.00    +0.000 A 
BRANCH  22  32
ATOM     31  C   UNL     1      48.711   7.992  15.460  0.00  0.00    +0.000 C 
ATOM     32  O   UNL     1      49.580   6.938  15.870  0.00  0.00    +0.000 OA
ENDBRANCH  22  32
ENDBRANCH  18  29
ENDBRANCH   1  20
TORSDOF 7
ENDMDL
