MODEL 1
REMARK VINA RESULT:    -6.392      0.000      0.000
REMARK INTER + INTRA:          -7.821
REMARK INTER:                  -7.514
REMARK INTRA:                  -0.308
REMARK UNBOUND:                -0.308
REMARK  Name = 
REMARK  5 active torsions:
REMARK  status: ('A' for Active; 'I' for Inactive)
REMARK    1  A    between atoms: C_1  and  O_2
REMARK    2  A    between atoms: O_2  and  C_3
REMARK    3  A    between atoms: C_9  and  C_10
REMARK    4  A    between atoms: C_10  and  C_11
REMARK    5  A    between atoms: N_14  and  C_15
REMARK                            x       y       z     vdW  Elec       q    Type
REMARK                         _______ _______ _______ _____ _____    ______ ____
ROOT
ATOM      1  C   UNL     1      45.836   3.557   7.702  0.00  0.00    +0.000 A 
ATOM      2  C   UNL     1      45.203   2.322   7.876  0.00  0.00    +0.000 A 
ATOM      3  C   UNL     1      44.571   2.012   9.080  0.00  0.00    +0.000 A 
ATOM      4  C   UNL     1      44.588   2.977  10.101  0.00  0.00    +0.000 A 
ATOM      5  N   UNL     1      44.023   2.932  11.350  0.00  0.00    +0.000 N 
ATOM      6  C   UNL     1      44.177   4.132  11.980  0.00  0.00    +0.000 A 
ATOM      7  C   UNL     1      44.898   4.985  11.164  0.00  0.00    +0.000 A 
ATOM      8  C   UNL     1      45.198   4.229   9.971  0.00  0.00    +0.000 A 
ATOM      9  C   UNL     1      45.846   4.504   8.743  0.00  0.00    +0.000 A 
ATOM     10  H   UNL     1      43.481   2.155  11.702  0.00  0.00    +0.000 HD
ENDROOT
BRANCH   1  12
ATOM     11  C   UNL     1      46.854   2.937   5.636  0.00  0.00    +0.000 C 
ATOM     12  O   UNL     1      46.443   3.961   6.541  0.00  0.00    +0.000 OA
ENDBRANCH   1  12
BRANCH   7  13
ATOM     13  C   UNL     1      45.037   6.470  11.389  0.00  0.00    +0.000 C 
BRANCH  13  14
ATOM     14  C   UNL     1      45.280   7.067  12.802  0.00  0.00    +0.000 C 
ATOM     15  C   UNL     1      45.731   8.527  12.910  0.00  0.00    +0.000 C 
ATOM     16  C   UNL     1      47.034   8.785  12.164  0.00  0.00    +0.000 C 
ATOM     17  N   UNL     1      48.125   7.842  12.434  0.00  0.00    +0.000 NA
ATOM     18  C   UNL     1      49.089   7.870  11.325  0.00  0.00    +0.000 C 
ATOM     19  C   UNL     1      47.762   6.465  12.786  0.00  0.00    +0.000 C 
ATOM     20  C   UNL     1      46.412   6.276  13.497  0.00  0.00    +0.000 C 
ENDBRANCH  13  14
ENDBRANCH   7  13
TORSDOF 3
ENDMDL
MODEL 2
REMARK VINA RESULT:    -6.319      1.309      2.077
REMARK INTER + INTRA:          -7.735
REMARK INTER:                  -7.324
REMARK INTRA:                  -0.411
REMARK UNBOUND:                -0.308
REMARK  Name = 
REMARK  5 active torsions:
REMARK  status: ('A' for Active; 'I' for Inactive)
REMARK    1  A    between atoms: C_1  and  O_2
REMARK    2  A    between atoms: O_2  and  C_3
REMARK    3  A    between atoms: C_9  and  C_10
REMARK    4  A    between atoms: C_10  and  C_11
REMARK    5  A    between atoms: N_14  and  C_15
REMARK                            x       y       z     vdW  Elec       q    Type
REMARK                         _______ _______ _______ _____ _____    ______ ____
ROOT
ATOM      1  C   UNL     1      45.221   4.055   8.891  0.00  0.00    +0.000 A 
ATOM      2  C   UNL     1      44.579   2.858   9.220  0.00  0.00    +0.000 A 
ATOM      3  C   UNL     1      44.215   2.588  10.540  0.00  0.00    +0.000 A 
ATOM      4  C   UNL     1      44.510   3.556  11.515  0.00  0.00    +0.000 A 
ATOM      5  N   UNL     1      44.235   3.547  12.859  0.00  0.00    +0.000 N 
ATOM      6  C   UNL     1      44.587   4.739  13.419  0.00  0.00    +0.000 A 
ATOM      7  C   UNL     1      45.153   5.548  12.450  0.00  0.00    +0.000 A 
ATOM      8  C   UNL     1      45.140   4.772  11.233  0.00  0.00    +0.000 A 
ATOM      9  C   UNL     1      45.513   5.005   9.887  0.00  0.00    +0.000 A 
ATOM     10  H   UNL     1      43.744   2.803  13.335  0.00  0.00    +0.000 HD
ENDROOT
BRANCH   1  12
ATOM     11  C   UNL     1      46.426   3.525   6.900  0.00  0.00    +0.000 C 
ATOM     12  O   UNL     1      45.576   4.420   7.616  0.00  0.00    +0.000 OA
ENDBRANCH   1  12
BRANCH   7  13
ATOM     13  C   UNL     1      45.416   7.024  12.614  0.00  0.00    +0.000 C 
BRANCH  13  14
ATOM     14  C   UNL     1      46.590   7.734  11.887  0.00  0.00    +0.000 C 
ATOM     15  C   UNL     1      47.919   6.986  11.742  0.00  0.00    +0.000 C 
ATOM     16  C   UNL     1      48.502   6.581  13.090  0.00  0.00    +0.000 C 
ATOM     17  N   UNL     1      48.564   7.638  14.106  0.00  0.00    +0.000 NA
ATOM     18  C   UNL     1      48.636   7.035  15.445  0.00  0.00    +0.000 C 
ATOM     19  C   UNL     1      47.544   8.690  14.055  0.00  0.00    +0.000 C 
ATOM     20  C   UNL     1      46.968   9.015  12.667  0.00  0.00    +0.000 C 
ENDBRANCH  13  14
ENDBRANCH   7  13
TORSDOF 3
ENDMDL
MODEL 3
REMARK VINA RESULT:    -6.119      3.159      4.591
REMARK INTER + INTRA:          -7.499
REMARK INTER:                  -6.865
REMARK INTRA:                  -0.634
REMARK UNBOUND:                -0.308
REMARK  Name = 
REMARK  5 active torsions:
REMARK  status: ('A' for Active; 'I' for Inactive)
REMARK    1  A    between atoms: C_1  and  O_2
REMARK    2  A    between atoms: O_2  and  C_3
REMARK    3  A    between atoms: C_9  and  C_10
REMARK    4  A    between atoms: C_10  and  C_11
REMARK    5  A    between atoms: N_14  and  C_15
REMARK                            x       y       z     vdW  Elec       q    Type
REMARK                         _______ _______ _______ _____ _____    ______ ____
ROOT
ATOM      1  C   UNL     1      46.450   3.894  13.468  0.00  0.00    +0.000 A 
ATOM      2  C   UNL     1      45.664   3.295  12.479  0.00  0.00    +0.000 A 
ATOM      3  C   UNL     1      44.888   4.074  11.619  0.00  0.00    +0.000 A 
ATOM      4  C   UNL     1      44.930   5.469  11.779  0.00  0.00    +0.000 A 
ATOM      5  N   UNL     1      44.293   6.445  11.055  0.00  0.00    +0.000 N 
ATOM      6  C   UNL     1      44.703   7.679  11.468  0.00  0.00    +0.000 A 
ATOM      7  C   UNL     1      45.592   7.537  12.518  0.00  0.00    +0.000 A 
ATOM      8  C   UNL     1      45.708   6.115  12.745  0.00  0.00    +0.000 A 
ATOM      9  C   UNL     1      46.467   5.294  13.612  0.00  0.00    +0.000 A 
ATOM     10  H   UNL     1      43.692   6.267  10.263  0.00  0.00    +0.000 HD
ENDROOT
BRANCH   1  12
ATOM     11  C   UNL     1      47.482   3.780  15.616  0.00  0.00    +0.000 C 
ATOM     12  O   UNL     1      47.272   3.209  14.326  0.00  0.00    +0.000 OA
ENDBRANCH   1  12
BRANCH   7  13
ATOM     13  C   UNL     1      46.464   8.643  13.058  0.00  0.00    +0.000 C 
BRANCH  13  14
ATOM     14  C   UNL     1      47.686   9.185  12.268  0.00  0.00    +0.000 C 
ATOM     15  C   UNL     1      48.709   8.182  11.728  0.00  0.00    +0.000 C 
ATOM     16  C   UNL     1      49.324   7.333  12.834  0.00  0.00    +0.000 C 
ATOM     17  N   UNL     1      49.824   8.067  14.003  0.00  0.00    +0.000 NA
ATOM     18  C   UNL     1      49.896   7.164  15.160  0.00  0.00    +0.000 C 
ATOM     19  C   UNL     1      49.154   9.324  14.353  0.00  0.00    +0.000 C 
ATOM     20  C   UNL     1      48.518  10.104  13.191  0.00  0.00    +0.000 C 
ENDBRANCH  13  14
ENDBRANCH   7  13
TORSDOF 3
ENDMDL
MODEL 4
REMARK VINA RESULT:    -5.989      3.785      5.281
REMARK INTER + INTRA:          -7.347
REMARK INTER:                  -6.973
REMARK INTRA:                  -0.373
REMARK UNBOUND:                -0.308
REMARK  Name = 
REMARK  5 active torsions:
REMARK  status: ('A' for Active; 'I' for Inactive)
REMARK    1  A    between atoms: C_1  and  O_2
REMARK    2  A    between atoms: O_2  and  C_3
REMARK    3  A    between atoms: C_9  and  C_10
REMARK    4  A    between atoms: C_10  and  C_11
REMARK    5  A    between atoms: N_14  and  C_15
REMARK                            x       y       z     vdW  Elec       q    Type
REMARK                         _______ _______ _______ _____ _____    ______ ____
ROOT
ATOM      1  C   UNL     1      44.966   3.946  11.311  0.00  0.00    +0.000 A 
ATOM      2  C   UNL     1      45.216   5.086  10.541  0.00  0.00    +0.000 A 
ATOM      3  C   UNL     1      46.003   6.123  11.045  0.00  0.00    +0.000 A 
ATOM      4  C   UNL     1      46.532   5.979  12.339  0.00  0.00    +0.000 A 
ATOM      5  N   UNL     1      47.347   6.828  13.043  0.00  0.00    +0.000 N 
ATOM      6  C   UNL     1      47.725   6.249  14.219  0.00  0.00    +0.000 A 
ATOM      7  C   UNL     1      47.119   5.011  14.333  0.00  0.00    +0.000 A 
ATOM      8  C   UNL     1      46.318   4.854  13.141  0.00  0.00    +0.000 A 
ATOM      9  C   UNL     1      45.501   3.829  12.606  0.00  0.00    +0.000 A 
ATOM     10  H   UNL     1      47.698   7.707  12.688  0.00  0.00    +0.000 HD
ENDROOT
BRANCH   1  12
ATOM     11  C   UNL     1      44.481   2.413   9.547  0.00  0.00    +0.000 C 
ATOM     12  O   UNL     1      44.241   2.864  10.879  0.00  0.00    +0.000 OA
ENDBRANCH   1  12
BRANCH   7  13
ATOM     13  C   UNL     1      47.497   3.963  15.349  0.00  0.00    +0.000 C 
BRANCH  13  14
ATOM     14  C   UNL     1      47.065   4.069  16.837  0.00  0.00    +0.000 C 
ATOM     15  C   UNL     1      47.629   5.215  17.681  0.00  0.00    +0.000 C 
ATOM     16  C   UNL     1      49.152   5.198  17.733  0.00  0.00    +0.000 C 
ATOM     17  N   UNL     1      49.768   3.907  18.061  0.00  0.00    +0.000 NA
ATOM     18  C   UNL     1      51.157   3.885  17.581  0.00  0.00    +0.000 C 
ATOM     19  C   UNL     1      49.051   2.691  17.662  0.00  0.00    +0.000 C 
ATOM     20  C   UNL     1      47.519   2.796  17.588  0.00  0.00    +0.000 C 
ENDBRANCH  13  14
ENDBRANCH   7  13
TORSDOF 3
ENDMDL
MODEL 5
REMARK VINA RESULT:    -5.878      3.125      7.064
REMARK INTER + INTRA:          -7.216
REMARK INTER:                  -6.907
REMARK INTRA:                  -0.309
REMARK UNBOUND:                -0.308
REMARK  Name = 
REMARK  5 active torsions:
REMARK  status: ('A' for Active; 'I' for Inactive)
REMARK    1  A    between atoms: C_1  and  O_2
REMARK    2  A    between atoms: O_2  and  C_3
REMARK    3  A    between atoms: C_9  and  C_10
REMARK    4  A    between atoms: C_10  and  C_11
REMARK    5  A    between atoms: N_14  and  C_15
REMARK                            x       y       z     vdW  Elec       q    Type
REMARK                         _______ _______ _______ _____ _____    ______ ____
ROOT
ATOM      1  C   UNL     1      49.181   7.050  15.226  0.00  0.00    +0.000 A 
ATOM      2  C   UNL     1      49.210   8.435  15.412  0.00  0.00    +0.000 A 
ATOM      3  C   UNL     1      48.297   9.259  14.752  0.00  0.00    +0.000 A 
ATOM      4  C   UNL     1      47.354   8.651  13.906  0.00  0.00    +0.000 A 
ATOM      5  N   UNL     1      46.345   9.225  13.176  0.00  0.00    +0.000 N 
ATOM      6  C   UNL     1      45.585   8.259  12.584  0.00  0.00    +0.000 A 
ATOM      7  C   UNL     1      46.117   7.017  12.879  0.00  0.00    +0.000 A 
ATOM      8  C   UNL     1      47.279   7.270  13.697  0.00  0.00    +0.000 A 
ATOM      9  C   UNL     1      48.232   6.466  14.367  0.00  0.00    +0.000 A 
ATOM     10  H   UNL     1      46.137  10.214  13.170  0.00  0.00    +0.000 HD
ENDROOT
BRANCH   1  12
ATOM     11  C   UNL     1      49.491   5.507  17.020  0.00  0.00    +0.000 C 
ATOM     12  O   UNL     1      50.011   6.164  15.866  0.00  0.00    +0.000 OA
ENDBRANCH   1  12
BRANCH   7  13
ATOM     13  C   UNL     1      45.413   5.705  12.637  0.00  0.00    +0.000 C 
BRANCH  13  14
ATOM     14  C   UNL     1      43.871   5.565  12.765  0.00  0.00    +0.000 C 
ATOM     15  C   UNL     1      43.292   4.205  13.163  0.00  0.00    +0.000 C 
ATOM     16  C   UNL     1      43.688   3.102  12.189  0.00  0.00    +0.000 C 
ATOM     17  N   UNL     1      43.488   3.400  10.766  0.00  0.00    +0.000 NA
ATOM     18  C   UNL     1      44.352   2.534   9.952  0.00  0.00    +0.000 C 
ATOM     19  C   UNL     1      43.594   4.801  10.344  0.00  0.00    +0.000 C 
ATOM     20  C   UNL     1      43.220   5.860  11.394  0.00  0.00    +0.000 C 
ENDBRANCH  13  14
ENDBRANCH   7  13
TORSDOF 3
ENDMDL
MODEL 6
REMARK VINA RESULT:    -5.714      1.471      2.229
REMARK INTER + INTRA:          -7.023
REMARK INTER:                  -6.656
REMARK INTRA:                  -0.368
REMARK UNBOUND:                -0.308
REMARK  Name = 
REMARK  5 active torsions:
REMARK  status: ('A' for Active; 'I' for Inactive)
REMARK    1  A    between atoms: C_1  and  O_2
REMARK    2  A    between atoms: O_2  and  C_3
REMARK    3  A    between atoms: C_9  and  C_10
REMARK    4  A    between atoms: C_10  and  C_11
REMARK    5  A    between atoms: N_14  and  C_15
REMARK                            x       y       z     vdW  Elec       q    Type
REMARK                         _______ _______ _______ _____ _____    ______ ____
ROOT
ATOM      1  C   UNL     1      45.078   4.170   9.086  0.00  0.00    +0.000 A 
ATOM      2  C   UNL     1      44.164   3.233   9.576  0.00  0.00    +0.000 A 
ATOM      3  C   UNL     1      43.951   3.101  10.950  0.00  0.00    +0.000 A 
ATOM      4  C   UNL     1      44.678   3.938  11.812  0.00  0.00    +0.000 A 
ATOM      5  N   UNL     1      44.633   4.026  13.180  0.00  0.00    +0.000 N 
ATOM      6  C   UNL     1      45.417   5.056  13.611  0.00  0.00    +0.000 A 
ATOM      7  C   UNL     1      46.039   5.642  12.523  0.00  0.00    +0.000 A 
ATOM      8  C   UNL     1      45.595   4.897  11.368  0.00  0.00    +0.000 A 
ATOM      9  C   UNL     1      45.800   4.992   9.971  0.00  0.00    +0.000 A 
ATOM     10  H   UNL     1      44.023   3.475  13.767  0.00  0.00    +0.000 HD
ENDROOT
BRANCH   1  12
ATOM     11  C   UNL     1      46.393   3.673   7.158  0.00  0.00    +0.000 C 
ATOM     12  O   UNL     1      45.317   4.396   7.754  0.00  0.00    +0.000 OA
ENDBRANCH   1  12
BRANCH   7  13
ATOM     13  C   UNL     1      46.761   6.966  12.560  0.00  0.00    +0.000 C 
BRANCH  13  14
ATOM     14  C   UNL     1      48.025   7.187  13.435  0.00  0.00    +0.000 C 
ATOM     15  C   UNL     1      48.126   8.473  14.260  0.00  0.00    +0.000 C 
ATOM     16  C   UNL     1      48.048   9.723  13.392  0.00  0.00    +0.000 C 
ATOM     17  N   UNL     1      48.925   9.743  12.216  0.00  0.00    +0.000 NA
ATOM     18  C   UNL     1      48.404  10.695  11.225  0.00  0.00    +0.000 C 
ATOM     19  C   UNL     1      49.255   8.457  11.592  0.00  0.00    +0.000 C 
ATOM     20  C   UNL     1      49.271   7.232  12.521  0.00  0.00    +0.000 C 
ENDBRANCH  13  14
ENDBRANCH   7  13
TORSDOF 3
ENDMDL
MODEL 7
REMARK VINA RESULT:    -5.504      2.046      3.288
REMARK INTER + INTRA:          -6.777
REMARK INTER:                  -6.298
REMARK INTRA:                  -0.479
REMARK UNBOUND:                -0.308
REMARK  Name = 
REMARK  5 active torsions:
REMARK  status: ('A' for Active; 'I' for Inactive)
REMARK    1  A    between atoms: C_1  and  O_2
REMARK    2  A    between atoms: O_2  and  C_3
REMARK    3  A    between atoms: C_9  and  C_10
REMARK    4  A    between atoms: C_10  and  C_11
REMARK    5  A    between atoms: N_14  and  C_15
REMARK                            x       y       z     vdW  Elec       q    Type
REMARK                         _______ _______ _______ _____ _____    ______ ____
ROOT
ATOM      1  C   UNL     1      44.257   4.430  10.496  0.00  0.00    +0.000 A 
ATOM      2  C   UNL     1      43.445   3.843  11.471  0.00  0.00    +0.000 A 
ATOM      3  C   UNL     1      43.844   3.820  12.808  0.00  0.00    +0.000 A 
ATOM      4  C   UNL     1      45.078   4.407  13.136  0.00  0.00    +0.000 A 
ATOM      5  N   UNL     1      45.678   4.541  14.362  0.00  0.00    +0.000 N 
ATOM      6  C   UNL     1      46.818   5.281  14.250  0.00  0.00    +0.000 A 
ATOM      7  C   UNL     1      47.018   5.612  12.922  0.00  0.00    +0.000 A 
ATOM      8  C   UNL     1      45.919   5.015  12.199  0.00  0.00    +0.000 A 
ATOM      9  C   UNL     1      45.491   5.004  10.849  0.00  0.00    +0.000 A 
ATOM     10  H   UNL     1      45.273   4.226  15.232  0.00  0.00    +0.000 HD
ENDROOT
BRANCH   1  12
ATOM     11  C   UNL     1      44.793   3.901   8.232  0.00  0.00    +0.000 C 
ATOM     12  O   UNL     1      43.923   4.534   9.169  0.00  0.00    +0.000 OA
ENDBRANCH   1  12
BRANCH   7  13
ATOM     13  C   UNL     1      48.008   6.640  12.435  0.00  0.00    +0.000 C 
BRANCH  13  14
ATOM     14  C   UNL     1      47.583   8.097  12.105  0.00  0.00    +0.000 C 
ATOM     15  C   UNL     1      48.669   9.106  11.722  0.00  0.00    +0.000 C 
ATOM     16  C   UNL     1      49.722   9.261  12.812  0.00  0.00    +0.000 C 
ATOM     17  N   UNL     1      49.212   9.477  14.171  0.00  0.00    +0.000 NA
ATOM     18  C   UNL     1      50.238   9.096  15.152  0.00  0.00    +0.000 C 
ATOM     19  C   UNL     1      47.911   8.891  14.510  0.00  0.00    +0.000 C 
ATOM     20  C   UNL     1      46.915   8.724  13.351  0.00  0.00    +0.000 C 
ENDBRANCH  13  14
ENDBRANCH   7  13
TORSDOF 3
ENDMDL
MODEL 8
REMARK VINA RESULT:    -5.329      2.892      6.582
REMARK INTER + INTRA:          -6.572
REMARK INTER:                  -6.112
REMARK INTRA:                  -0.459
REMARK UNBOUND:                -0.308
REMARK  Name = 
REMARK  5 active torsions:
REMARK  status: ('A' for Active; 'I' for Inactive)
REMARK    1  A    between atoms: C_1  and  O_2
REMARK    2  A    between atoms: O_2  and  C_3
REMARK    3  A    between atoms: C_9  and  C_10
REMARK    4  A    between atoms: C_10  and  C_11
REMARK    5  A    between atoms: N_14  and  C_15
REMARK                            x       y       z     vdW  Elec       q    Type
REMARK                         _______ _______ _______ _____ _____    ______ ____
ROOT
ATOM      1  C   UNL     1      49.154   7.962  13.694  0.00  0.00    +0.000 A 
ATOM      2  C   UNL     1      49.875   7.796  14.880  0.00  0.00    +0.000 A 
ATOM      3  C   UNL     1      49.526   6.797  15.790  0.00  0.00    +0.000 A 
ATOM      4  C   UNL     1      48.435   5.969  15.471  0.00  0.00    +0.000 A 
ATOM      5  N   UNL     1      47.915   4.911  16.171  0.00  0.00    +0.000 N 
ATOM      6  C   UNL     1      46.930   4.307  15.446  0.00  0.00    +0.000 A 
ATOM      7  C   UNL     1      46.749   4.995  14.260  0.00  0.00    +0.000 A 
ATOM      8  C   UNL     1      47.691   6.090  14.293  0.00  0.00    +0.000 A 
ATOM      9  C   UNL     1      48.061   7.126  13.402  0.00  0.00    +0.000 A 
ATOM     10  H   UNL     1      48.284   4.570  17.047  0.00  0.00    +0.000 HD
ENDROOT
BRANCH   1  12
ATOM     11  C   UNL     1      48.669  10.079  12.706  0.00  0.00    +0.000 C 
ATOM     12  O   UNL     1      49.454   8.888  12.728  0.00  0.00    +0.000 OA
ENDBRANCH   1  12
BRANCH   7  13
ATOM     13  C   UNL     1      45.952   4.484  13.086  0.00  0.00    +0.000 C 
BRANCH  13  14
ATOM     14  C   UNL     1      44.594   5.117  12.678  0.00  0.00    +0.000 C 
ATOM     15  C   UNL     1      43.374   4.202  12.542  0.00  0.00    +0.000 C 
ATOM     16  C   UNL     1      43.594   3.096  11.517  0.00  0.00    +0.000 C 
ATOM     17  N   UNL     1      44.121   3.523  10.216  0.00  0.00    +0.000 NA
ATOM     18  C   UNL     1      44.761   2.384   9.543  0.00  0.00    +0.000 C 
ATOM     19  C   UNL     1      44.985   4.707  10.188  0.00  0.00    +0.000 C 
ATOM     20  C   UNL     1      44.734   5.761  11.280  0.00  0.00    +0.000 C 
ENDBRANCH  13  14
ENDBRANCH   7  13
TORSDOF 3
ENDMDL
MODEL 9
REMARK VINA RESULT:    -5.286      2.652      6.436
REMARK INTER + INTRA:          -6.520
REMARK INTER:                  -6.176
REMARK INTRA:                  -0.345
REMARK UNBOUND:                -0.308
REMARK  Name = 
REMARK  5 active torsions:
REMARK  status: ('A' for Active; 'I' for Inactive)
REMARK    1  A    between atoms: C_1  and  O_2
REMARK    2  A    between atoms: O_2  and  C_3
REMARK    3  A    between atoms: C_9  and  C_10
REMARK    4  A    between atoms: C_10  and  C_11
REMARK    5  A    between atoms: N_14  and  C_15
REMARK                            x       y       z     vdW  Elec       q    Type
REMARK                         _______ _______ _______ _____ _____    ______ ____
ROOT
ATOM      1  C   UNL     1      49.874   8.617  12.091  0.00  0.00    +0.000 A 
ATOM      2  C   UNL     1      49.724   9.926  12.560  0.00  0.00    +0.000 A 
ATOM      3  C   UNL     1      48.453  10.476  12.734  0.00  0.00    +0.000 A 
ATOM      4  C   UNL     1      47.341   9.675  12.426  0.00  0.00    +0.000 A 
ATOM      5  N   UNL     1      46.005   9.964  12.535  0.00  0.00    +0.000 N 
ATOM      6  C   UNL     1      45.259   8.860  12.244  0.00  0.00    +0.000 A 
ATOM      7  C   UNL     1      46.102   7.822  11.886  0.00  0.00    +0.000 A 
ATOM      8  C   UNL     1      47.441   8.358  11.964  0.00  0.00    +0.000 A 
ATOM      9  C   UNL     1      48.744   7.838  11.782  0.00  0.00    +0.000 A 
ATOM     10  H   UNL     1      45.638  10.838  12.885  0.00  0.00    +0.000 HD
ENDROOT
BRANCH   1  12
ATOM     11  C   UNL     1      51.657   8.008  10.627  0.00  0.00    +0.000 C 
ATOM     12  O   UNL     1      51.081   7.984  11.932  0.00  0.00    +0.000 OA
ENDBRANCH   1  12
BRANCH   7  13
ATOM     13  C   UNL     1      45.679   6.380  11.760  0.00  0.00    +0.000 C 
BRANCH  13  14
ATOM     14  C   UNL     1      44.515   5.790  12.603  0.00  0.00    +0.000 C 
ATOM     15  C   UNL     1      44.669   4.377  13.172  0.00  0.00    +0.000 C 
ATOM     16  C   UNL     1      44.907   3.339  12.082  0.00  0.00    +0.000 C 
ATOM     17  N   UNL     1      43.985   3.384  10.941  0.00  0.00    +0.000 NA
ATOM     18  C   UNL     1      44.604   2.733   9.778  0.00  0.00    +0.000 C 
ATOM     19  C   UNL     1      43.417   4.687  10.578  0.00  0.00    +0.000 C 
ATOM     20  C   UNL     1      43.247   5.700  11.722  0.00  0.00    +0.000 C 
ENDBRANCH  13  14
ENDBRANCH   7  13
TORSDOF 3
ENDMDL
