MODEL 1
REMARK VINA RESULT:    -7.955      0.000      0.000
REMARK INTER + INTRA:         -10.655
REMARK INTER:                 -10.048
REMARK INTRA:                  -0.607
REMARK UNBOUND:                -0.607
REMARK  Name = 
REMARK  5 active torsions:
REMARK  status: ('A' for Active; 'I' for Inactive)
REMARK    1  A    between atoms: N_1  and  C_2
REMARK    2  A    between atoms: C_2  and  C_3
REMARK    3  A    between atoms: C_3  and  C_4
REMARK    4  A    between atoms: C_8  and  C_9
REMARK    5  A    between atoms: C_9  and  C_10
REMARK                            x       y       z     vdW  Elec       q    Type
REMARK                         _______ _______ _______ _____ _____    ______ ____
ROOT
ATOM      1  C   UNL     1      45.479   5.298  12.465  0.00  0.00    +0.000 A 
ATOM      2  C   UNL     1      44.279   5.377  13.176  0.00  0.00    +0.000 A 
ATOM      3  C   UNL     1      43.072   5.055  12.550  0.00  0.00    +0.000 A 
ATOM      4  C   UNL     1      43.049   4.688  11.202  0.00  0.00    +0.000 A 
ATOM      5  C   UNL     1      44.236   4.671  10.453  0.00  0.00    +0.000 A 
ATOM      6  C   UNL     1      45.449   4.954  11.103  0.00  0.00    +0.000 A 
ENDROOT
BRANCH   1   7
ATOM      7  C   UNL     1      46.800   5.581  13.148  0.00  0.00    +0.000 C 
BRANCH   7   8
ATOM      8  C   UNL     1      47.017   4.721  14.397  0.00  0.00    +0.000 C 
BRANCH   8   9
ATOM      9  N   UNL     1      47.225   3.317  14.040  0.00  0.00    +0.000 NA
ATOM     10  H   UNL     1      48.036   3.242  13.427  0.00  0.00    +0.000 HD
ATOM     11  H   UNL     1      46.429   2.983  13.498  0.00  0.00    +0.000 HD
ENDBRANCH   8   9
ENDBRANCH   7   8
ENDBRANCH   1   7
BRANCH   5  12
ATOM     12  C   UNL     1      44.216   4.415   8.958  0.00  0.00    +0.000 C 
BRANCH  12  13
ATOM     13  C   UNL     1      44.890   3.114   8.717  0.00  0.00    +0.000 A 
ATOM     14  N   UNL     1      44.447   1.996   9.318  0.00  0.00    +0.000 NA
ATOM     15  O   UNL     1      45.264   0.974   8.865  0.00  0.00    +0.000 OA
ATOM     16  C   UNL     1      46.202   1.482   8.026  0.00  0.00    +0.000 A 
ATOM     17  C   UNL     1      47.185   0.784   7.351  0.00  0.00    +0.000 A 
ATOM     18  N   UNL     1      48.044   1.484   6.563  0.00  0.00    +0.000 NA
ATOM     19  C   UNL     1      47.913   2.829   6.482  0.00  0.00    +0.000 A 
ATOM     20  C   UNL     1      46.946   3.579   7.142  0.00  0.00    +0.000 A 
ATOM     21  C   UNL     1      46.042   2.853   7.929  0.00  0.00    +0.000 A 
ENDBRANCH  12  13
ENDBRANCH   5  12
TORSDOF 5
ENDMDL
MODEL 2
REMARK VINA RESULT:    -7.649      2.130      5.947
REMARK INTER + INTRA:         -10.267
REMARK INTER:                  -9.694
REMARK INTRA:                  -0.574
REMARK UNBOUND:                -0.607
REMARK  Name = 
REMARK  5 active torsions:
REMARK  status: ('A' for Active; 'I' for Inactive)
REMARK    1  A    between atoms: N_1  and  C_2
REMARK    2  A    between atoms: C_2  and  C_3
REMARK    3  A    between atoms: C_3  and  C_4
REMARK    4  A    between atoms: C_8  and  C_9
REMARK    5  A    between atoms: C_9  and  C_10
REMARK                            x       y       z     vdW  Elec       q    Type
REMARK                         _______ _______ _______ _____ _____    ______ ____
ROOT
ATOM      1  C   UNL     1      46.063   3.347   7.918  0.00  0.00    +0.000 A 
ATOM      2  C   UNL     1      45.715   2.014   8.147  0.00  0.00    +0.000 A 
ATOM      3  C   UNL     1      44.791   1.692   9.144  0.00  0.00    +0.000 A 
ATOM      4  C   UNL     1      44.234   2.694   9.943  0.00  0.00    +0.000 A 
ATOM      5  C   UNL     1      44.624   4.032   9.775  0.00  0.00    +0.000 A 
ATOM      6  C   UNL     1      45.521   4.349   8.741  0.00  0.00    +0.000 A 
ENDROOT
BRANCH   1   7
ATOM      7  C   UNL     1      47.013   3.715   6.799  0.00  0.00    +0.000 C 
BRANCH   7   8
ATOM      8  C   UNL     1      47.080   2.646   5.703  0.00  0.00    +0.000 C 
BRANCH   8   9
ATOM      9  N   UNL     1      48.374   1.962   5.714  0.00  0.00    +0.000 NA
ATOM     10  H   UNL     1      48.395   1.270   4.967  0.00  0.00    +0.000 HD
ATOM     11  H   UNL     1      48.475   1.442   6.585  0.00  0.00    +0.000 HD
ENDBRANCH   8   9
ENDBRANCH   7   8
ENDBRANCH   1   7
BRANCH   5  12
ATOM     12  C   UNL     1      44.142   5.114  10.723  0.00  0.00    +0.000 C 
BRANCH  12  13
ATOM     13  C   UNL     1      44.917   4.984  11.983  0.00  0.00    +0.000 A 
ATOM     14  N   UNL     1      44.464   4.213  12.985  0.00  0.00    +0.000 NA
ATOM     15  O   UNL     1      45.421   4.289  13.983  0.00  0.00    +0.000 OA
ATOM     16  C   UNL     1      46.419   5.120  13.592  0.00  0.00    +0.000 A 
ATOM     17  C   UNL     1      47.565   5.439  14.296  0.00  0.00    +0.000 A 
ATOM     18  N   UNL     1      48.443   6.310  13.731  0.00  0.00    +0.000 NA
ATOM     19  C   UNL     1      48.157   6.837  12.517  0.00  0.00    +0.000 A 
ATOM     20  C   UNL     1      47.020   6.553  11.770  0.00  0.00    +0.000 A 
ATOM     21  C   UNL     1      46.130   5.632  12.339  0.00  0.00    +0.000 A 
ENDBRANCH  12  13
ENDBRANCH   5  12
TORSDOF 5
ENDMDL
MODEL 3
REMARK VINA RESULT:    -7.180      2.410      6.045
REMARK INTER + INTRA:          -9.676
REMARK INTER:                  -8.948
REMARK INTRA:                  -0.728
REMARK UNBOUND:                -0.607
REMARK  Name = 
REMARK  5 active torsions:
REMARK  status: ('A' for Active; 'I' for Inactive)
REMARK    1  A    between atoms: N_1  and  C_2
REMARK    2  A    between atoms: C_2  and  C_3
REMARK    3  A    between atoms: C_3  and  C_4
REMARK    4  A    between atoms: C_8  and  C_9
REMARK    5  A    between atoms: C_9  and  C_10
REMARK                            x       y       z     vdW  Elec       q    Type
REMARK                         _______ _______ _______ _____ _____    ______ ____
ROOT
ATOM      1  C   UNL     1      45.695   3.508   8.346  0.00  0.00    +0.000 A 
ATOM      2  C   UNL     1      45.330   2.221   8.747  0.00  0.00    +0.000 A 
ATOM      3  C   UNL     1      44.430   2.045   9.802  0.00  0.00    +0.000 A 
ATOM      4  C   UNL     1      43.919   3.148  10.488  0.00  0.00    +0.000 A 
ATOM      5  C   UNL     1      44.329   4.446  10.146  0.00  0.00    +0.000 A 
ATOM      6  C   UNL     1      45.199   4.615   9.055  0.00  0.00    +0.000 A 
ENDROOT
BRANCH   1   7
ATOM      7  C   UNL     1      46.617   3.714   7.164  0.00  0.00    +0.000 C 
BRANCH   7   8
ATOM      8  C   UNL     1      47.296   2.419   6.708  0.00  0.00    +0.000 C 
BRANCH   8   9
ATOM      9  N   UNL     1      48.677   2.669   6.290  0.00  0.00    +0.000 NA
ATOM     10  H   UNL     1      49.150   3.220   7.004  0.00  0.00    +0.000 HD
ATOM     11  H   UNL     1      48.677   3.239   5.445  0.00  0.00    +0.000 HD
ENDBRANCH   8   9
ENDBRANCH   7   8
ENDBRANCH   1   7
BRANCH   5  12
ATOM     12  C   UNL     1      43.897   5.647  10.967  0.00  0.00    +0.000 C 
BRANCH  12  13
ATOM     13  C   UNL     1      45.106   6.190  11.637  0.00  0.00    +0.000 A 
ATOM     14  N   UNL     1      45.594   7.393  11.289  0.00  0.00    +0.000 NA
ATOM     15  O   UNL     1      46.689   7.608  12.110  0.00  0.00    +0.000 OA
ATOM     16  C   UNL     1      46.869   6.533  12.917  0.00  0.00    +0.000 A 
ATOM     17  C   UNL     1      47.837   6.370  13.889  0.00  0.00    +0.000 A 
ATOM     18  N   UNL     1      47.858   5.203  14.586  0.00  0.00    +0.000 NA
ATOM     19  C   UNL     1      46.945   4.246  14.293  0.00  0.00    +0.000 A 
ATOM     20  C   UNL     1      45.955   4.357  13.324  0.00  0.00    +0.000 A 
ATOM     21  C   UNL     1      45.914   5.573  12.628  0.00  0.00    +0.000 A 
ENDBRANCH  12  13
ENDBRANCH   5  12
TORSDOF 5
ENDMDL
MODEL 4
REMARK VINA RESULT:    -7.066      1.728      2.659
REMARK INTER + INTRA:          -9.532
REMARK INTER:                  -8.921
REMARK INTRA:                  -0.610
REMARK UNBOUND:                -0.607
REMARK  Name = 
REMARK  5 active torsions:
REMARK  status: ('A' for Active; 'I' for Inactive)
REMARK    1  A    between atoms: N_1  and  C_2
REMARK    2  A    between atoms: C_2  and  C_3
REMARK    3  A    between atoms: C_3  and  C_4
REMARK    4  A    between atoms: C_8  and  C_9
REMARK    5  A    between atoms: C_9  and  C_10
REMARK                            x       y       z     vdW  Elec       q    Type
REMARK                         _______ _______ _______ _____ _____    ______ ____
ROOT
ATOM      1  C   UNL     1      46.507   6.368  13.059  0.00  0.00    +0.000 A 
ATOM      2  C   UNL     1      46.822   7.658  12.624  0.00  0.00    +0.000 A 
ATOM      3  C   UNL     1      45.913   8.374  11.840  0.00  0.00    +0.000 A 
ATOM      4  C   UNL     1      44.702   7.796  11.454  0.00  0.00    +0.000 A 
ATOM      5  C   UNL     1      44.398   6.476  11.823  0.00  0.00    +0.000 A 
ATOM      6  C   UNL     1      45.299   5.780  12.648  0.00  0.00    +0.000 A 
ENDROOT
BRANCH   1   7
ATOM      7  C   UNL     1      47.453   5.607  13.963  0.00  0.00    +0.000 C 
BRANCH   7   8
ATOM      8  C   UNL     1      46.768   4.453  14.701  0.00  0.00    +0.000 C 
BRANCH   8   9
ATOM      9  N   UNL     1      47.478   3.192  14.482  0.00  0.00    +0.000 NA
ATOM     10  H   UNL     1      47.873   2.871  15.364  0.00  0.00    +0.000 HD
ATOM     11  H   UNL     1      48.268   3.352  13.858  0.00  0.00    +0.000 HD
ENDBRANCH   8   9
ENDBRANCH   7   8
ENDBRANCH   1   7
BRANCH   5  12
ATOM     12  C   UNL     1      43.156   5.781  11.298  0.00  0.00    +0.000 C 
BRANCH  12  13
ATOM     13  C   UNL     1      43.557   4.424  10.849  0.00  0.00    +0.000 A 
ATOM     14  N   UNL     1      43.061   3.332  11.454  0.00  0.00    +0.000 NA
ATOM     15  O   UNL     1      43.606   2.248  10.787  0.00  0.00    +0.000 OA
ATOM     16  C   UNL     1      44.442   2.689   9.814  0.00  0.00    +0.000 A 
ATOM     17  C   UNL     1      45.160   1.921   8.916  0.00  0.00    +0.000 A 
ATOM     18  N   UNL     1      45.958   2.558   8.020  0.00  0.00    +0.000 NA
ATOM     19  C   UNL     1      46.031   3.911   8.050  0.00  0.00    +0.000 A 
ATOM     20  C   UNL     1      45.335   4.729   8.932  0.00  0.00    +0.000 A 
ATOM     21  C   UNL     1      44.488   4.073   9.835  0.00  0.00    +0.000 A 
ENDBRANCH  12  13
ENDBRANCH   5  12
TORSDOF 5
ENDMDL
MODEL 5
REMARK VINA RESULT:    -6.462      2.166      2.646
REMARK INTER + INTRA:          -8.769
REMARK INTER:                  -9.503
REMARK INTRA:                   0.734
REMARK UNBOUND:                -0.607
REMARK  Name = 
REMARK  5 active torsions:
REMARK  status: ('A' for Active; 'I' for Inactive)
REMARK    1  A    between atoms: N_1  and  C_2
REMARK    2  A    between atoms: C_2  and  C_3
REMARK    3  A    between atoms: C_3  and  C_4
REMARK    4  A    between atoms: C_8  and  C_9
REMARK    5  A    between atoms: C_9  and  C_10
REMARK                            x       y       z     vdW  Elec       q    Type
REMARK                         _______ _______ _______ _____ _____    ______ ____
ROOT
ATOM      1  C   UNL     1      45.120   5.913  11.860  0.00  0.00    +0.000 A 
ATOM      2  C   UNL     1      44.606   5.514  13.096  0.00  0.00    +0.000 A 
ATOM      3  C   UNL     1      44.005   4.260  13.232  0.00  0.00    +0.000 A 
ATOM      4  C   UNL     1      43.879   3.411  12.130  0.00  0.00    +0.000 A 
ATOM      5  C   UNL     1      44.325   3.824  10.865  0.00  0.00    +0.000 A 
ATOM      6  C   UNL     1      44.968   5.068  10.747  0.00  0.00    +0.000 A 
ENDROOT
BRANCH   1   7
ATOM      7  C   UNL     1      45.832   7.241  11.713  0.00  0.00    +0.000 C 
BRANCH   7   8
ATOM      8  C   UNL     1      44.864   8.423  11.602  0.00  0.00    +0.000 C 
BRANCH   8   9
ATOM      9  N   UNL     1      43.535   7.978  11.182  0.00  0.00    +0.000 NA
ATOM     10  H   UNL     1      43.609   7.056  10.754  0.00  0.00    +0.000 HD
ATOM     11  H   UNL     1      43.183   8.600  10.456  0.00  0.00    +0.000 HD
ENDBRANCH   8   9
ENDBRANCH   7   8
ENDBRANCH   1   7
BRANCH   5  12
ATOM     12  C   UNL     1      44.071   2.980   9.630  0.00  0.00    +0.000 C 
BRANCH  12  13
ATOM     13  C   UNL     1      45.136   3.295   8.644  0.00  0.00    +0.000 A 
ATOM     14  N   UNL     1      45.315   4.556   8.216  0.00  0.00    +0.000 NA
ATOM     15  O   UNL     1      46.387   4.509   7.340  0.00  0.00    +0.000 OA
ATOM     16  C   UNL     1      46.822   3.229   7.225  0.00  0.00    +0.000 A 
ATOM     17  C   UNL     1      47.883   2.772   6.466  0.00  0.00    +0.000 A 
ATOM     18  N   UNL     1      48.152   1.440   6.474  0.00  0.00    +0.000 NA
ATOM     19  C   UNL     1      47.367   0.616   7.209  0.00  0.00    +0.000 A 
ATOM     20  C   UNL     1      46.287   1.022   7.985  0.00  0.00    +0.000 A 
ATOM     21  C   UNL     1      46.031   2.400   8.001  0.00  0.00    +0.000 A 
ENDBRANCH  12  13
ENDBRANCH   5  12
TORSDOF 5
ENDMDL
MODEL 6
REMARK VINA RESULT:    -6.158      2.964      5.970
REMARK INTER + INTRA:          -8.385
REMARK INTER:                  -7.832
REMARK INTRA:                  -0.553
REMARK UNBOUND:                -0.607
REMARK  Name = 
REMARK  5 active torsions:
REMARK  status: ('A' for Active; 'I' for Inactive)
REMARK    1  A    between atoms: N_1  and  C_2
REMARK    2  A    between atoms: C_2  and  C_3
REMARK    3  A    between atoms: C_3  and  C_4
REMARK    4  A    between atoms: C_8  and  C_9
REMARK    5  A    between atoms: C_9  and  C_10
REMARK                            x       y       z     vdW  Elec       q    Type
REMARK                         _______ _______ _______ _____ _____    ______ ____
ROOT
ATOM      1  C   UNL     1      44.434   3.974   9.865  0.00  0.00    +0.000 A 
ATOM      2  C   UNL     1      43.898   2.829  10.459  0.00  0.00    +0.000 A 
ATOM      3  C   UNL     1      43.592   2.825  11.822  0.00  0.00    +0.000 A 
ATOM      4  C   UNL     1      43.852   3.950  12.609  0.00  0.00    +0.000 A 
ATOM      5  C   UNL     1      44.455   5.084  12.045  0.00  0.00    +0.000 A 
ATOM      6  C   UNL     1      44.718   5.094  10.665  0.00  0.00    +0.000 A 
ENDROOT
BRANCH   1   7
ATOM      7  C   UNL     1      44.709   4.014   8.377  0.00  0.00    +0.000 C 
BRANCH   7   8
ATOM      8  C   UNL     1      46.058   3.392   8.006  0.00  0.00    +0.000 C 
BRANCH   8   9
ATOM      9  N   UNL     1      46.758   4.206   7.011  0.00  0.00    +0.000 NA
ATOM     10  H   UNL     1      46.621   3.799   6.088  0.00  0.00    +0.000 HD
ATOM     11  H   UNL     1      47.760   4.173   7.190  0.00  0.00    +0.000 HD
ENDBRANCH   8   9
ENDBRANCH   7   8
ENDBRANCH   1   7
BRANCH   5  12
ATOM     12  C   UNL     1      44.876   6.259  12.908  0.00  0.00    +0.000 C 
BRANCH  12  13
ATOM     13  C   UNL     1      46.360   6.284  12.938  0.00  0.00    +0.000 A 
ATOM     14  N   UNL     1      47.050   5.221  13.383  0.00  0.00    +0.000 NA
ATOM     15  O   UNL     1      48.388   5.557  13.254  0.00  0.00    +0.000 OA
ATOM     16  C   UNL     1      48.493   6.819  12.767  0.00  0.00    +0.000 A 
ATOM     17  C   UNL     1      49.654   7.509  12.477  0.00  0.00    +0.000 A 
ATOM     18  N   UNL     1      49.546   8.779  12.006  0.00  0.00    +0.000 NA
ATOM     19  C   UNL     1      48.314   9.321  11.852  0.00  0.00    +0.000 A 
ATOM     20  C   UNL     1      47.116   8.673  12.132  0.00  0.00    +0.000 A 
ATOM     21  C   UNL     1      47.228   7.352  12.588  0.00  0.00    +0.000 A 
ENDBRANCH  12  13
ENDBRANCH   5  12
TORSDOF 5
ENDMDL
MODEL 7
REMARK VINA RESULT:    -5.859      2.284      6.680
REMARK INTER + INTRA:          -8.007
REMARK INTER:                  -7.645
REMARK INTRA:                  -0.361
REMARK UNBOUND:                -0.607
REMARK  Name = 
REMARK  5 active torsions:
REMARK  status: ('A' for Active; 'I' for Inactive)
REMARK    1  A    between atoms: N_1  and  C_2
REMARK    2  A    between atoms: C_2  and  C_3
REMARK    3  A    between atoms: C_3  and  C_4
REMARK    4  A    between atoms: C_8  and  C_9
REMARK    5  A    between atoms: C_9  and  C_10
REMARK                            x       y       z     vdW  Elec       q    Type
REMARK                         _______ _______ _______ _____ _____    ______ ____
ROOT
ATOM      1  C   UNL     1      44.420   4.585  10.555  0.00  0.00    +0.000 A 
ATOM      2  C   UNL     1      43.214   4.479  11.251  0.00  0.00    +0.000 A 
ATOM      3  C   UNL     1      43.134   4.899  12.581  0.00  0.00    +0.000 A 
ATOM      4  C   UNL     1      44.264   5.394  13.237  0.00  0.00    +0.000 A 
ATOM      5  C   UNL     1      45.501   5.442  12.576  0.00  0.00    +0.000 A 
ATOM      6  C   UNL     1      45.561   5.058  11.225  0.00  0.00    +0.000 A 
ENDROOT
BRANCH   1   7
ATOM      7  C   UNL     1      44.504   4.195   9.095  0.00  0.00    +0.000 C 
BRANCH   7   8
ATOM      8  C   UNL     1      45.270   2.887   8.874  0.00  0.00    +0.000 C 
BRANCH   8   9
ATOM      9  N   UNL     1      44.578   1.760   9.501  0.00  0.00    +0.000 NA
ATOM     10  H   UNL     1      44.639   0.946   8.891  0.00  0.00    +0.000 HD
ATOM     11  H   UNL     1      43.586   1.976   9.588  0.00  0.00    +0.000 HD
ENDBRANCH   8   9
ENDBRANCH   7   8
ENDBRANCH   1   7
BRANCH   5  12
ATOM     12  C   UNL     1      46.767   5.840  13.310  0.00  0.00    +0.000 C 
BRANCH  12  13
ATOM     13  C   UNL     1      47.151   4.706  14.189  0.00  0.00    +0.000 A 
ATOM     14  N   UNL     1      47.091   3.443  13.736  0.00  0.00    +0.000 NA
ATOM     15  O   UNL     1      47.536   2.646  14.777  0.00  0.00    +0.000 OA
ATOM     16  C   UNL     1      47.828   3.423  15.850  0.00  0.00    +0.000 A 
ATOM     17  C   UNL     1      48.320   3.010  17.073  0.00  0.00    +0.000 A 
ATOM     18  N   UNL     1      48.536   3.950  18.030  0.00  0.00    +0.000 NA
ATOM     19  C   UNL     1      48.250   5.246  17.755  0.00  0.00    +0.000 A 
ATOM     20  C   UNL     1      47.751   5.714  16.545  0.00  0.00    +0.000 A 
ATOM     21  C   UNL     1      47.558   4.747  15.548  0.00  0.00    +0.000 A 
ENDBRANCH  12  13
ENDBRANCH   5  12
TORSDOF 5
ENDMDL
MODEL 8
REMARK VINA RESULT:    -5.772      4.117      8.075
REMARK INTER + INTRA:          -7.897
REMARK INTER:                  -7.342
REMARK INTRA:                  -0.555
REMARK UNBOUND:                -0.607
REMARK  Name = 
REMARK  5 active torsions:
REMARK  status: ('A' for Active; 'I' for Inactive)
REMARK    1  A    between atoms: N_1  and  C_2
REMARK    2  A    between atoms: C_2  and  C_3
REMARK    3  A    between atoms: C_3  and  C_4
REMARK    4  A    between atoms: C_8  and  C_9
REMARK    5  A    between atoms: C_9  and  C_10
REMARK                            x       y       z     vdW  Elec       q    Type
REMARK                         _______ _______ _______ _____ _____    ______ ____
ROOT
ATOM      1  C   UNL     1      46.101   4.926  12.850  0.00  0.00    +0.000 A 
ATOM      2  C   UNL     1      46.919   6.028  12.590  0.00  0.00    +0.000 A 
ATOM      3  C   UNL     1      47.874   6.427  13.529  0.00  0.00    +0.000 A 
ATOM      4  C   UNL     1      47.994   5.755  14.747  0.00  0.00    +0.000 A 
ATOM      5  C   UNL     1      47.133   4.691  15.056  0.00  0.00    +0.000 A 
ATOM      6  C   UNL     1      46.206   4.268  14.088  0.00  0.00    +0.000 A 
ENDROOT
BRANCH   1   7
ATOM      7  C   UNL     1      45.108   4.442  11.815  0.00  0.00    +0.000 C 
BRANCH   7   8
ATOM      8  C   UNL     1      43.822   3.889  12.440  0.00  0.00    +0.000 C 
BRANCH   8   9
ATOM      9  N   UNL     1      43.003   3.206  11.438  0.00  0.00    +0.000 NA
ATOM     10  H   UNL     1      42.470   3.896  10.912  0.00  0.00    +0.000 HD
ATOM     11  H   UNL     1      42.318   2.614  11.906  0.00  0.00    +0.000 HD
ENDBRANCH   8   9
ENDBRANCH   7   8
ENDBRANCH   1   7
BRANCH   5  12
ATOM     12  C   UNL     1      47.151   4.040  16.426  0.00  0.00    +0.000 C 
BRANCH  12  13
ATOM     13  C   UNL     1      48.444   3.323  16.565  0.00  0.00    +0.000 A 
ATOM     14  N   UNL     1      48.681   2.203  15.862  0.00  0.00    +0.000 NA
ATOM     15  O   UNL     1      49.965   1.810  16.198  0.00  0.00    +0.000 OA
ATOM     16  C   UNL     1      50.477   2.669  17.114  0.00  0.00    +0.000 A 
ATOM     17  C   UNL     1      51.737   2.634  17.682  0.00  0.00    +0.000 A 
ATOM     18  N   UNL     1      52.055   3.585  18.599  0.00  0.00    +0.000 NA
ATOM     19  C   UNL     1      51.129   4.517  18.928  0.00  0.00    +0.000 A 
ATOM     20  C   UNL     1      49.849   4.595  18.391  0.00  0.00    +0.000 A 
ATOM     21  C   UNL     1      49.532   3.633  17.423  0.00  0.00    +0.000 A 
ENDBRANCH  12  13
ENDBRANCH   5  12
TORSDOF 5
ENDMDL
MODEL 9
REMARK VINA RESULT:    -5.438      3.856      5.872
REMARK INTER + INTRA:          -7.475
REMARK INTER:                  -6.896
REMARK INTRA:                  -0.579
REMARK UNBOUND:                -0.607
REMARK  Name = 
REMARK  5 active torsions:
REMARK  status: ('A' for Active; 'I' for Inactive)
REMARK    1  A    between atoms: N_1  and  C_2
REMARK    2  A    between atoms: C_2  and  C_3
REMARK    3  A    between atoms: C_3  and  C_4
REMARK    4  A    between atoms: C_8  and  C_9
REMARK    5  A    between atoms: C_9  and  C_10
REMARK                            x       y       z     vdW  Elec       q    Type
REMARK                         _______ _______ _______ _____ _____    ______ ____
ROOT
ATOM      1  C   UNL     1      47.780   4.702  16.505  0.00  0.00    +0.000 A 
ATOM      2  C   UNL     1      48.532   5.731  17.077  0.00  0.00    +0.000 A 
ATOM      3  C   UNL     1      48.911   6.833  16.306  0.00  0.00    +0.000 A 
ATOM      4  C   UNL     1      48.575   6.899  14.952  0.00  0.00    +0.000 A 
ATOM      5  C   UNL     1      47.881   5.842  14.343  0.00  0.00    +0.000 A 
ATOM      6  C   UNL     1      47.466   4.760  15.136  0.00  0.00    +0.000 A 
ENDROOT
BRANCH   1   7
ATOM      7  C   UNL     1      47.306   3.535  17.344  0.00  0.00    +0.000 C 
BRANCH   7   8
ATOM      8  C   UNL     1      48.425   2.922  18.193  0.00  0.00    +0.000 C 
BRANCH   8   9
ATOM      9  N   UNL     1      48.235   3.228  19.612  0.00  0.00    +0.000 NA
ATOM     10  H   UNL     1      48.919   3.925  19.900  0.00  0.00    +0.000 HD
ATOM     11  H   UNL     1      48.428   2.395  20.167  0.00  0.00    +0.000 HD
ENDBRANCH   8   9
ENDBRANCH   7   8
ENDBRANCH   1   7
BRANCH   5  12
ATOM     12  C   UNL     1      47.632   5.829  12.847  0.00  0.00    +0.000 C 
BRANCH  12  13
ATOM     13  C   UNL     1      46.163   5.903  12.637  0.00  0.00    +0.000 A 
ATOM     14  N   UNL     1      45.499   7.046  12.872  0.00  0.00    +0.000 NA
ATOM     15  O   UNL     1      44.176   6.787  12.556  0.00  0.00    +0.000 OA
ATOM     16  C   UNL     1      44.048   5.494  12.165  0.00  0.00    +0.000 A 
ATOM     17  C   UNL     1      42.895   4.856  11.749  0.00  0.00    +0.000 A 
ATOM     18  N   UNL     1      42.974   3.543  11.409  0.00  0.00    +0.000 NA
ATOM     19  C   UNL     1      44.168   2.910  11.505  0.00  0.00    +0.000 A 
ATOM     20  C   UNL     1      45.355   3.502  11.921  0.00  0.00    +0.000 A 
ATOM     21  C   UNL     1      45.279   4.865  12.240  0.00  0.00    +0.000 A 
ENDBRANCH  12  13
ENDBRANCH   5  12
TORSDOF 5
ENDMDL
