MODEL 1
REMARK VINA RESULT:    -9.178      0.000      0.000
REMARK INTER + INTRA:         -12.032
REMARK INTER:                 -11.324
REMARK INTRA:                  -0.708
REMARK UNBOUND:                -0.708
REMARK  Name = 
REMARK  4 active torsions:
REMARK  status: ('A' for Active; 'I' for Inactive)
REMARK    1  A    between atoms: C_2  and  C_4
REMARK    2  A    between atoms: N_8  and  C_9
REMARK    3  A    between atoms: C_9  and  C_10
REMARK    4  A    between atoms: C_14  and  C_15
REMARK                            x       y       z     vdW  Elec       q    Type
REMARK                         _______ _______ _______ _____ _____    ______ ____
ROOT
ATOM      1  C   UNL     1      43.541   4.485  11.151  0.00  0.00    +0.000 C 
ENDROOT
BRANCH   1   6
ATOM      2  C   UNL     1      46.366   2.318   7.724  0.00  0.00    +0.000 A 
ATOM      3  C   UNL     1      45.572   1.858   8.744  0.00  0.00    +0.000 A 
ATOM      4  N   UNL     1      44.719   2.643   9.435  0.00  0.00    +0.000 NA
ATOM      5  C   UNL     1      44.674   3.943   9.109  0.00  0.00    +0.000 A 
ATOM      6  N   UNL     1      43.781   4.779   9.747  0.00  0.00    +0.000 N 
ATOM      7  N   UNL     1      45.426   4.492   8.144  0.00  0.00    +0.000 NA
ATOM      8  C   UNL     1      46.265   3.667   7.472  0.00  0.00    +0.000 A 
ATOM      9  H   UNL     1      44.052   5.737   9.557  0.00  0.00    +0.000 HD
BRANCH   2  11
ATOM     10  N   UNL     1      48.414   2.059   6.448  0.00  0.00    +0.000 N 
ATOM     11  C   UNL     1      47.297   1.468   6.973  0.00  0.00    +0.000 C 
ATOM     12  O   UNL     1      47.092   0.268   6.843  0.00  0.00    +0.000 OA
ATOM     13  H   UNL     1      49.082   1.438   6.003  0.00  0.00    +0.000 HD
ATOM     14  H   UNL     1      48.749   2.969   6.724  0.00  0.00    +0.000 HD
ENDBRANCH   2  11
ENDBRANCH   1   6
BRANCH   1  15
ATOM     15  C   UNL     1      44.751   4.870  11.982  0.00  0.00    +0.000 A 
ATOM     16  C   UNL     1      45.309   3.932  12.848  0.00  0.00    +0.000 A 
ATOM     17  C   UNL     1      46.429   4.285  13.585  0.00  0.00    +0.000 A 
ATOM     18  C   UNL     1      46.974   5.553  13.422  0.00  0.00    +0.000 A 
ATOM     19  C   UNL     1      46.391   6.442  12.517  0.00  0.00    +0.000 A 
ATOM     20  N   UNL     1      45.277   6.111  11.813  0.00  0.00    +0.000 NA
BRANCH  19  21
ATOM     21  C   UNL     1      46.956   7.780  12.238  0.00  0.00    +0.000 A 
ATOM     22  C   UNL     1      48.329   7.947  11.968  0.00  0.00    +0.000 A 
ATOM     23  C   UNL     1      48.881   9.212  11.726  0.00  0.00    +0.000 A 
ATOM     24  C   UNL     1      48.067  10.340  11.752  0.00  0.00    +0.000 A 
ATOM     25  C   UNL     1      46.714  10.192  12.016  0.00  0.00    +0.000 A 
ATOM     26  F   UNL     1      45.924  11.274  12.049  0.00  0.00    +0.000 F 
ATOM     27  C   UNL     1      46.158   8.938  12.258  0.00  0.00    +0.000 A 
ENDBRANCH  19  21
ENDBRANCH   1  15
TORSDOF 4
ENDMDL
MODEL 2
REMARK VINA RESULT:    -8.381      2.423      3.864
REMARK INTER + INTRA:         -11.049
REMARK INTER:                 -10.379
REMARK INTRA:                  -0.670
REMARK UNBOUND:                -0.708
REMARK  Name = 
REMARK  4 active torsions:
REMARK  status: ('A' for Active; 'I' for Inactive)
REMARK    1  A    between atoms: C_2  and  C_4
REMARK    2  A    between atoms: N_8  and  C_9
REMARK    3  A    between atoms: C_9  and  C_10
REMARK    4  A    between atoms: C_14  and  C_15
REMARK                            x       y       z     vdW  Elec       q    Type
REMARK                         _______ _______ _______ _____ _____    ______ ____
ROOT
ATOM      1  C   UNL     1      44.233   4.812  11.297  0.00  0.00    +0.000 C 
ENDROOT
BRANCH   1   6
ATOM      2  C   UNL     1      46.464   2.351   7.638  0.00  0.00    +0.000 A 
ATOM      3  C   UNL     1      45.810   1.979   8.786  0.00  0.00    +0.000 A 
ATOM      4  N   UNL     1      45.091   2.834   9.544  0.00  0.00    +0.000 NA
ATOM      5  C   UNL     1      45.042   4.116   9.150  0.00  0.00    +0.000 A 
ATOM      6  N   UNL     1      44.278   5.020   9.858  0.00  0.00    +0.000 N 
ATOM      7  N   UNL     1      45.664   4.580   8.058  0.00  0.00    +0.000 NA
ATOM      8  C   UNL     1      46.370   3.687   7.324  0.00  0.00    +0.000 A 
ATOM      9  H   UNL     1      44.549   5.954   9.575  0.00  0.00    +0.000 HD
BRANCH   2  11
ATOM     10  N   UNL     1      48.241   1.954   6.034  0.00  0.00    +0.000 N 
ATOM     11  C   UNL     1      47.249   1.425   6.814  0.00  0.00    +0.000 C 
ATOM     12  O   UNL     1      47.038   0.220   6.844  0.00  0.00    +0.000 OA
ATOM     13  H   UNL     1      48.821   1.288   5.535  0.00  0.00    +0.000 HD
ATOM     14  H   UNL     1      48.610   2.885   6.151  0.00  0.00    +0.000 HD
ENDBRANCH   2  11
ENDBRANCH   1   6
BRANCH   1  15
ATOM     15  C   UNL     1      45.326   5.616  11.977  0.00  0.00    +0.000 A 
ATOM     16  C   UNL     1      45.617   6.898  11.516  0.00  0.00    +0.000 A 
ATOM     17  C   UNL     1      46.600   7.633  12.159  0.00  0.00    +0.000 A 
ATOM     18  C   UNL     1      47.249   7.081  13.257  0.00  0.00    +0.000 A 
ATOM     19  C   UNL     1      46.895   5.803  13.694  0.00  0.00    +0.000 A 
ATOM     20  N   UNL     1      45.952   5.067  13.051  0.00  0.00    +0.000 NA
BRANCH  19  21
ATOM     21  C   UNL     1      47.491   5.179  14.896  0.00  0.00    +0.000 A 
ATOM     22  C   UNL     1      47.213   3.840  15.233  0.00  0.00    +0.000 A 
ATOM     23  C   UNL     1      47.752   3.244  16.381  0.00  0.00    +0.000 A 
ATOM     24  C   UNL     1      48.582   3.981  17.220  0.00  0.00    +0.000 A 
ATOM     25  C   UNL     1      48.864   5.302  16.902  0.00  0.00    +0.000 A 
ATOM     26  F   UNL     1      49.657   6.020  17.708  0.00  0.00    +0.000 F 
ATOM     27  C   UNL     1      48.333   5.900  15.762  0.00  0.00    +0.000 A 
ENDBRANCH  19  21
ENDBRANCH   1  15
TORSDOF 4
ENDMDL
MODEL 3
REMARK VINA RESULT:    -8.007      4.948      8.115
REMARK INTER + INTRA:         -10.587
REMARK INTER:                 -10.081
REMARK INTRA:                  -0.506
REMARK UNBOUND:                -0.708
REMARK  Name = 
REMARK  4 active torsions:
REMARK  status: ('A' for Active; 'I' for Inactive)
REMARK    1  A    between atoms: C_2  and  C_4
REMARK    2  A    between atoms: N_8  and  C_9
REMARK    3  A    between atoms: C_9  and  C_10
REMARK    4  A    between atoms: C_14  and  C_15
REMARK                            x       y       z     vdW  Elec       q    Type
REMARK                         _______ _______ _______ _____ _____    ______ ____
ROOT
ATOM      1  C   UNL     1      45.392   3.847  13.634  0.00  0.00    +0.000 C 
ENDROOT
BRANCH   1   6
ATOM      2  C   UNL     1      48.525   4.413  17.413  0.00  0.00    +0.000 A 
ATOM      3  C   UNL     1      47.717   3.392  16.982  0.00  0.00    +0.000 A 
ATOM      4  N   UNL     1      47.092   3.392  15.786  0.00  0.00    +0.000 NA
ATOM      5  C   UNL     1      47.263   4.465  15.000  0.00  0.00    +0.000 A 
ATOM      6  N   UNL     1      46.690   4.494  13.745  0.00  0.00    +0.000 N 
ATOM      7  N   UNL     1      48.015   5.522  15.340  0.00  0.00    +0.000 NA
ATOM      8  C   UNL     1      48.628   5.478  16.548  0.00  0.00    +0.000 A 
ATOM      9  H   UNL     1      46.716   5.448  13.406  0.00  0.00    +0.000 HD
BRANCH   2  11
ATOM     10  N   UNL     1      48.625   3.716  19.736  0.00  0.00    +0.000 N 
ATOM     11  C   UNL     1      49.205   4.418  18.714  0.00  0.00    +0.000 C 
ATOM     12  O   UNL     1      50.265   5.008  18.870  0.00  0.00    +0.000 OA
ATOM     13  H   UNL     1      49.152   3.666  20.601  0.00  0.00    +0.000 HD
ATOM     14  H   UNL     1      47.899   3.028  19.603  0.00  0.00    +0.000 HD
ENDBRANCH   2  11
ENDBRANCH   1   6
BRANCH   1  15
ATOM     15  C   UNL     1      44.796   4.099  12.262  0.00  0.00    +0.000 A 
ATOM     16  C   UNL     1      43.710   4.965  12.139  0.00  0.00    +0.000 A 
ATOM     17  C   UNL     1      43.188   5.208  10.879  0.00  0.00    +0.000 A 
ATOM     18  C   UNL     1      43.774   4.600   9.774  0.00  0.00    +0.000 A 
ATOM     19  C   UNL     1      44.879   3.766   9.954  0.00  0.00    +0.000 A 
ATOM     20  N   UNL     1      45.378   3.502  11.189  0.00  0.00    +0.000 NA
BRANCH  19  21
ATOM     21  C   UNL     1      45.598   3.142   8.822  0.00  0.00    +0.000 A 
ATOM     22  C   UNL     1      46.060   3.916   7.739  0.00  0.00    +0.000 A 
ATOM     23  C   UNL     1      46.722   3.335   6.650  0.00  0.00    +0.000 A 
ATOM     24  C   UNL     1      46.933   1.960   6.621  0.00  0.00    +0.000 A 
ATOM     25  C   UNL     1      46.483   1.184   7.679  0.00  0.00    +0.000 A 
ATOM     26  F   UNL     1      46.677  -0.142   7.655  0.00  0.00    +0.000 F 
ATOM     27  C   UNL     1      45.825   1.755   8.765  0.00  0.00    +0.000 A 
ENDBRANCH  19  21
ENDBRANCH   1  15
TORSDOF 4
ENDMDL
MODEL 4
REMARK VINA RESULT:    -7.964      3.909      7.032
REMARK INTER + INTRA:         -10.533
REMARK INTER:                  -9.788
REMARK INTRA:                  -0.746
REMARK UNBOUND:                -0.708
REMARK  Name = 
REMARK  4 active torsions:
REMARK  status: ('A' for Active; 'I' for Inactive)
REMARK    1  A    between atoms: C_2  and  C_4
REMARK    2  A    between atoms: N_8  and  C_9
REMARK    3  A    between atoms: C_9  and  C_10
REMARK    4  A    between atoms: C_14  and  C_15
REMARK                            x       y       z     vdW  Elec       q    Type
REMARK                         _______ _______ _______ _____ _____    ______ ____
ROOT
ATOM      1  C   UNL     1      44.358   6.550  11.756  0.00  0.00    +0.000 C 
ENDROOT
BRANCH   1   6
ATOM      2  C   UNL     1      49.120   7.568  12.598  0.00  0.00    +0.000 A 
ATOM      3  C   UNL     1      48.189   8.014  11.695  0.00  0.00    +0.000 A 
ATOM      4  N   UNL     1      46.871   7.738  11.786  0.00  0.00    +0.000 NA
ATOM      5  C   UNL     1      46.471   6.967  12.809  0.00  0.00    +0.000 A 
ATOM      6  N   UNL     1      45.128   6.699  12.981  0.00  0.00    +0.000 N 
ATOM      7  N   UNL     1      47.306   6.466  13.731  0.00  0.00    +0.000 NA
ATOM      8  C   UNL     1      48.619   6.772  13.603  0.00  0.00    +0.000 A 
ATOM      9  H   UNL     1      45.040   5.928  13.631  0.00  0.00    +0.000 HD
BRANCH   2  11
ATOM     10  N   UNL     1      51.203   7.484  11.357  0.00  0.00    +0.000 N 
ATOM     11  C   UNL     1      50.554   7.863  12.500  0.00  0.00    +0.000 C 
ATOM     12  O   UNL     1      51.140   8.451  13.399  0.00  0.00    +0.000 OA
ATOM     13  H   UNL     1      52.173   7.770  11.277  0.00  0.00    +0.000 HD
ATOM     14  H   UNL     1      50.732   7.224  10.503  0.00  0.00    +0.000 HD
ENDBRANCH   2  11
ENDBRANCH   1   6
BRANCH   1  15
ATOM     15  C   UNL     1      44.252   5.084  11.378  0.00  0.00    +0.000 A 
ATOM     16  C   UNL     1      43.389   4.256  12.093  0.00  0.00    +0.000 A 
ATOM     17  C   UNL     1      43.281   2.924  11.724  0.00  0.00    +0.000 A 
ATOM     18  C   UNL     1      44.018   2.460  10.640  0.00  0.00    +0.000 A 
ATOM     19  C   UNL     1      44.844   3.342   9.942  0.00  0.00    +0.000 A 
ATOM     20  N   UNL     1      44.975   4.642  10.316  0.00  0.00    +0.000 NA
BRANCH  19  21
ATOM     21  C   UNL     1      45.602   2.939   8.738  0.00  0.00    +0.000 A 
ATOM     22  C   UNL     1      45.982   3.886   7.766  0.00  0.00    +0.000 A 
ATOM     23  C   UNL     1      46.679   3.513   6.610  0.00  0.00    +0.000 A 
ATOM     24  C   UNL     1      47.010   2.178   6.400  0.00  0.00    +0.000 A 
ATOM     25  C   UNL     1      46.643   1.233   7.347  0.00  0.00    +0.000 A 
ATOM     26  F   UNL     1      46.952  -0.055   7.149  0.00  0.00    +0.000 F 
ATOM     27  C   UNL     1      45.950   1.597   8.499  0.00  0.00    +0.000 A 
ENDBRANCH  19  21
ENDBRANCH   1  15
TORSDOF 4
ENDMDL
MODEL 5
REMARK VINA RESULT:    -7.345      5.258      7.871
REMARK INTER + INTRA:          -9.770
REMARK INTER:                  -9.114
REMARK INTRA:                  -0.656
REMARK UNBOUND:                -0.708
REMARK  Name = 
REMARK  4 active torsions:
REMARK  status: ('A' for Active; 'I' for Inactive)
REMARK    1  A    between atoms: C_2  and  C_4
REMARK    2  A    between atoms: N_8  and  C_9
REMARK    3  A    between atoms: C_9  and  C_10
REMARK    4  A    between atoms: C_14  and  C_15
REMARK                            x       y       z     vdW  Elec       q    Type
REMARK                         _______ _______ _______ _____ _____    ______ ____
ROOT
ATOM      1  C   UNL     1      48.630   6.580  15.794  0.00  0.00    +0.000 C 
ENDROOT
BRANCH   1   6
ATOM      2  C   UNL     1      50.961   2.520  17.374  0.00  0.00    +0.000 A 
ATOM      3  C   UNL     1      51.204   3.866  17.475  0.00  0.00    +0.000 A 
ATOM      4  N   UNL     1      50.305   4.813  17.134  0.00  0.00    +0.000 NA
ATOM      5  C   UNL     1      49.123   4.397  16.653  0.00  0.00    +0.000 A 
ATOM      6  N   UNL     1      48.148   5.322  16.339  0.00  0.00    +0.000 N 
ATOM      7  N   UNL     1      48.799   3.106  16.496  0.00  0.00    +0.000 NA
ATOM      8  C   UNL     1      49.730   2.189  16.855  0.00  0.00    +0.000 A 
ATOM      9  H   UNL     1      47.443   4.860  15.776  0.00  0.00    +0.000 HD
BRANCH   2  11
ATOM     10  N   UNL     1      51.457   0.255  18.089  0.00  0.00    +0.000 N 
ATOM     11  C   UNL     1      51.937   1.488  17.741  0.00  0.00    +0.000 C 
ATOM     12  O   UNL     1      53.139   1.717  17.712  0.00  0.00    +0.000 OA
ATOM     13  H   UNL     1      52.152  -0.464  18.261  0.00  0.00    +0.000 HD
ATOM     14  H   UNL     1      50.516  -0.055  17.900  0.00  0.00    +0.000 HD
ENDBRANCH   2  11
ENDBRANCH   1   6
BRANCH   1  15
ATOM     15  C   UNL     1      48.250   6.698  14.329  0.00  0.00    +0.000 A 
ATOM     16  C   UNL     1      49.103   7.369  13.455  0.00  0.00    +0.000 A 
ATOM     17  C   UNL     1      48.758   7.450  12.115  0.00  0.00    +0.000 A 
ATOM     18  C   UNL     1      47.586   6.841  11.679  0.00  0.00    +0.000 A 
ATOM     19  C   UNL     1      46.785   6.156  12.594  0.00  0.00    +0.000 A 
ATOM     20  N   UNL     1      47.104   6.097  13.914  0.00  0.00    +0.000 NA
BRANCH  19  21
ATOM     21  C   UNL     1      45.564   5.425  12.193  0.00  0.00    +0.000 A 
ATOM     22  C   UNL     1      44.720   4.836  13.154  0.00  0.00    +0.000 A 
ATOM     23  C   UNL     1      43.573   4.121  12.786  0.00  0.00    +0.000 A 
ATOM     24  C   UNL     1      43.248   3.978  11.441  0.00  0.00    +0.000 A 
ATOM     25  C   UNL     1      44.069   4.553  10.481  0.00  0.00    +0.000 A 
ATOM     26  F   UNL     1      43.766   4.414   9.183  0.00  0.00    +0.000 F 
ATOM     27  C   UNL     1      45.210   5.265  10.840  0.00  0.00    +0.000 A 
ENDBRANCH  19  21
ENDBRANCH   1  15
TORSDOF 4
ENDMDL
MODEL 6
REMARK VINA RESULT:    -7.040      5.756      7.533
REMARK INTER + INTRA:          -9.394
REMARK INTER:                  -8.913
REMARK INTRA:                  -0.480
REMARK UNBOUND:                -0.708
REMARK  Name = 
REMARK  4 active torsions:
REMARK  status: ('A' for Active; 'I' for Inactive)
REMARK    1  A    between atoms: C_2  and  C_4
REMARK    2  A    between atoms: N_8  and  C_9
REMARK    3  A    between atoms: C_9  and  C_10
REMARK    4  A    between atoms: C_14  and  C_15
REMARK                            x       y       z     vdW  Elec       q    Type
REMARK                         _______ _______ _______ _____ _____    ______ ____
ROOT
ATOM      1  C   UNL     1      47.120   3.883  15.635  0.00  0.00    +0.000 C 
ENDROOT
BRANCH   1   6
ATOM      2  C   UNL     1      45.542   4.939  11.073  0.00  0.00    +0.000 A 
ATOM      3  C   UNL     1      45.270   3.943  11.975  0.00  0.00    +0.000 A 
ATOM      4  N   UNL     1      45.675   3.973  13.262  0.00  0.00    +0.000 NA
ATOM      5  C   UNL     1      46.400   5.030  13.657  0.00  0.00    +0.000 A 
ATOM      6  N   UNL     1      46.794   5.137  14.975  0.00  0.00    +0.000 N 
ATOM      7  N   UNL     1      46.737   6.043  12.845  0.00  0.00    +0.000 NA
ATOM      8  C   UNL     1      46.305   5.974  11.563  0.00  0.00    +0.000 A 
ATOM      9  H   UNL     1      47.517   5.845  15.033  0.00  0.00    +0.000 HD
BRANCH   2  11
ATOM     10  N   UNL     1      43.817   4.524   9.417  0.00  0.00    +0.000 N 
ATOM     11  C   UNL     1      45.106   4.909   9.672  0.00  0.00    +0.000 C 
ATOM     12  O   UNL     1      45.861   5.240   8.768  0.00  0.00    +0.000 OA
ATOM     13  H   UNL     1      43.514   4.587   8.451  0.00  0.00    +0.000 HD
ATOM     14  H   UNL     1      43.096   4.476  10.121  0.00  0.00    +0.000 HD
ENDBRANCH   2  11
ENDBRANCH   1   6
BRANCH   1  15
ATOM     15  C   UNL     1      48.083   4.128  16.782  0.00  0.00    +0.000 A 
ATOM     16  C   UNL     1      47.684   4.936  17.846  0.00  0.00    +0.000 A 
ATOM     17  C   UNL     1      48.562   5.134  18.900  0.00  0.00    +0.000 A 
ATOM     18  C   UNL     1      49.802   4.505  18.876  0.00  0.00    +0.000 A 
ATOM     19  C   UNL     1      50.136   3.683  17.798  0.00  0.00    +0.000 A 
ATOM     20  N   UNL     1      49.291   3.507  16.749  0.00  0.00    +0.000 NA
BRANCH  19  21
ATOM     21  C   UNL     1      51.405   2.927  17.737  0.00  0.00    +0.000 A 
ATOM     22  C   UNL     1      51.413   1.538  17.500  0.00  0.00    +0.000 A 
ATOM     23  C   UNL     1      52.607   0.806  17.463  0.00  0.00    +0.000 A 
ATOM     24  C   UNL     1      53.823   1.451  17.666  0.00  0.00    +0.000 A 
ATOM     25  C   UNL     1      53.832   2.818  17.901  0.00  0.00    +0.000 A 
ATOM     26  F   UNL     1      54.998   3.446  18.104  0.00  0.00    +0.000 F 
ATOM     27  C   UNL     1      52.649   3.553  17.939  0.00  0.00    +0.000 A 
ENDBRANCH  19  21
ENDBRANCH   1  15
TORSDOF 4
ENDMDL
MODEL 7
REMARK VINA RESULT:    -6.922      5.918      7.916
REMARK INTER + INTRA:          -9.249
REMARK INTER:                  -8.688
REMARK INTRA:                  -0.560
REMARK UNBOUND:                -0.708
REMARK  Name = 
REMARK  4 active torsions:
REMARK  status: ('A' for Active; 'I' for Inactive)
REMARK    1  A    between atoms: C_2  and  C_4
REMARK    2  A    between atoms: N_8  and  C_9
REMARK    3  A    between atoms: C_9  and  C_10
REMARK    4  A    between atoms: C_14  and  C_15
REMARK                            x       y       z     vdW  Elec       q    Type
REMARK                         _______ _______ _______ _____ _____    ______ ____
ROOT
ATOM      1  C   UNL     1      47.114   4.308  16.237  0.00  0.00    +0.000 C 
ENDROOT
BRANCH   1   6
ATOM      2  C   UNL     1      44.798   4.741  11.893  0.00  0.00    +0.000 A 
ATOM      3  C   UNL     1      45.214   5.630  12.851  0.00  0.00    +0.000 A 
ATOM      4  N   UNL     1      46.022   5.294  13.879  0.00  0.00    +0.000 NA
ATOM      5  C   UNL     1      46.412   4.013  13.964  0.00  0.00    +0.000 A 
ATOM      6  N   UNL     1      47.281   3.627  14.963  0.00  0.00    +0.000 N 
ATOM      7  N   UNL     1      46.043   3.066  13.090  0.00  0.00    +0.000 NA
ATOM      8  C   UNL     1      45.235   3.448  12.072  0.00  0.00    +0.000 A 
ATOM      9  H   UNL     1      47.269   2.616  15.021  0.00  0.00    +0.000 HD
BRANCH   2  11
ATOM     10  N   UNL     1      43.154   6.231  10.909  0.00  0.00    +0.000 N 
ATOM     11  C   UNL     1      43.917   5.103  10.776  0.00  0.00    +0.000 C 
ATOM     12  O   UNL     1      43.887   4.432   9.754  0.00  0.00    +0.000 OA
ATOM     13  H   UNL     1      42.615   6.505  10.095  0.00  0.00    +0.000 HD
ATOM     14  H   UNL     1      43.315   6.938  11.611  0.00  0.00    +0.000 HD
ENDBRANCH   2  11
ENDBRANCH   1   6
BRANCH   1  15
ATOM     15  C   UNL     1      48.460   4.765  16.768  0.00  0.00    +0.000 A 
ATOM     16  C   UNL     1      48.639   6.105  17.109  0.00  0.00    +0.000 A 
ATOM     17  C   UNL     1      49.865   6.507  17.617  0.00  0.00    +0.000 A 
ATOM     18  C   UNL     1      50.869   5.562  17.791  0.00  0.00    +0.000 A 
ATOM     19  C   UNL     1      50.623   4.228  17.460  0.00  0.00    +0.000 A 
ATOM     20  N   UNL     1      49.434   3.833  16.937  0.00  0.00    +0.000 NA
BRANCH  19  21
ATOM     21  C   UNL     1      51.617   3.156  17.684  0.00  0.00    +0.000 A 
ATOM     22  C   UNL     1      51.319   1.813  17.381  0.00  0.00    +0.000 A 
ATOM     23  C   UNL     1      52.243   0.785  17.610  0.00  0.00    +0.000 A 
ATOM     24  C   UNL     1      53.489   1.082  18.153  0.00  0.00    +0.000 A 
ATOM     25  C   UNL     1      53.798   2.400  18.458  0.00  0.00    +0.000 A 
ATOM     26  F   UNL     1      54.993   2.693  18.988  0.00  0.00    +0.000 F 
ATOM     27  C   UNL     1      52.885   3.426  18.232  0.00  0.00    +0.000 A 
ENDBRANCH  19  21
ENDBRANCH   1  15
TORSDOF 4
ENDMDL
MODEL 8
REMARK VINA RESULT:    -6.785      5.262      8.135
REMARK INTER + INTRA:          -9.080
REMARK INTER:                  -8.579
REMARK INTRA:                  -0.501
REMARK UNBOUND:                -0.708
REMARK  Name = 
REMARK  4 active torsions:
REMARK  status: ('A' for Active; 'I' for Inactive)
REMARK    1  A    between atoms: C_2  and  C_4
REMARK    2  A    between atoms: N_8  and  C_9
REMARK    3  A    between atoms: C_9  and  C_10
REMARK    4  A    between atoms: C_14  and  C_15
REMARK                            x       y       z     vdW  Elec       q    Type
REMARK                         _______ _______ _______ _____ _____    ______ ____
ROOT
ATOM      1  C   UNL     1      48.301   7.074  14.177  0.00  0.00    +0.000 C 
ENDROOT
BRANCH   1   6
ATOM      2  C   UNL     1      50.868   4.591  17.592  0.00  0.00    +0.000 A 
ATOM      3  C   UNL     1      51.074   5.755  16.895  0.00  0.00    +0.000 A 
ATOM      4  N   UNL     1      50.123   6.354  16.148  0.00  0.00    +0.000 NA
ATOM      5  C   UNL     1      48.924   5.754  16.079  0.00  0.00    +0.000 A 
ATOM      6  N   UNL     1      47.900   6.351  15.373  0.00  0.00    +0.000 N 
ATOM      7  N   UNL     1      48.632   4.606  16.705  0.00  0.00    +0.000 NA
ATOM      8  C   UNL     1      49.615   4.041  17.447  0.00  0.00    +0.000 A 
ATOM      9  H   UNL     1      47.172   5.662  15.226  0.00  0.00    +0.000 HD
BRANCH   2  11
ATOM     10  N   UNL     1      52.016   2.575  18.305  0.00  0.00    +0.000 N 
ATOM     11  C   UNL     1      51.902   3.936  18.402  0.00  0.00    +0.000 C 
ATOM     12  O   UNL     1      52.649   4.587  19.118  0.00  0.00    +0.000 OA
ATOM     13  H   UNL     1      52.788   2.154  18.811  0.00  0.00    +0.000 HD
ATOM     14  H   UNL     1      51.601   2.028  17.566  0.00  0.00    +0.000 HD
ENDBRANCH   2  11
ENDBRANCH   1   6
BRANCH   1  15
ATOM     15  C   UNL     1      47.104   7.291  13.269  0.00  0.00    +0.000 A 
ATOM     16  C   UNL     1      46.514   8.552  13.209  0.00  0.00    +0.000 A 
ATOM     17  C   UNL     1      45.437   8.746  12.358  0.00  0.00    +0.000 A 
ATOM     18  C   UNL     1      44.992   7.687  11.576  0.00  0.00    +0.000 A 
ATOM     19  C   UNL     1      45.640   6.453  11.656  0.00  0.00    +0.000 A 
ATOM     20  N   UNL     1      46.679   6.249  12.507  0.00  0.00    +0.000 NA
BRANCH  19  21
ATOM     21  C   UNL     1      45.270   5.302  10.804  0.00  0.00    +0.000 A 
ATOM     22  C   UNL     1      45.643   5.252   9.446  0.00  0.00    +0.000 A 
ATOM     23  C   UNL     1      45.278   4.179   8.623  0.00  0.00    +0.000 A 
ATOM     24  C   UNL     1      44.526   3.131   9.144  0.00  0.00    +0.000 A 
ATOM     25  C   UNL     1      44.150   3.165  10.479  0.00  0.00    +0.000 A 
ATOM     26  F   UNL     1      43.421   2.162  10.986  0.00  0.00    +0.000 F 
ATOM     27  C   UNL     1      44.510   4.228  11.303  0.00  0.00    +0.000 A 
ENDBRANCH  19  21
ENDBRANCH   1  15
TORSDOF 4
ENDMDL
MODEL 9
REMARK VINA RESULT:    -6.763      5.244      8.412
REMARK INTER + INTRA:          -9.052
REMARK INTER:                  -8.563
REMARK INTRA:                  -0.489
REMARK UNBOUND:                -0.708
REMARK  Name = 
REMARK  4 active torsions:
REMARK  status: ('A' for Active; 'I' for Inactive)
REMARK    1  A    between atoms: C_2  and  C_4
REMARK    2  A    between atoms: N_8  and  C_9
REMARK    3  A    between atoms: C_9  and  C_10
REMARK    4  A    between atoms: C_14  and  C_15
REMARK                            x       y       z     vdW  Elec       q    Type
REMARK                         _______ _______ _______ _____ _____    ______ ____
ROOT
ATOM      1  C   UNL     1      48.003   6.773  14.253  0.00  0.00    +0.000 C 
ENDROOT
BRANCH   1   6
ATOM      2  C   UNL     1      50.013   5.017  18.411  0.00  0.00    +0.000 A 
ATOM      3  C   UNL     1      49.763   6.275  17.923  0.00  0.00    +0.000 A 
ATOM      4  N   UNL     1      49.006   6.513  16.832  0.00  0.00    +0.000 NA
ATOM      5  C   UNL     1      48.496   5.451  16.190  0.00  0.00    +0.000 A 
ATOM      6  N   UNL     1      47.671   5.640  15.101  0.00  0.00    +0.000 N 
ATOM      7  N   UNL     1      48.700   4.183  16.576  0.00  0.00    +0.000 NA
ATOM      8  C   UNL     1      49.463   3.990  17.679  0.00  0.00    +0.000 A 
ATOM      9  H   UNL     1      47.585   4.757  14.611  0.00  0.00    +0.000 HD
BRANCH   2  11
ATOM     10  N   UNL     1      50.207   4.695  20.809  0.00  0.00    +0.000 N 
ATOM     11  C   UNL     1      50.838   4.754  19.596  0.00  0.00    +0.000 C 
ATOM     12  O   UNL     1      52.044   4.571  19.497  0.00  0.00    +0.000 OA
ATOM     13  H   UNL     1      50.783   4.432  21.601  0.00  0.00    +0.000 HD
ATOM     14  H   UNL     1      49.209   4.597  20.918  0.00  0.00    +0.000 HD
ENDBRANCH   2  11
ENDBRANCH   1   6
BRANCH   1  15
ATOM     15  C   UNL     1      46.894   7.017  13.245  0.00  0.00    +0.000 A 
ATOM     16  C   UNL     1      46.356   8.297  13.120  0.00  0.00    +0.000 A 
ATOM     17  C   UNL     1      45.361   8.514  12.180  0.00  0.00    +0.000 A 
ATOM     18  C   UNL     1      44.946   7.459  11.376  0.00  0.00    +0.000 A 
ATOM     19  C   UNL     1      45.543   6.205  11.524  0.00  0.00    +0.000 A 
ATOM     20  N   UNL     1      46.498   5.979  12.463  0.00  0.00    +0.000 NA
BRANCH  19  21
ATOM     21  C   UNL     1      45.204   5.055  10.659  0.00  0.00    +0.000 A 
ATOM     22  C   UNL     1      44.474   3.959  11.158  0.00  0.00    +0.000 A 
ATOM     23  C   UNL     1      44.168   2.853  10.355  0.00  0.00    +0.000 A 
ATOM     24  C   UNL     1      44.590   2.821   9.029  0.00  0.00    +0.000 A 
ATOM     25  C   UNL     1      45.310   3.892   8.523  0.00  0.00    +0.000 A 
ATOM     26  F   UNL     1      45.726   3.866   7.249  0.00  0.00    +0.000 F 
ATOM     27  C   UNL     1      45.618   4.995   9.315  0.00  0.00    +0.000 A 
ENDBRANCH  19  21
ENDBRANCH   1  15
TORSDOF 4
ENDMDL
