MODEL 1
REMARK VINA RESULT:    -8.152      0.000      0.000
REMARK INTER + INTRA:         -10.157
REMARK INTER:                  -9.820
REMARK INTRA:                  -0.337
REMARK UNBOUND:                -0.337
REMARK  Name = 
REMARK  4 active torsions:
REMARK  status: ('A' for Active; 'I' for Inactive)
REMARK    1  A    between atoms: N_1  and  C_2
REMARK    2  A    between atoms: C_2  and  C_3
REMARK    3  A    between atoms: C_6  and  C_7
REMARK    4  A    between atoms: C_7  and  N_8
REMARK                            x       y       z     vdW  Elec       q    Type
REMARK                         _______ _______ _______ _____ _____    ______ ____
ROOT
ATOM      1  C   UNL     1      44.080   2.760  10.344  0.00  0.00    +0.000 C 
ENDROOT
BRANCH   1   2
ATOM      2  N   UNL     1      44.169   3.997  11.113  0.00  0.00    +0.000 N 
ATOM      3  C   UNL     1      43.492   5.149  10.793  0.00  0.00    +0.000 A 
ATOM      4  C   UNL     1      44.008   6.176  11.546  0.00  0.00    +0.000 A 
ATOM      5  C   UNL     1      45.095   5.653  12.295  0.00  0.00    +0.000 A 
ATOM      6  C   UNL     1      46.078   6.240  13.115  0.00  0.00    +0.000 A 
ATOM      7  C   UNL     1      47.015   5.417  13.734  0.00  0.00    +0.000 A 
ATOM      8  F   UNL     1      48.000   5.973  14.451  0.00  0.00    +0.000 F 
ATOM      9  C   UNL     1      46.954   4.035  13.619  0.00  0.00    +0.000 A 
ATOM     10  C   UNL     1      45.993   3.431  12.804  0.00  0.00    +0.000 A 
ATOM     11  C   UNL     1      45.106   4.268  12.101  0.00  0.00    +0.000 A 
ENDBRANCH   1   2
BRANCH   1  15
ATOM     12  C   UNL     1      46.644   2.737   6.851  0.00  0.00    +0.000 A 
ATOM     13  C   UNL     1      46.014   3.919   7.267  0.00  0.00    +0.000 A 
ATOM     14  C   UNL     1      45.191   3.929   8.397  0.00  0.00    +0.000 A 
ATOM     15  C   UNL     1      44.972   2.755   9.133  0.00  0.00    +0.000 A 
ATOM     16  C   UNL     1      45.606   1.576   8.720  0.00  0.00    +0.000 A 
ATOM     17  C   UNL     1      46.430   1.568   7.591  0.00  0.00    +0.000 A 
BRANCH  12  18
ATOM     18  C   UNL     1      47.493   2.722   5.605  0.00  0.00    +0.000 C 
BRANCH  18  19
ATOM     19  N   UNL     1      48.574   1.746   5.688  0.00  0.00    +0.000 NA
ATOM     20  H   UNL     1      49.358   2.074   5.125  0.00  0.00    +0.000 HD
ATOM     21  H   UNL     1      48.260   0.875   5.262  0.00  0.00    +0.000 HD
ENDBRANCH  18  19
ENDBRANCH  12  18
ENDBRANCH   1  15
TORSDOF 4
ENDMDL
MODEL 2
REMARK VINA RESULT:    -7.216      1.430      2.270
REMARK INTER + INTRA:          -9.029
REMARK INTER:                  -8.448
REMARK INTRA:                  -0.581
REMARK UNBOUND:                -0.337
REMARK  Name = 
REMARK  4 active torsions:
REMARK  status: ('A' for Active; 'I' for Inactive)
REMARK    1  A    between atoms: N_1  and  C_2
REMARK    2  A    between atoms: C_2  and  C_3
REMARK    3  A    between atoms: C_6  and  C_7
REMARK    4  A    between atoms: C_7  and  N_8
REMARK                            x       y       z     vdW  Elec       q    Type
REMARK                         _______ _______ _______ _____ _____    ______ ____
ROOT
ATOM      1  C   UNL     1      44.488   4.767  10.142  0.00  0.00    +0.000 C 
ENDROOT
BRANCH   1   2
ATOM      2  N   UNL     1      45.134   4.856  11.448  0.00  0.00    +0.000 N 
ATOM      3  C   UNL     1      44.666   4.232  12.578  0.00  0.00    +0.000 A 
ATOM      4  C   UNL     1      45.339   4.741  13.662  0.00  0.00    +0.000 A 
ATOM      5  C   UNL     1      46.192   5.772  13.190  0.00  0.00    +0.000 A 
ATOM      6  C   UNL     1      47.001   6.730  13.831  0.00  0.00    +0.000 A 
ATOM      7  C   UNL     1      47.748   7.609  13.050  0.00  0.00    +0.000 A 
ATOM      8  F   UNL     1      48.458   8.574  13.650  0.00  0.00    +0.000 F 
ATOM      9  C   UNL     1      47.768   7.511  11.665  0.00  0.00    +0.000 A 
ATOM     10  C   UNL     1      46.967   6.574  11.007  0.00  0.00    +0.000 A 
ATOM     11  C   UNL     1      46.138   5.750  11.792  0.00  0.00    +0.000 A 
ENDBRANCH   1   2
BRANCH   1  15
ATOM     12  C   UNL     1      46.587   2.153   7.396  0.00  0.00    +0.000 A 
ATOM     13  C   UNL     1      45.836   1.622   8.455  0.00  0.00    +0.000 A 
ATOM     14  C   UNL     1      45.154   2.464   9.338  0.00  0.00    +0.000 A 
ATOM     15  C   UNL     1      45.213   3.857   9.188  0.00  0.00    +0.000 A 
ATOM     16  C   UNL     1      45.959   4.386   8.127  0.00  0.00    +0.000 A 
ATOM     17  C   UNL     1      46.639   3.543   7.244  0.00  0.00    +0.000 A 
BRANCH  12  18
ATOM     18  C   UNL     1      47.359   1.242   6.475  0.00  0.00    +0.000 C 
BRANCH  18  19
ATOM     19  N   UNL     1      48.448   1.937   5.799  0.00  0.00    +0.000 NA
ATOM     20  H   UNL     1      49.223   2.050   6.451  0.00  0.00    +0.000 HD
ATOM     21  H   UNL     1      48.136   2.877   5.561  0.00  0.00    +0.000 HD
ENDBRANCH  18  19
ENDBRANCH  12  18
ENDBRANCH   1  15
TORSDOF 4
ENDMDL
MODEL 3
REMARK VINA RESULT:    -7.158      2.776      6.110
REMARK INTER + INTRA:          -8.960
REMARK INTER:                  -8.341
REMARK INTRA:                  -0.619
REMARK UNBOUND:                -0.337
REMARK  Name = 
REMARK  4 active torsions:
REMARK  status: ('A' for Active; 'I' for Inactive)
REMARK    1  A    between atoms: N_1  and  C_2
REMARK    2  A    between atoms: C_2  and  C_3
REMARK    3  A    between atoms: C_6  and  C_7
REMARK    4  A    between atoms: C_7  and  N_8
REMARK                            x       y       z     vdW  Elec       q    Type
REMARK                         _______ _______ _______ _____ _____    ______ ____
ROOT
ATOM      1  C   UNL     1      44.239   5.345  10.618  0.00  0.00    +0.000 C 
ENDROOT
BRANCH   1   2
ATOM      2  N   UNL     1      44.347   4.017  10.022  0.00  0.00    +0.000 N 
ATOM      3  C   UNL     1      43.806   2.882  10.574  0.00  0.00    +0.000 A 
ATOM      4  C   UNL     1      44.321   1.793   9.915  0.00  0.00    +0.000 A 
ATOM      5  C   UNL     1      45.275   2.272   8.978  0.00  0.00    +0.000 A 
ATOM      6  C   UNL     1      46.209   1.638   8.136  0.00  0.00    +0.000 A 
ATOM      7  C   UNL     1      47.002   2.423   7.303  0.00  0.00    +0.000 A 
ATOM      8  F   UNL     1      47.948   1.835   6.557  0.00  0.00    +0.000 F 
ATOM      9  C   UNL     1      46.840   3.800   7.233  0.00  0.00    +0.000 A 
ATOM     10  C   UNL     1      45.926   4.451   8.066  0.00  0.00    +0.000 A 
ATOM     11  C   UNL     1      45.192   3.668   8.977  0.00  0.00    +0.000 A 
ENDBRANCH   1   2
BRANCH   1  15
ATOM     12  C   UNL     1      47.467   6.245  13.365  0.00  0.00    +0.000 A 
ATOM     13  C   UNL     1      46.500   5.283  13.690  0.00  0.00    +0.000 A 
ATOM     14  C   UNL     1      45.461   4.988  12.803  0.00  0.00    +0.000 A 
ATOM     15  C   UNL     1      45.360   5.653  11.572  0.00  0.00    +0.000 A 
ATOM     16  C   UNL     1      46.329   6.610  11.245  0.00  0.00    +0.000 A 
ATOM     17  C   UNL     1      47.369   6.903  12.133  0.00  0.00    +0.000 A 
BRANCH  12  18
ATOM     18  C   UNL     1      48.558   6.593  14.346  0.00  0.00    +0.000 C 
BRANCH  18  19
ATOM     19  N   UNL     1      49.797   6.977  13.677  0.00  0.00    +0.000 NA
ATOM     20  H   UNL     1      49.596   7.724  13.014  0.00  0.00    +0.000 HD
ATOM     21  H   UNL     1      50.128   6.187  13.126  0.00  0.00    +0.000 HD
ENDBRANCH  18  19
ENDBRANCH  12  18
ENDBRANCH   1  15
TORSDOF 4
ENDMDL
MODEL 4
REMARK VINA RESULT:    -7.013      2.724      6.156
REMARK INTER + INTRA:          -8.785
REMARK INTER:                  -8.230
REMARK INTRA:                  -0.554
REMARK UNBOUND:                -0.337
REMARK  Name = 
REMARK  4 active torsions:
REMARK  status: ('A' for Active; 'I' for Inactive)
REMARK    1  A    between atoms: N_1  and  C_2
REMARK    2  A    between atoms: C_2  and  C_3
REMARK    3  A    between atoms: C_6  and  C_7
REMARK    4  A    between atoms: C_7  and  N_8
REMARK                            x       y       z     vdW  Elec       q    Type
REMARK                         _______ _______ _______ _____ _____    ______ ____
ROOT
ATOM      1  C   UNL     1      44.279   5.524  10.569  0.00  0.00    +0.000 C 
ENDROOT
BRANCH   1   2
ATOM      2  N   UNL     1      44.328   4.168  10.030  0.00  0.00    +0.000 N 
ATOM      3  C   UNL     1      43.738   3.083  10.632  0.00  0.00    +0.000 A 
ATOM      4  C   UNL     1      44.203   1.944  10.021  0.00  0.00    +0.000 A 
ATOM      5  C   UNL     1      45.176   2.339   9.065  0.00  0.00    +0.000 A 
ATOM      6  C   UNL     1      46.079   1.629   8.251  0.00  0.00    +0.000 A 
ATOM      7  C   UNL     1      46.905   2.340   7.385  0.00  0.00    +0.000 A 
ATOM      8  F   UNL     1      47.823   1.679   6.666  0.00  0.00    +0.000 F 
ATOM      9  C   UNL     1      46.804   3.719   7.255  0.00  0.00    +0.000 A 
ATOM     10  C   UNL     1      45.921   4.446   8.058  0.00  0.00    +0.000 A 
ATOM     11  C   UNL     1      45.155   3.737   9.002  0.00  0.00    +0.000 A 
ENDBRANCH   1   2
BRANCH   1  15
ATOM     12  C   UNL     1      47.422   6.304  13.448  0.00  0.00    +0.000 A 
ATOM     13  C   UNL     1      47.392   6.984  12.222  0.00  0.00    +0.000 A 
ATOM     14  C   UNL     1      46.375   6.737  11.294  0.00  0.00    +0.000 A 
ATOM     15  C   UNL     1      45.370   5.799  11.568  0.00  0.00    +0.000 A 
ATOM     16  C   UNL     1      45.397   5.124  12.795  0.00  0.00    +0.000 A 
ATOM     17  C   UNL     1      46.413   5.373  13.722  0.00  0.00    +0.000 A 
BRANCH  12  18
ATOM     18  C   UNL     1      48.546   6.540  14.425  0.00  0.00    +0.000 C 
BRANCH  18  19
ATOM     19  N   UNL     1      48.340   5.831  15.683  0.00  0.00    +0.000 NA
ATOM     20  H   UNL     1      48.418   4.829  15.515  0.00  0.00    +0.000 HD
ATOM     21  H   UNL     1      47.384   5.994  15.996  0.00  0.00    +0.000 HD
ENDBRANCH  18  19
ENDBRANCH  12  18
ENDBRANCH   1  15
TORSDOF 4
ENDMDL
MODEL 5
REMARK VINA RESULT:    -6.793      2.924      6.093
REMARK INTER + INTRA:          -8.520
REMARK INTER:                  -8.051
REMARK INTRA:                  -0.469
REMARK UNBOUND:                -0.337
REMARK  Name = 
REMARK  4 active torsions:
REMARK  status: ('A' for Active; 'I' for Inactive)
REMARK    1  A    between atoms: N_1  and  C_2
REMARK    2  A    between atoms: C_2  and  C_3
REMARK    3  A    between atoms: C_6  and  C_7
REMARK    4  A    between atoms: C_7  and  N_8
REMARK                            x       y       z     vdW  Elec       q    Type
REMARK                         _______ _______ _______ _____ _____    ______ ____
ROOT
ATOM      1  C   UNL     1      44.167   6.361  11.474  0.00  0.00    +0.000 C 
ENDROOT
BRANCH   1   2
ATOM      2  N   UNL     1      43.928   4.977  11.074  0.00  0.00    +0.000 N 
ATOM      3  C   UNL     1      43.256   4.061  11.846  0.00  0.00    +0.000 A 
ATOM      4  C   UNL     1      43.451   2.815  11.304  0.00  0.00    +0.000 A 
ATOM      5  C   UNL     1      44.341   2.959  10.207  0.00  0.00    +0.000 A 
ATOM      6  C   UNL     1      45.006   2.041   9.372  0.00  0.00    +0.000 A 
ATOM      7  C   UNL     1      45.816   2.529   8.349  0.00  0.00    +0.000 A 
ATOM      8  F   UNL     1      46.515   1.666   7.600  0.00  0.00    +0.000 F 
ATOM      9  C   UNL     1      45.920   3.890   8.092  0.00  0.00    +0.000 A 
ATOM     10  C   UNL     1      45.275   4.819   8.914  0.00  0.00    +0.000 A 
ATOM     11  C   UNL     1      44.535   4.330  10.006  0.00  0.00    +0.000 A 
ENDBRANCH   1   2
BRANCH   1  15
ATOM     12  C   UNL     1      47.903   6.873  13.608  0.00  0.00    +0.000 A 
ATOM     13  C   UNL     1      47.444   7.861  12.724  0.00  0.00    +0.000 A 
ATOM     14  C   UNL     1      46.236   7.700  12.039  0.00  0.00    +0.000 A 
ATOM     15  C   UNL     1      45.463   6.543  12.216  0.00  0.00    +0.000 A 
ATOM     16  C   UNL     1      45.919   5.559  13.102  0.00  0.00    +0.000 A 
ATOM     17  C   UNL     1      47.127   5.723  13.788  0.00  0.00    +0.000 A 
BRANCH  12  18
ATOM     18  C   UNL     1      49.229   7.032  14.308  0.00  0.00    +0.000 C 
BRANCH  18  19
ATOM     19  N   UNL     1      49.304   6.239  15.530  0.00  0.00    +0.000 NA
ATOM     20  H   UNL     1      49.937   6.698  16.183  0.00  0.00    +0.000 HD
ATOM     21  H   UNL     1      49.727   5.339  15.308  0.00  0.00    +0.000 HD
ENDBRANCH  18  19
ENDBRANCH  12  18
ENDBRANCH   1  15
TORSDOF 4
ENDMDL
MODEL 6
REMARK VINA RESULT:    -5.945      3.367      6.678
REMARK INTER + INTRA:          -7.499
REMARK INTER:                  -7.188
REMARK INTRA:                  -0.311
REMARK UNBOUND:                -0.337
REMARK  Name = 
REMARK  4 active torsions:
REMARK  status: ('A' for Active; 'I' for Inactive)
REMARK    1  A    between atoms: N_1  and  C_2
REMARK    2  A    between atoms: C_2  and  C_3
REMARK    3  A    between atoms: C_6  and  C_7
REMARK    4  A    between atoms: C_7  and  N_8
REMARK                            x       y       z     vdW  Elec       q    Type
REMARK                         _______ _______ _______ _____ _____    ______ ____
ROOT
ATOM      1  C   UNL     1      45.692   5.708  12.358  0.00  0.00    +0.000 C 
ENDROOT
BRANCH   1   2
ATOM      2  N   UNL     1      44.924   4.765  11.550  0.00  0.00    +0.000 N 
ATOM      3  C   UNL     1      44.032   3.859  12.070  0.00  0.00    +0.000 A 
ATOM      4  C   UNL     1      43.704   2.962  11.084  0.00  0.00    +0.000 A 
ATOM      5  C   UNL     1      44.484   3.278   9.940  0.00  0.00    +0.000 A 
ATOM      6  C   UNL     1      44.686   2.644   8.699  0.00  0.00    +0.000 A 
ATOM      7  C   UNL     1      45.525   3.247   7.766  0.00  0.00    +0.000 A 
ATOM      8  F   UNL     1      45.786   2.612   6.615  0.00  0.00    +0.000 F 
ATOM      9  C   UNL     1      46.101   4.488   8.003  0.00  0.00    +0.000 A 
ATOM     10  C   UNL     1      45.921   5.132   9.231  0.00  0.00    +0.000 A 
ATOM     11  C   UNL     1      45.152   4.477  10.211  0.00  0.00    +0.000 A 
ENDBRANCH   1   2
BRANCH   1  15
ATOM     12  C   UNL     1      44.598   9.836  11.624  0.00  0.00    +0.000 A 
ATOM     13  C   UNL     1      45.698   9.522  12.436  0.00  0.00    +0.000 A 
ATOM     14  C   UNL     1      46.055   8.191  12.669  0.00  0.00    +0.000 A 
ATOM     15  C   UNL     1      45.316   7.142  12.102  0.00  0.00    +0.000 A 
ATOM     16  C   UNL     1      44.222   7.456  11.287  0.00  0.00    +0.000 A 
ATOM     17  C   UNL     1      43.867   8.788  11.053  0.00  0.00    +0.000 A 
BRANCH  12  18
ATOM     18  C   UNL     1      44.189  11.272  11.414  0.00  0.00    +0.000 C 
BRANCH  18  19
ATOM     19  N   UNL     1      42.807  11.515  11.812  0.00  0.00    +0.000 NA
ATOM     20  H   UNL     1      42.435  10.671  12.245  0.00  0.00    +0.000 HD
ATOM     21  H   UNL     1      42.251  11.675  10.973  0.00  0.00    +0.000 HD
ENDBRANCH  18  19
ENDBRANCH  12  18
ENDBRANCH   1  15
TORSDOF 4
ENDMDL
MODEL 7
REMARK VINA RESULT:    -5.898      2.369      3.378
REMARK INTER + INTRA:          -7.442
REMARK INTER:                  -7.084
REMARK INTRA:                  -0.358
REMARK UNBOUND:                -0.337
REMARK  Name = 
REMARK  4 active torsions:
REMARK  status: ('A' for Active; 'I' for Inactive)
REMARK    1  A    between atoms: N_1  and  C_2
REMARK    2  A    between atoms: C_2  and  C_3
REMARK    3  A    between atoms: C_6  and  C_7
REMARK    4  A    between atoms: C_7  and  N_8
REMARK                            x       y       z     vdW  Elec       q    Type
REMARK                         _______ _______ _______ _____ _____    ______ ____
ROOT
ATOM      1  C   UNL     1      44.941   5.361  12.562  0.00  0.00    +0.000 C 
ENDROOT
BRANCH   1   2
ATOM      2  N   UNL     1      45.448   6.723  12.701  0.00  0.00    +0.000 N 
ATOM      3  C   UNL     1      44.677   7.848  12.535  0.00  0.00    +0.000 A 
ATOM      4  C   UNL     1      45.512   8.936  12.465  0.00  0.00    +0.000 A 
ATOM      5  C   UNL     1      46.847   8.455  12.508  0.00  0.00    +0.000 A 
ATOM      6  C   UNL     1      48.104   9.066  12.335  0.00  0.00    +0.000 A 
ATOM      7  C   UNL     1      49.252   8.289  12.464  0.00  0.00    +0.000 A 
ATOM      8  F   UNL     1      50.447   8.844  12.223  0.00  0.00    +0.000 F 
ATOM      9  C   UNL     1      49.185   6.951  12.830  0.00  0.00    +0.000 A 
ATOM     10  C   UNL     1      47.949   6.321  12.998  0.00  0.00    +0.000 A 
ATOM     11  C   UNL     1      46.787   7.082  12.773  0.00  0.00    +0.000 A 
ENDBRANCH   1   2
BRANCH   1  15
ATOM     12  C   UNL     1      45.435   3.782   8.556  0.00  0.00    +0.000 A 
ATOM     13  C   UNL     1      44.868   2.995   9.569  0.00  0.00    +0.000 A 
ATOM     14  C   UNL     1      44.703   3.505  10.861  0.00  0.00    +0.000 A 
ATOM     15  C   UNL     1      45.109   4.811  11.171  0.00  0.00    +0.000 A 
ATOM     16  C   UNL     1      45.670   5.599  10.158  0.00  0.00    +0.000 A 
ATOM     17  C   UNL     1      45.833   5.088   8.867  0.00  0.00    +0.000 A 
BRANCH  12  18
ATOM     18  C   UNL     1      45.654   3.211   7.178  0.00  0.00    +0.000 C 
BRANCH  18  19
ATOM     19  N   UNL     1      46.744   3.876   6.473  0.00  0.00    +0.000 NA
ATOM     20  H   UNL     1      46.964   4.748   6.952  0.00  0.00    +0.000 HD
ATOM     21  H   UNL     1      46.421   4.135   5.543  0.00  0.00    +0.000 HD
ENDBRANCH  18  19
ENDBRANCH  12  18
ENDBRANCH   1  15
TORSDOF 4
ENDMDL
MODEL 8
REMARK VINA RESULT:    -5.884      3.480      6.436
REMARK INTER + INTRA:          -7.425
REMARK INTER:                  -6.927
REMARK INTRA:                  -0.498
REMARK UNBOUND:                -0.337
REMARK  Name = 
REMARK  4 active torsions:
REMARK  status: ('A' for Active; 'I' for Inactive)
REMARK    1  A    between atoms: N_1  and  C_2
REMARK    2  A    between atoms: C_2  and  C_3
REMARK    3  A    between atoms: C_6  and  C_7
REMARK    4  A    between atoms: C_7  and  N_8
REMARK                            x       y       z     vdW  Elec       q    Type
REMARK                         _______ _______ _______ _____ _____    ______ ____
ROOT
ATOM      1  C   UNL     1      46.367   5.648  13.146  0.00  0.00    +0.000 C 
ENDROOT
BRANCH   1   2
ATOM      2  N   UNL     1      45.305   4.962  12.416  0.00  0.00    +0.000 N 
ATOM      3  C   UNL     1      44.353   4.171  13.012  0.00  0.00    +0.000 A 
ATOM      4  C   UNL     1      43.695   3.474  12.029  0.00  0.00    +0.000 A 
ATOM      5  C   UNL     1      44.319   3.786  10.792  0.00  0.00    +0.000 A 
ATOM      6  C   UNL     1      44.182   3.283   9.484  0.00  0.00    +0.000 A 
ATOM      7  C   UNL     1      44.954   3.839   8.467  0.00  0.00    +0.000 A 
ATOM      8  F   UNL     1      44.889   3.314   7.236  0.00  0.00    +0.000 F 
ATOM      9  C   UNL     1      45.794   4.919   8.702  0.00  0.00    +0.000 A 
ATOM     10  C   UNL     1      45.952   5.429   9.994  0.00  0.00    +0.000 A 
ATOM     11  C   UNL     1      45.245   4.805  11.038  0.00  0.00    +0.000 A 
ENDBRANCH   1   2
BRANCH   1  15
ATOM     12  C   UNL     1      46.651   9.858  12.157  0.00  0.00    +0.000 A 
ATOM     13  C   UNL     1      45.412   9.279  12.469  0.00  0.00    +0.000 A 
ATOM     14  C   UNL     1      45.320   7.923  12.794  0.00  0.00    +0.000 A 
ATOM     15  C   UNL     1      46.463   7.111  12.806  0.00  0.00    +0.000 A 
ATOM     16  C   UNL     1      47.701   7.690  12.499  0.00  0.00    +0.000 A 
ATOM     17  C   UNL     1      47.792   9.047  12.176  0.00  0.00    +0.000 A 
BRANCH  12  18
ATOM     18  C   UNL     1      46.737  11.310  11.762  0.00  0.00    +0.000 C 
BRANCH  18  19
ATOM     19  N   UNL     1      47.601  11.515  10.604  0.00  0.00    +0.000 NA
ATOM     20  H   UNL     1      47.040  11.878   9.834  0.00  0.00    +0.000 HD
ATOM     21  H   UNL     1      47.956  10.611  10.299  0.00  0.00    +0.000 HD
ENDBRANCH  18  19
ENDBRANCH  12  18
ENDBRANCH   1  15
TORSDOF 4
ENDMDL
MODEL 9
REMARK VINA RESULT:    -5.843      4.723      8.051
REMARK INTER + INTRA:          -7.375
REMARK INTER:                  -6.811
REMARK INTRA:                  -0.564
REMARK UNBOUND:                -0.337
REMARK  Name = 
REMARK  4 active torsions:
REMARK  status: ('A' for Active; 'I' for Inactive)
REMARK    1  A    between atoms: N_1  and  C_2
REMARK    2  A    between atoms: C_2  and  C_3
REMARK    3  A    between atoms: C_6  and  C_7
REMARK    4  A    between atoms: C_7  and  N_8
REMARK                            x       y       z     vdW  Elec       q    Type
REMARK                         _______ _______ _______ _____ _____    ______ ____
ROOT
ATOM      1  C   UNL     1      48.239   5.537  16.799  0.00  0.00    +0.000 C 
ENDROOT
BRANCH   1   2
ATOM      2  N   UNL     1      48.273   6.042  15.430  0.00  0.00    +0.000 N 
ATOM      3  C   UNL     1      48.865   7.227  15.065  0.00  0.00    +0.000 A 
ATOM      4  C   UNL     1      48.480   7.524  13.780  0.00  0.00    +0.000 A 
ATOM      5  C   UNL     1      47.554   6.529  13.370  0.00  0.00    +0.000 A 
ATOM      6  C   UNL     1      46.728   6.381  12.239  0.00  0.00    +0.000 A 
ATOM      7  C   UNL     1      45.930   5.245  12.135  0.00  0.00    +0.000 A 
ATOM      8  F   UNL     1      45.083   5.133  11.103  0.00  0.00    +0.000 F 
ATOM      9  C   UNL     1      45.988   4.228  13.079  0.00  0.00    +0.000 A 
ATOM     10  C   UNL     1      46.793   4.358  14.214  0.00  0.00    +0.000 A 
ATOM     11  C   UNL     1      47.527   5.549  14.369  0.00  0.00    +0.000 A 
ENDBRANCH   1   2
BRANCH   1  15
ATOM     12  C   UNL     1      51.236   2.498  17.549  0.00  0.00    +0.000 A 
ATOM     13  C   UNL     1      51.562   3.860  17.632  0.00  0.00    +0.000 A 
ATOM     14  C   UNL     1      50.595   4.841  17.395  0.00  0.00    +0.000 A 
ATOM     15  C   UNL     1      49.280   4.484  17.063  0.00  0.00    +0.000 A 
ATOM     16  C   UNL     1      48.953   3.124  16.986  0.00  0.00    +0.000 A 
ATOM     17  C   UNL     1      49.921   2.144  17.224  0.00  0.00    +0.000 A 
BRANCH  12  18
ATOM     18  C   UNL     1      52.294   1.445  17.759  0.00  0.00    +0.000 C 
BRANCH  18  19
ATOM     19  N   UNL     1      51.721   0.157  18.135  0.00  0.00    +0.000 NA
ATOM     20  H   UNL     1      52.414  -0.573  17.971  0.00  0.00    +0.000 HD
ATOM     21  H   UNL     1      50.940  -0.046  17.513  0.00  0.00    +0.000 HD
ENDBRANCH  18  19
ENDBRANCH  12  18
ENDBRANCH   1  15
TORSDOF 4
ENDMDL
