MODEL 1
REMARK VINA RESULT:    -6.945      0.000      0.000
REMARK INTER + INTRA:         -12.286
REMARK INTER:                 -10.599
REMARK INTRA:                  -1.686
REMARK UNBOUND:                -1.686
REMARK  Name = 
REMARK  10 active torsions:
REMARK  status: ('A' for Active; 'I' for Inactive)
REMARK    1  A    between atoms: C_1  and  O_2
REMARK    2  A    between atoms: O_2  and  C_3
REMARK    3  A    between atoms: C_3  and  C_4
REMARK    4  A    between atoms: C_4  and  N_5
REMARK    5  A    between atoms: N_5  and  C_6
REMARK    6  A    between atoms: C_6  and  C_7
REMARK    7  A    between atoms: C_10  and  C_11
REMARK    8  A    between atoms: C_11  and  O_12
REMARK    9  A    between atoms: O_12  and  C_13
REMARK   10  A    between atoms: C_21  and  C_23
REMARK                            x       y       z     vdW  Elec       q    Type
REMARK                         _______ _______ _______ _____ _____    ______ ____
ROOT
ATOM      1  N   UNL     1      46.157   7.186  12.281  0.00  0.00    +0.000 N 
ATOM      2  C   UNL     1      44.925   6.818  11.699  0.00  0.00    +0.000 C 
ATOM      3  O   UNL     1      44.116   7.677  11.350  0.00  0.00    +0.000 OA
ENDROOT
BRANCH   2   4
ATOM      4  C   UNL     1      44.564   5.404  11.530  0.00  0.00    +0.000 A 
ATOM      5  C   UNL     1      43.767   4.688  12.410  0.00  0.00    +0.000 A 
ATOM      6  S   UNL     1      43.500   3.070  11.927  0.00  0.00    +0.000 S 
ATOM      7  C   UNL     1      44.322   3.311  10.456  0.00  0.00    +0.000 A 
ATOM      8  N   UNL     1      44.379   2.335   9.518  0.00  0.00    +0.000 NA
ATOM      9  C   UNL     1      44.970   2.678   8.424  0.00  0.00    +0.000 A 
ATOM     10  N   UNL     1      45.538   3.908   8.198  0.00  0.00    +0.000 N 
ATOM     11  C   UNL     1      45.622   4.882   9.171  0.00  0.00    +0.000 A 
ATOM     12  O   UNL     1      46.346   5.862   9.016  0.00  0.00    +0.000 OA
ATOM     13  C   UNL     1      44.863   4.581  10.372  0.00  0.00    +0.000 A 
ATOM     14  H   UNL     1      46.042   4.095   7.342  0.00  0.00    +0.000 HD
ENDBRANCH   2   4
BRANCH   1  15
ATOM     15  C   UNL     1      46.425   8.638  12.347  0.00  0.00    +0.000 C 
BRANCH  15  16
ATOM     16  C   UNL     1      47.870   9.080  12.026  0.00  0.00    +0.000 C 
BRANCH  16  18
ATOM     17  C   UNL     1      49.511   9.991  13.442  0.00  0.00    +0.000 C 
ATOM     18  O   UNL     1      48.271  10.238  12.771  0.00  0.00    +0.000 OA
ENDBRANCH  16  18
ENDBRANCH  15  16
ENDBRANCH   1  15
BRANCH   1  19
ATOM     19  C   UNL     1      47.313   6.288  12.500  0.00  0.00    +0.000 C 
BRANCH  19  20
ATOM     20  C   UNL     1      47.468   5.847  13.942  0.00  0.00    +0.000 A 
ATOM     21  C   UNL     1      48.314   6.529  14.822  0.00  0.00    +0.000 A 
ATOM     22  C   UNL     1      48.653   5.965  16.056  0.00  0.00    +0.000 A 
ATOM     23  C   UNL     1      48.178   4.696  16.411  0.00  0.00    +0.000 A 
ATOM     24  C   UNL     1      47.197   4.101  15.619  0.00  0.00    +0.000 A 
ATOM     25  C   UNL     1      46.828   4.690  14.412  0.00  0.00    +0.000 A 
BRANCH  23  26
ATOM     26  C   UNL     1      48.799   3.921  17.544  0.00  0.00    +0.000 C 
BRANCH  26  27
ATOM     27  O   UNL     1      49.462   2.745  17.095  0.00  0.00    +0.000 OA
BRANCH  27  28
ATOM     28  C   UNL     1      50.794   2.668  17.426  0.00  0.00    +0.000 A 
ATOM     29  C   UNL     1      51.611   3.739  17.786  0.00  0.00    +0.000 A 
ATOM     30  C   UNL     1      52.937   3.483  18.097  0.00  0.00    +0.000 A 
ATOM     31  N   UNL     1      53.491   2.256  18.072  0.00  0.00    +0.000 NA
ATOM     32  C   UNL     1      52.683   1.237  17.712  0.00  0.00    +0.000 A 
ATOM     33  C   UNL     1      51.344   1.391  17.382  0.00  0.00    +0.000 A 
ENDBRANCH  27  28
ENDBRANCH  26  27
ENDBRANCH  23  26
ENDBRANCH  19  20
ENDBRANCH   1  19
TORSDOF 9
ENDMDL
MODEL 2
REMARK VINA RESULT:    -6.809      3.207      8.189
REMARK INTER + INTRA:         -12.078
REMARK INTER:                 -10.363
REMARK INTRA:                  -1.715
REMARK UNBOUND:                -1.686
REMARK  Name = 
REMARK  10 active torsions:
REMARK  status: ('A' for Active; 'I' for Inactive)
REMARK    1  A    between atoms: C_1  and  O_2
REMARK    2  A    between atoms: O_2  and  C_3
REMARK    3  A    between atoms: C_3  and  C_4
REMARK    4  A    between atoms: C_4  and  N_5
REMARK    5  A    between atoms: N_5  and  C_6
REMARK    6  A    between atoms: C_6  and  C_7
REMARK    7  A    between atoms: C_10  and  C_11
REMARK    8  A    between atoms: C_11  and  O_12
REMARK    9  A    between atoms: O_12  and  C_13
REMARK   10  A    between atoms: C_21  and  C_23
REMARK                            x       y       z     vdW  Elec       q    Type
REMARK                         _______ _______ _______ _____ _____    ______ ____
ROOT
ATOM      1  N   UNL     1      48.775   7.245  14.057  0.00  0.00    +0.000 N 
ATOM      2  C   UNL     1      49.450   6.872  15.240  0.00  0.00    +0.000 C 
ATOM      3  O   UNL     1      50.663   7.044  15.349  0.00  0.00    +0.000 OA
ENDROOT
BRANCH   2   4
ATOM      4  C   UNL     1      48.727   6.238  16.351  0.00  0.00    +0.000 A 
ATOM      5  C   UNL     1      48.346   4.905  16.379  0.00  0.00    +0.000 A 
ATOM      6  S   UNL     1      47.548   4.454  17.821  0.00  0.00    +0.000 S 
ATOM      7  C   UNL     1      47.810   5.986  18.515  0.00  0.00    +0.000 A 
ATOM      8  N   UNL     1      47.452   6.244  19.797  0.00  0.00    +0.000 NA
ATOM      9  C   UNL     1      47.776   7.420  20.216  0.00  0.00    +0.000 A 
ATOM     10  N   UNL     1      48.399   8.376  19.451  0.00  0.00    +0.000 N 
ATOM     11  C   UNL     1      48.658   8.204  18.108  0.00  0.00    +0.000 A 
ATOM     12  O   UNL     1      48.986   9.157  17.406  0.00  0.00    +0.000 OA
ATOM     13  C   UNL     1      48.422   6.853  17.629  0.00  0.00    +0.000 A 
ATOM     14  H   UNL     1      48.570   9.302  19.818  0.00  0.00    +0.000 HD
ENDBRANCH   2   4
BRANCH   1  15
ATOM     15  C   UNL     1      49.601   7.921  13.036  0.00  0.00    +0.000 C 
BRANCH  15  16
ATOM     16  C   UNL     1      49.317   9.424  12.814  0.00  0.00    +0.000 C 
BRANCH  16  18
ATOM     17  C   UNL     1      47.441  10.428  11.815  0.00  0.00    +0.000 C 
ATOM     18  O   UNL     1      48.638   9.680  11.577  0.00  0.00    +0.000 OA
ENDBRANCH  16  18
ENDBRANCH  15  16
ENDBRANCH   1  15
BRANCH   1  19
ATOM     19  C   UNL     1      47.307   7.339  13.891  0.00  0.00    +0.000 C 
BRANCH  19  20
ATOM     20  C   UNL     1      46.750   6.353  12.883  0.00  0.00    +0.000 A 
ATOM     21  C   UNL     1      46.428   6.752  11.582  0.00  0.00    +0.000 A 
ATOM     22  C   UNL     1      45.675   5.913  10.753  0.00  0.00    +0.000 A 
ATOM     23  C   UNL     1      45.207   4.681  11.226  0.00  0.00    +0.000 A 
ATOM     24  C   UNL     1      45.678   4.209  12.451  0.00  0.00    +0.000 A 
ATOM     25  C   UNL     1      46.467   5.030  13.253  0.00  0.00    +0.000 A 
BRANCH  23  26
ATOM     26  C   UNL     1      44.116   3.934  10.504  0.00  0.00    +0.000 C 
BRANCH  26  27
ATOM     27  O   UNL     1      44.230   4.044   9.090  0.00  0.00    +0.000 OA
BRANCH  27  28
ATOM     28  C   UNL     1      45.176   3.227   8.519  0.00  0.00    +0.000 A 
ATOM     29  C   UNL     1      45.314   1.857   8.741  0.00  0.00    +0.000 A 
ATOM     30  C   UNL     1      46.323   1.178   8.076  0.00  0.00    +0.000 A 
ATOM     31  N   UNL     1      47.186   1.764   7.223  0.00  0.00    +0.000 NA
ATOM     32  C   UNL     1      47.039   3.091   7.032  0.00  0.00    +0.000 A 
ATOM     33  C   UNL     1      46.061   3.857   7.652  0.00  0.00    +0.000 A 
ENDBRANCH  27  28
ENDBRANCH  26  27
ENDBRANCH  23  26
ENDBRANCH  19  20
ENDBRANCH   1  19
TORSDOF 9
ENDMDL
MODEL 3
REMARK VINA RESULT:    -6.497      3.514      8.070
REMARK INTER + INTRA:         -11.602
REMARK INTER:                  -9.962
REMARK INTRA:                  -1.640
REMARK UNBOUND:                -1.686
REMARK  Name = 
REMARK  10 active torsions:
REMARK  status: ('A' for Active; 'I' for Inactive)
REMARK    1  A    between atoms: C_1  and  O_2
REMARK    2  A    between atoms: O_2  and  C_3
REMARK    3  A    between atoms: C_3  and  C_4
REMARK    4  A    between atoms: C_4  and  N_5
REMARK    5  A    between atoms: N_5  and  C_6
REMARK    6  A    between atoms: C_6  and  C_7
REMARK    7  A    between atoms: C_10  and  C_11
REMARK    8  A    between atoms: C_11  and  O_12
REMARK    9  A    between atoms: O_12  and  C_13
REMARK   10  A    between atoms: C_21  and  C_23
REMARK                            x       y       z     vdW  Elec       q    Type
REMARK                         _______ _______ _______ _____ _____    ______ ____
ROOT
ATOM      1  N   UNL     1      48.868   7.385  13.668  0.00  0.00    +0.000 N 
ATOM      2  C   UNL     1      49.720   7.569  14.777  0.00  0.00    +0.000 C 
ATOM      3  O   UNL     1      50.930   7.364  14.678  0.00  0.00    +0.000 OA
ENDROOT
BRANCH   2   4
ATOM      4  C   UNL     1      49.181   7.974  16.082  0.00  0.00    +0.000 A 
ATOM      5  C   UNL     1      49.086   9.287  16.518  0.00  0.00    +0.000 A 
ATOM      6  S   UNL     1      48.387   9.441  18.070  0.00  0.00    +0.000 S 
ATOM      7  C   UNL     1      48.058   7.774  18.153  0.00  0.00    +0.000 A 
ATOM      8  N   UNL     1      47.372   7.247  19.197  0.00  0.00    +0.000 NA
ATOM      9  C   UNL     1      47.130   5.984  19.094  0.00  0.00    +0.000 A 
ATOM     10  N   UNL     1      47.543   5.193  18.050  0.00  0.00    +0.000 N 
ATOM     11  C   UNL     1      48.356   5.658  17.038  0.00  0.00    +0.000 A 
ATOM     12  O   UNL     1      48.904   4.877  16.264  0.00  0.00    +0.000 OA
ATOM     13  C   UNL     1      48.549   7.098  17.051  0.00  0.00    +0.000 A 
ATOM     14  H   UNL     1      47.376   4.196  18.059  0.00  0.00    +0.000 HD
ENDBRANCH   2   4
BRANCH   1  15
ATOM     15  C   UNL     1      49.536   7.029  12.399  0.00  0.00    +0.000 C 
BRANCH  15  16
ATOM     16  C   UNL     1      50.062   8.208  11.550  0.00  0.00    +0.000 C 
BRANCH  16  18
ATOM     17  C   UNL     1      51.939   9.193  10.534  0.00  0.00    +0.000 C 
ATOM     18  O   UNL     1      51.384   7.977  11.045  0.00  0.00    +0.000 OA
ENDBRANCH  16  18
ENDBRANCH  15  16
ENDBRANCH   1  15
BRANCH   1  19
ATOM     19  C   UNL     1      47.462   7.840  13.571  0.00  0.00    +0.000 C 
BRANCH  19  20
ATOM     20  C   UNL     1      46.517   6.771  13.059  0.00  0.00    +0.000 A 
ATOM     21  C   UNL     1      46.303   5.590  13.777  0.00  0.00    +0.000 A 
ATOM     22  C   UNL     1      45.648   4.508  13.178  0.00  0.00    +0.000 A 
ATOM     23  C   UNL     1      45.231   4.582  11.843  0.00  0.00    +0.000 A 
ATOM     24  C   UNL     1      45.282   5.813  11.191  0.00  0.00    +0.000 A 
ATOM     25  C   UNL     1      45.893   6.901  11.810  0.00  0.00    +0.000 A 
BRANCH  23  26
ATOM     26  C   UNL     1      44.858   3.340  11.075  0.00  0.00    +0.000 C 
BRANCH  26  27
ATOM     27  O   UNL     1      44.513   3.624   9.724  0.00  0.00    +0.000 OA
BRANCH  27  28
ATOM     28  C   UNL     1      45.363   3.093   8.784  0.00  0.00    +0.000 A 
ATOM     29  C   UNL     1      45.709   1.748   8.662  0.00  0.00    +0.000 A 
ATOM     30  C   UNL     1      46.578   1.378   7.648  0.00  0.00    +0.000 A 
ATOM     31  N   UNL     1      47.115   2.244   6.767  0.00  0.00    +0.000 NA
ATOM     32  C   UNL     1      46.773   3.540   6.910  0.00  0.00    +0.000 A 
ATOM     33  C   UNL     1      45.912   4.009   7.893  0.00  0.00    +0.000 A 
ENDBRANCH  27  28
ENDBRANCH  26  27
ENDBRANCH  23  26
ENDBRANCH  19  20
ENDBRANCH   1  19
TORSDOF 9
ENDMDL
MODEL 4
REMARK VINA RESULT:    -6.318      2.591      8.039
REMARK INTER + INTRA:         -11.329
REMARK INTER:                  -9.927
REMARK INTRA:                  -1.402
REMARK UNBOUND:                -1.686
REMARK  Name = 
REMARK  10 active torsions:
REMARK  status: ('A' for Active; 'I' for Inactive)
REMARK    1  A    between atoms: C_1  and  O_2
REMARK    2  A    between atoms: O_2  and  C_3
REMARK    3  A    between atoms: C_3  and  C_4
REMARK    4  A    between atoms: C_4  and  N_5
REMARK    5  A    between atoms: N_5  and  C_6
REMARK    6  A    between atoms: C_6  and  C_7
REMARK    7  A    between atoms: C_10  and  C_11
REMARK    8  A    between atoms: C_11  and  O_12
REMARK    9  A    between atoms: O_12  and  C_13
REMARK   10  A    between atoms: C_21  and  C_23
REMARK                            x       y       z     vdW  Elec       q    Type
REMARK                         _______ _______ _______ _____ _____    ______ ____
ROOT
ATOM      1  N   UNL     1      48.603   7.654  14.387  0.00  0.00    +0.000 N 
ATOM      2  C   UNL     1      48.658   7.604  15.797  0.00  0.00    +0.000 C 
ATOM      3  O   UNL     1      48.398   8.601  16.470  0.00  0.00    +0.000 OA
ENDROOT
BRANCH   2   4
ATOM      4  C   UNL     1      49.061   6.374  16.492  0.00  0.00    +0.000 A 
ATOM      5  C   UNL     1      48.196   5.347  16.833  0.00  0.00    +0.000 A 
ATOM      6  S   UNL     1      48.967   4.033  17.607  0.00  0.00    +0.000 S 
ATOM      7  C   UNL     1      50.505   4.728  17.385  0.00  0.00    +0.000 A 
ATOM      8  N   UNL     1      51.632   4.063  17.740  0.00  0.00    +0.000 NA
ATOM      9  C   UNL     1      52.728   4.677  17.448  0.00  0.00    +0.000 A 
ATOM     10  N   UNL     1      52.796   5.915  16.858  0.00  0.00    +0.000 N 
ATOM     11  C   UNL     1      51.678   6.683  16.605  0.00  0.00    +0.000 A 
ATOM     12  O   UNL     1      51.787   7.870  16.310  0.00  0.00    +0.000 OA
ATOM     13  C   UNL     1      50.423   5.981  16.805  0.00  0.00    +0.000 A 
ATOM     14  H   UNL     1      53.686   6.371  16.712  0.00  0.00    +0.000 HD
ENDBRANCH   2   4
BRANCH   1  15
ATOM     15  C   UNL     1      48.133   8.931  13.810  0.00  0.00    +0.000 C 
BRANCH  15  16
ATOM     16  C   UNL     1      49.219   9.847  13.205  0.00  0.00    +0.000 C 
BRANCH  16  18
ATOM     17  C   UNL     1      48.473  10.726  11.156  0.00  0.00    +0.000 C 
ATOM     18  O   UNL     1      49.301   9.738  11.778  0.00  0.00    +0.000 OA
ENDBRANCH  16  18
ENDBRANCH  15  16
ENDBRANCH   1  15
BRANCH   1  19
ATOM     19  C   UNL     1      48.631   6.486  13.478  0.00  0.00    +0.000 C 
BRANCH  19  20
ATOM     20  C   UNL     1      47.262   6.096  12.957  0.00  0.00    +0.000 A 
ATOM     21  C   UNL     1      46.502   5.106  13.588  0.00  0.00    +0.000 A 
ATOM     22  C   UNL     1      45.375   4.570  12.955  0.00  0.00    +0.000 A 
ATOM     23  C   UNL     1      45.015   4.993  11.670  0.00  0.00    +0.000 A 
ATOM     24  C   UNL     1      45.661   6.099  11.121  0.00  0.00    +0.000 A 
ATOM     25  C   UNL     1      46.754   6.660  11.777  0.00  0.00    +0.000 A 
BRANCH  23  26
ATOM     26  C   UNL     1      44.046   4.198  10.833  0.00  0.00    +0.000 C 
BRANCH  26  27
ATOM     27  O   UNL     1      44.239   4.407   9.438  0.00  0.00    +0.000 OA
BRANCH  27  28
ATOM     28  C   UNL     1      45.065   3.497   8.824  0.00  0.00    +0.000 A 
ATOM     29  C   UNL     1      45.137   2.135   9.111  0.00  0.00    +0.000 A 
ATOM     30  C   UNL     1      46.025   1.353   8.389  0.00  0.00    +0.000 A 
ATOM     31  N   UNL     1      46.829   1.831   7.419  0.00  0.00    +0.000 NA
ATOM     32  C   UNL     1      46.748   3.153   7.166  0.00  0.00    +0.000 A 
ATOM     33  C   UNL     1      45.892   4.018   7.835  0.00  0.00    +0.000 A 
ENDBRANCH  27  28
ENDBRANCH  26  27
ENDBRANCH  23  26
ENDBRANCH  19  20
ENDBRANCH   1  19
TORSDOF 9
ENDMDL
MODEL 5
REMARK VINA RESULT:    -6.273      1.278      2.057
REMARK INTER + INTRA:         -11.260
REMARK INTER:                 -10.279
REMARK INTRA:                  -0.981
REMARK UNBOUND:                -1.686
REMARK  Name = 
REMARK  10 active torsions:
REMARK  status: ('A' for Active; 'I' for Inactive)
REMARK    1  A    between atoms: C_1  and  O_2
REMARK    2  A    between atoms: O_2  and  C_3
REMARK    3  A    between atoms: C_3  and  C_4
REMARK    4  A    between atoms: C_4  and  N_5
REMARK    5  A    between atoms: N_5  and  C_6
REMARK    6  A    between atoms: C_6  and  C_7
REMARK    7  A    between atoms: C_10  and  C_11
REMARK    8  A    between atoms: C_11  and  O_12
REMARK    9  A    between atoms: O_12  and  C_13
REMARK   10  A    between atoms: C_21  and  C_23
REMARK                            x       y       z     vdW  Elec       q    Type
REMARK                         _______ _______ _______ _____ _____    ______ ____
ROOT
ATOM      1  N   UNL     1      46.011   7.066  11.968  0.00  0.00    +0.000 N 
ATOM      2  C   UNL     1      44.738   6.617  11.555  0.00  0.00    +0.000 C 
ATOM      3  O   UNL     1      43.840   7.420  11.306  0.00  0.00    +0.000 OA
ENDROOT
BRANCH   2   4
ATOM      4  C   UNL     1      44.444   5.181  11.450  0.00  0.00    +0.000 A 
ATOM      5  C   UNL     1      43.714   4.460  12.382  0.00  0.00    +0.000 A 
ATOM      6  S   UNL     1      43.514   2.814  11.967  0.00  0.00    +0.000 S 
ATOM      7  C   UNL     1      44.274   3.040  10.461  0.00  0.00    +0.000 A 
ATOM      8  N   UNL     1      44.349   2.033   9.557  0.00  0.00    +0.000 NA
ATOM      9  C   UNL     1      44.886   2.364   8.431  0.00  0.00    +0.000 A 
ATOM     10  N   UNL     1      45.384   3.611   8.142  0.00  0.00    +0.000 N 
ATOM     11  C   UNL     1      45.449   4.624   9.076  0.00  0.00    +0.000 A 
ATOM     12  O   UNL     1      46.117   5.632   8.861  0.00  0.00    +0.000 OA
ATOM     13  C   UNL     1      44.747   4.331  10.313  0.00  0.00    +0.000 A 
ATOM     14  H   UNL     1      45.849   3.791   7.263  0.00  0.00    +0.000 HD
ENDBRANCH   2   4
BRANCH   1  15
ATOM     15  C   UNL     1      46.197   8.532  11.983  0.00  0.00    +0.000 C 
BRANCH  15  16
ATOM     16  C   UNL     1      45.077   9.356  12.654  0.00  0.00    +0.000 C 
BRANCH  16  18
ATOM     17  C   UNL     1      43.634  10.903  11.627  0.00  0.00    +0.000 C 
ATOM     18  O   UNL     1      44.962  10.678  12.111  0.00  0.00    +0.000 OA
ENDBRANCH  16  18
ENDBRANCH  15  16
ENDBRANCH   1  15
BRANCH   1  19
ATOM     19  C   UNL     1      47.238   6.241  12.044  0.00  0.00    +0.000 C 
BRANCH  19  20
ATOM     20  C   UNL     1      47.532   5.727  13.439  0.00  0.00    +0.000 A 
ATOM     21  C   UNL     1      46.970   4.535  13.905  0.00  0.00    +0.000 A 
ATOM     22  C   UNL     1      47.029   4.210  15.265  0.00  0.00    +0.000 A 
ATOM     23  C   UNL     1      47.622   5.090  16.179  0.00  0.00    +0.000 A 
ATOM     24  C   UNL     1      48.336   6.184  15.693  0.00  0.00    +0.000 A 
ATOM     25  C   UNL     1      48.312   6.477  14.331  0.00  0.00    +0.000 A 
BRANCH  23  26
ATOM     26  C   UNL     1      47.387   4.947  17.661  0.00  0.00    +0.000 C 
BRANCH  26  27
ATOM     27  O   UNL     1      47.874   3.709  18.168  0.00  0.00    +0.000 OA
BRANCH  27  28
ATOM     28  C   UNL     1      49.241   3.570  18.144  0.00  0.00    +0.000 A 
ATOM     29  C   UNL     1      49.950   2.581  17.464  0.00  0.00    +0.000 A 
ATOM     30  C   UNL     1      51.334   2.590  17.540  0.00  0.00    +0.000 A 
ATOM     31  N   UNL     1      52.042   3.500  18.236  0.00  0.00    +0.000 NA
ATOM     32  C   UNL     1      51.333   4.442  18.892  0.00  0.00    +0.000 A 
ATOM     33  C   UNL     1      49.948   4.516  18.878  0.00  0.00    +0.000 A 
ENDBRANCH  27  28
ENDBRANCH  26  27
ENDBRANCH  23  26
ENDBRANCH  19  20
ENDBRANCH   1  19
TORSDOF 9
ENDMDL
MODEL 6
REMARK VINA RESULT:    -5.886      4.747      7.974
REMARK INTER + INTRA:         -10.670
REMARK INTER:                 -10.044
REMARK INTRA:                  -0.626
REMARK UNBOUND:                -1.686
REMARK  Name = 
REMARK  10 active torsions:
REMARK  status: ('A' for Active; 'I' for Inactive)
REMARK    1  A    between atoms: C_1  and  O_2
REMARK    2  A    between atoms: O_2  and  C_3
REMARK    3  A    between atoms: C_3  and  C_4
REMARK    4  A    between atoms: C_4  and  N_5
REMARK    5  A    between atoms: N_5  and  C_6
REMARK    6  A    between atoms: C_6  and  C_7
REMARK    7  A    between atoms: C_10  and  C_11
REMARK    8  A    between atoms: C_11  and  O_12
REMARK    9  A    between atoms: O_12  and  C_13
REMARK   10  A    between atoms: C_21  and  C_23
REMARK                            x       y       z     vdW  Elec       q    Type
REMARK                         _______ _______ _______ _____ _____    ______ ____
ROOT
ATOM      1  N   UNL     1      45.778   9.334  11.983  0.00  0.00    +0.000 N 
ATOM      2  C   UNL     1      46.962  10.055  12.247  0.00  0.00    +0.000 C 
ATOM      3  O   UNL     1      47.189  11.119  11.672  0.00  0.00    +0.000 OA
ENDROOT
BRANCH   2   4
ATOM      4  C   UNL     1      47.967   9.535  13.184  0.00  0.00    +0.000 A 
ATOM      5  C   UNL     1      47.684   9.069  14.459  0.00  0.00    +0.000 A 
ATOM      6  S   UNL     1      49.059   8.499  15.298  0.00  0.00    +0.000 S 
ATOM      7  C   UNL     1      50.056   8.723  13.938  0.00  0.00    +0.000 A 
ATOM      8  N   UNL     1      51.355   8.335  13.950  0.00  0.00    +0.000 NA
ATOM      9  C   UNL     1      51.972   8.496  12.829  0.00  0.00    +0.000 A 
ATOM     10  N   UNL     1      51.410   9.043  11.701  0.00  0.00    +0.000 N 
ATOM     11  C   UNL     1      50.136   9.573  11.684  0.00  0.00    +0.000 A 
ATOM     12  O   UNL     1      49.759  10.267  10.744  0.00  0.00    +0.000 OA
ATOM     13  C   UNL     1      49.368   9.301  12.886  0.00  0.00    +0.000 A 
ATOM     14  H   UNL     1      51.964   9.201  10.871  0.00  0.00    +0.000 HD
ENDBRANCH   2   4
BRANCH   1  15
ATOM     15  C   UNL     1      44.823   9.987  11.063  0.00  0.00    +0.000 C 
BRANCH  15  16
ATOM     16  C   UNL     1      43.739  10.872  11.719  0.00  0.00    +0.000 C 
BRANCH  16  18
ATOM     17  C   UNL     1      42.261  10.753   9.895  0.00  0.00    +0.000 C 
ATOM     18  O   UNL     1      42.413  10.523  11.299  0.00  0.00    +0.000 OA
ENDBRANCH  16  18
ENDBRANCH  15  16
ENDBRANCH   1  15
BRANCH   1  19
ATOM     19  C   UNL     1      45.259   8.199  12.779  0.00  0.00    +0.000 C 
BRANCH  19  20
ATOM     20  C   UNL     1      45.211   6.895  12.009  0.00  0.00    +0.000 A 
ATOM     21  C   UNL     1      46.152   6.606  11.015  0.00  0.00    +0.000 A 
ATOM     22  C   UNL     1      45.945   5.537  10.136  0.00  0.00    +0.000 A 
ATOM     23  C   UNL     1      44.779   4.766  10.219  0.00  0.00    +0.000 A 
ATOM     24  C   UNL     1      43.936   4.939  11.315  0.00  0.00    +0.000 A 
ATOM     25  C   UNL     1      44.172   5.976  12.215  0.00  0.00    +0.000 A 
BRANCH  23  26
ATOM     26  C   UNL     1      44.363   3.860   9.088  0.00  0.00    +0.000 C 
BRANCH  26  27
ATOM     27  O   UNL     1      45.110   4.101   7.901  0.00  0.00    +0.000 OA
BRANCH  27  28
ATOM     28  C   UNL     1      45.975   3.095   7.545  0.00  0.00    +0.000 A 
ATOM     29  C   UNL     1      46.065   1.842   8.150  0.00  0.00    +0.000 A 
ATOM     30  C   UNL     1      46.992   0.937   7.660  0.00  0.00    +0.000 A 
ATOM     31  N   UNL     1      47.820   1.193   6.629  0.00  0.00    +0.000 NA
ATOM     32  C   UNL     1      47.721   2.415   6.066  0.00  0.00    +0.000 A 
ATOM     33  C   UNL     1      46.825   3.389   6.485  0.00  0.00    +0.000 A 
ENDBRANCH  27  28
ENDBRANCH  26  27
ENDBRANCH  23  26
ENDBRANCH  19  20
ENDBRANCH   1  19
TORSDOF 9
ENDMDL
MODEL 7
REMARK VINA RESULT:    -5.771      2.495      3.409
REMARK INTER + INTRA:         -10.493
REMARK INTER:                  -8.762
REMARK INTRA:                  -1.731
REMARK UNBOUND:                -1.686
REMARK  Name = 
REMARK  10 active torsions:
REMARK  status: ('A' for Active; 'I' for Inactive)
REMARK    1  A    between atoms: C_1  and  O_2
REMARK    2  A    between atoms: O_2  and  C_3
REMARK    3  A    between atoms: C_3  and  C_4
REMARK    4  A    between atoms: C_4  and  N_5
REMARK    5  A    between atoms: N_5  and  C_6
REMARK    6  A    between atoms: C_6  and  C_7
REMARK    7  A    between atoms: C_10  and  C_11
REMARK    8  A    between atoms: C_11  and  O_12
REMARK    9  A    between atoms: O_12  and  C_13
REMARK   10  A    between atoms: C_21  and  C_23
REMARK                            x       y       z     vdW  Elec       q    Type
REMARK                         _______ _______ _______ _____ _____    ______ ____
ROOT
ATOM      1  N   UNL     1      47.923   8.564  13.107  0.00  0.00    +0.000 N 
ATOM      2  C   UNL     1      47.854   7.441  12.256  0.00  0.00    +0.000 C 
ATOM      3  O   UNL     1      48.428   7.443  11.167  0.00  0.00    +0.000 OA
ENDROOT
BRANCH   2   4
ATOM      4  C   UNL     1      47.067   6.258  12.632  0.00  0.00    +0.000 A 
ATOM      5  C   UNL     1      47.568   5.174  13.334  0.00  0.00    +0.000 A 
ATOM      6  S   UNL     1      46.400   3.966  13.649  0.00  0.00    +0.000 S 
ATOM      7  C   UNL     1      45.154   4.913  12.982  0.00  0.00    +0.000 A 
ATOM      8  N   UNL     1      43.863   4.500  13.021  0.00  0.00    +0.000 NA
ATOM      9  C   UNL     1      43.016   5.349  12.545  0.00  0.00    +0.000 A 
ATOM     10  N   UNL     1      43.352   6.565  12.003  0.00  0.00    +0.000 N 
ATOM     11  C   UNL     1      44.659   6.966  11.820  0.00  0.00    +0.000 A 
ATOM     12  O   UNL     1      44.924   7.937  11.116  0.00  0.00    +0.000 OA
ATOM     13  C   UNL     1      45.636   6.096  12.452  0.00  0.00    +0.000 A 
ATOM     14  H   UNL     1      42.646   7.159  11.589  0.00  0.00    +0.000 HD
ENDBRANCH   2   4
BRANCH   1  15
ATOM     15  C   UNL     1      48.789   9.667  12.641  0.00  0.00    +0.000 C 
BRANCH  15  16
ATOM     16  C   UNL     1      48.140  11.068  12.587  0.00  0.00    +0.000 C 
BRANCH  16  18
ATOM     17  C   UNL     1      48.983  11.314  10.406  0.00  0.00    +0.000 C 
ATOM     18  O   UNL     1      47.839  11.485  11.248  0.00  0.00    +0.000 OA
ENDBRANCH  16  18
ENDBRANCH  15  16
ENDBRANCH   1  15
BRANCH   1  19
ATOM     19  C   UNL     1      47.512   8.600  14.529  0.00  0.00    +0.000 C 
BRANCH  19  20
ATOM     20  C   UNL     1      48.606   8.162  15.483  0.00  0.00    +0.000 A 
ATOM     21  C   UNL     1      49.682   7.386  15.043  0.00  0.00    +0.000 A 
ATOM     22  C   UNL     1      50.532   6.769  15.968  0.00  0.00    +0.000 A 
ATOM     23  C   UNL     1      50.295   6.894  17.343  0.00  0.00    +0.000 A 
ATOM     24  C   UNL     1      49.338   7.809  17.779  0.00  0.00    +0.000 A 
ATOM     25  C   UNL     1      48.525   8.456  16.852  0.00  0.00    +0.000 A 
BRANCH  23  26
ATOM     26  C   UNL     1      50.957   5.971  18.333  0.00  0.00    +0.000 C 
BRANCH  26  27
ATOM     27  O   UNL     1      50.057   4.996  18.848  0.00  0.00    +0.000 OA
BRANCH  27  28
ATOM     28  C   UNL     1      49.772   3.960  17.991  0.00  0.00    +0.000 A 
ATOM     29  C   UNL     1      48.537   3.707  17.395  0.00  0.00    +0.000 A 
ATOM     30  C   UNL     1      48.423   2.617  16.547  0.00  0.00    +0.000 A 
ATOM     31  N   UNL     1      49.439   1.779  16.260  0.00  0.00    +0.000 NA
ATOM     32  C   UNL     1      50.621   2.039  16.856  0.00  0.00    +0.000 A 
ATOM     33  C   UNL     1      50.834   3.104  17.720  0.00  0.00    +0.000 A 
ENDBRANCH  27  28
ENDBRANCH  26  27
ENDBRANCH  23  26
ENDBRANCH  19  20
ENDBRANCH   1  19
TORSDOF 9
ENDMDL
MODEL 8
REMARK VINA RESULT:    -5.570      3.036      4.381
REMARK INTER + INTRA:         -10.186
REMARK INTER:                  -8.176
REMARK INTRA:                  -2.010
REMARK UNBOUND:                -1.686
REMARK  Name = 
REMARK  10 active torsions:
REMARK  status: ('A' for Active; 'I' for Inactive)
REMARK    1  A    between atoms: C_1  and  O_2
REMARK    2  A    between atoms: O_2  and  C_3
REMARK    3  A    between atoms: C_3  and  C_4
REMARK    4  A    between atoms: C_4  and  N_5
REMARK    5  A    between atoms: N_5  and  C_6
REMARK    6  A    between atoms: C_6  and  C_7
REMARK    7  A    between atoms: C_10  and  C_11
REMARK    8  A    between atoms: C_11  and  O_12
REMARK    9  A    between atoms: O_12  and  C_13
REMARK   10  A    between atoms: C_21  and  C_23
REMARK                            x       y       z     vdW  Elec       q    Type
REMARK                         _______ _______ _______ _____ _____    ______ ____
ROOT
ATOM      1  N   UNL     1      50.089   9.420  13.009  0.00  0.00    +0.000 N 
ATOM      2  C   UNL     1      49.262   8.785  12.058  0.00  0.00    +0.000 C 
ATOM      3  O   UNL     1      49.735   8.340  11.013  0.00  0.00    +0.000 OA
ENDROOT
BRANCH   2   4
ATOM      4  C   UNL     1      47.813   8.673  12.276  0.00  0.00    +0.000 A 
ATOM      5  C   UNL     1      46.905   9.696  12.049  0.00  0.00    +0.000 A 
ATOM      6  S   UNL     1      45.285   9.253  12.365  0.00  0.00    +0.000 S 
ATOM      7  C   UNL     1      45.725   7.639  12.679  0.00  0.00    +0.000 A 
ATOM      8  N   UNL     1      44.786   6.692  12.923  0.00  0.00    +0.000 NA
ATOM      9  C   UNL     1      45.256   5.500  13.071  0.00  0.00    +0.000 A 
ATOM     10  N   UNL     1      46.590   5.176  13.028  0.00  0.00    +0.000 N 
ATOM     11  C   UNL     1      47.585   6.125  12.917  0.00  0.00    +0.000 A 
ATOM     12  O   UNL     1      48.758   5.830  13.128  0.00  0.00    +0.000 OA
ATOM     13  C   UNL     1      47.096   7.461  12.625  0.00  0.00    +0.000 A 
ATOM     14  H   UNL     1      46.899   4.232  13.214  0.00  0.00    +0.000 HD
ENDBRANCH   2   4
BRANCH   1  15
ATOM     15  C   UNL     1      51.534   9.421  12.700  0.00  0.00    +0.000 C 
BRANCH  15  16
ATOM     16  C   UNL     1      52.127  10.763  12.215  0.00  0.00    +0.000 C 
BRANCH  16  18
ATOM     17  C   UNL     1      51.180  11.465  10.181  0.00  0.00    +0.000 C 
ATOM     18  O   UNL     1      52.296  10.810  10.792  0.00  0.00    +0.000 OA
ENDBRANCH  16  18
ENDBRANCH  15  16
ENDBRANCH   1  15
BRANCH   1  19
ATOM     19  C   UNL     1      49.709   9.759  14.399  0.00  0.00    +0.000 C 
BRANCH  19  20
ATOM     20  C   UNL     1      49.683   8.560  15.326  0.00  0.00    +0.000 A 
ATOM     21  C   UNL     1      48.645   8.377  16.245  0.00  0.00    +0.000 A 
ATOM     22  C   UNL     1      48.765   7.427  17.266  0.00  0.00    +0.000 A 
ATOM     23  C   UNL     1      49.938   6.674  17.400  0.00  0.00    +0.000 A 
ATOM     24  C   UNL     1      50.891   6.728  16.385  0.00  0.00    +0.000 A 
ATOM     25  C   UNL     1      50.744   7.643  15.344  0.00  0.00    +0.000 A 
BRANCH  23  26
ATOM     26  C   UNL     1      50.238   5.922  18.671  0.00  0.00    +0.000 C 
BRANCH  26  27
ATOM     27  O   UNL     1      49.332   4.846  18.889  0.00  0.00    +0.000 OA
BRANCH  27  28
ATOM     28  C   UNL     1      49.459   3.795  18.014  0.00  0.00    +0.000 A 
ATOM     29  C   UNL     1      50.616   3.046  17.798  0.00  0.00    +0.000 A 
ATOM     30  C   UNL     1      50.570   2.009  16.880  0.00  0.00    +0.000 A 
ATOM     31  N   UNL     1      49.470   1.678  16.177  0.00  0.00    +0.000 NA
ATOM     32  C   UNL     1      48.366   2.422  16.396  0.00  0.00    +0.000 A 
ATOM     33  C   UNL     1      48.313   3.479  17.293  0.00  0.00    +0.000 A 
ENDBRANCH  27  28
ENDBRANCH  26  27
ENDBRANCH  23  26
ENDBRANCH  19  20
ENDBRANCH   1  19
TORSDOF 9
ENDMDL
MODEL 9
REMARK VINA RESULT:    -5.437      3.008      8.046
REMARK INTER + INTRA:          -9.985
REMARK INTER:                  -8.284
REMARK INTRA:                  -1.700
REMARK UNBOUND:                -1.686
REMARK  Name = 
REMARK  10 active torsions:
REMARK  status: ('A' for Active; 'I' for Inactive)
REMARK    1  A    between atoms: C_1  and  O_2
REMARK    2  A    between atoms: O_2  and  C_3
REMARK    3  A    between atoms: C_3  and  C_4
REMARK    4  A    between atoms: C_4  and  N_5
REMARK    5  A    between atoms: N_5  and  C_6
REMARK    6  A    between atoms: C_6  and  C_7
REMARK    7  A    between atoms: C_10  and  C_11
REMARK    8  A    between atoms: C_11  and  O_12
REMARK    9  A    between atoms: O_12  and  C_13
REMARK   10  A    between atoms: C_21  and  C_23
REMARK                            x       y       z     vdW  Elec       q    Type
REMARK                         _______ _______ _______ _____ _____    ______ ____
ROOT
ATOM      1  N   UNL     1      49.807   8.823  13.099  0.00  0.00    +0.000 N 
ATOM      2  C   UNL     1      49.770   9.241  14.447  0.00  0.00    +0.000 C 
ATOM      3  O   UNL     1      49.751  10.438  14.731  0.00  0.00    +0.000 OA
ENDROOT
BRANCH   2   4
ATOM      4  C   UNL     1      49.791   8.259  15.540  0.00  0.00    +0.000 A 
ATOM      5  C   UNL     1      48.677   7.873  16.269  0.00  0.00    +0.000 A 
ATOM      6  S   UNL     1      49.014   6.691  17.456  0.00  0.00    +0.000 S 
ATOM      7  C   UNL     1      50.631   6.550  16.942  0.00  0.00    +0.000 A 
ATOM      8  N   UNL     1      51.461   5.627  17.486  0.00  0.00    +0.000 NA
ATOM      9  C   UNL     1      52.634   5.582  16.952  0.00  0.00    +0.000 A 
ATOM     10  N   UNL     1      53.061   6.405  15.938  0.00  0.00    +0.000 N 
ATOM     11  C   UNL     1      52.298   7.444  15.449  0.00  0.00    +0.000 A 
ATOM     12  O   UNL     1      52.798   8.303  14.727  0.00  0.00    +0.000 OA
ATOM     13  C   UNL     1      50.930   7.452  15.936  0.00  0.00    +0.000 A 
ATOM     14  H   UNL     1      54.014   6.362  15.605  0.00  0.00    +0.000 HD
ENDBRANCH   2   4
BRANCH   1  15
ATOM     15  C   UNL     1      49.727   9.902  12.093  0.00  0.00    +0.000 C 
BRANCH  15  16
ATOM     16  C   UNL     1      51.061  10.328  11.441  0.00  0.00    +0.000 C 
BRANCH  16  18
ATOM     17  C   UNL     1      52.884   8.926  10.949  0.00  0.00    +0.000 C 
ATOM     18  O   UNL     1      51.576   9.338  10.539  0.00  0.00    +0.000 OA
ENDBRANCH  16  18
ENDBRANCH  15  16
ENDBRANCH   1  15
BRANCH   1  19
ATOM     19  C   UNL     1      49.570   7.445  12.613  0.00  0.00    +0.000 C 
BRANCH  19  20
ATOM     20  C   UNL     1      48.123   7.007  12.725  0.00  0.00    +0.000 A 
ATOM     21  C   UNL     1      47.770   5.839  13.409  0.00  0.00    +0.000 A 
ATOM     22  C   UNL     1      46.483   5.307  13.280  0.00  0.00    +0.000 A 
ATOM     23  C   UNL     1      45.544   5.917  12.439  0.00  0.00    +0.000 A 
ATOM     24  C   UNL     1      45.835   7.170  11.904  0.00  0.00    +0.000 A 
ATOM     25  C   UNL     1      47.105   7.719  12.074  0.00  0.00    +0.000 A 
BRANCH  23  26
ATOM     26  C   UNL     1      44.299   5.187  12.005  0.00  0.00    +0.000 C 
BRANCH  26  27
ATOM     27  O   UNL     1      44.060   5.310  10.607  0.00  0.00    +0.000 OA
BRANCH  27  28
ATOM     28  C   UNL     1      44.553   4.280   9.842  0.00  0.00    +0.000 A 
ATOM     29  C   UNL     1      44.267   2.926  10.012  0.00  0.00    +0.000 A 
ATOM     30  C   UNL     1      44.846   2.015   9.143  0.00  0.00    +0.000 A 
ATOM     31  N   UNL     1      45.676   2.357   8.139  0.00  0.00    +0.000 NA
ATOM     32  C   UNL     1      45.945   3.672   8.001  0.00  0.00    +0.000 A 
ATOM     33  C   UNL     1      45.415   4.659   8.819  0.00  0.00    +0.000 A 
ENDBRANCH  27  28
ENDBRANCH  26  27
ENDBRANCH  23  26
ENDBRANCH  19  20
ENDBRANCH   1  19
TORSDOF 9
ENDMDL
