MODEL 1
REMARK VINA RESULT:    -7.785      0.000      0.000
REMARK INTER + INTRA:         -11.656
REMARK INTER:                 -10.971
REMARK INTRA:                  -0.685
REMARK UNBOUND:                -0.685
REMARK  Name = 
REMARK  11 active torsions:
REMARK  status: ('A' for Active; 'I' for Inactive)
REMARK    1  A    between atoms: C_1  and  N_2
REMARK    2  A    between atoms: N_2  and  C_3
REMARK    3  A    between atoms: N_2  and  C_4
REMARK    4  A    between atoms: C_4  and  C_5
REMARK    5  A    between atoms: C_4  and  C_6
REMARK    6  A    between atoms: C_4  and  C_7
REMARK    7  A    between atoms: C_9  and  N_10
REMARK    8  A    between atoms: N_10  and  C_11
REMARK    9  A    between atoms: C_11  and  C_12
REMARK   10  A    between atoms: C_15  and  C_16
REMARK   11  A    between atoms: C_23  and  C_24
REMARK                            x       y       z     vdW  Elec       q    Type
REMARK                         _______ _______ _______ _____ _____    ______ ____
ROOT
ATOM      1  C   UNL     1      47.075   6.790  13.012  0.00  0.00    +0.000 A 
ATOM      2  C   UNL     1      46.136   6.832  11.952  0.00  0.00    +0.000 A 
ATOM      3  C   UNL     1      45.162   5.860  11.745  0.00  0.00    +0.000 A 
ATOM      4  N   UNL     1      45.061   4.815  12.572  0.00  0.00    +0.000 NA
ATOM      5  C   UNL     1      45.942   4.754  13.603  0.00  0.00    +0.000 A 
ATOM      6  C   UNL     1      46.949   5.686  13.873  0.00  0.00    +0.000 A 
ENDROOT
BRANCH   1   7
ATOM      7  C   UNL     1      48.108   7.961  13.118  0.00  0.00    +0.000 C 
ATOM      8  C   UNL     1      47.864   8.782  14.427  0.00  0.00    +0.000 C 
ATOM      9  C   UNL     1      47.893   9.011  11.991  0.00  0.00    +0.000 C 
BRANCH   7  11
ATOM     10  C   UNL     1      50.182   7.685  11.748  0.00  0.00    +0.000 C 
ATOM     11  N   UNL     1      49.513   7.434  13.034  0.00  0.00    +0.000 NA
ATOM     12  C   UNL     1      50.419   7.874  14.102  0.00  0.00    +0.000 C 
ENDBRANCH   7  11
ENDBRANCH   1   7
BRANCH   3  13
ATOM     13  N   UNL     1      44.328   5.883  10.646  0.00  0.00    +0.000 N 
ATOM     14  H   UNL     1      44.643   6.539   9.936  0.00  0.00    +0.000 HD
BRANCH  13  15
ATOM     15  C   UNL     1      43.745   4.647  10.132  0.00  0.00    +0.000 C 
BRANCH  15  16
ATOM     16  C   UNL     1      44.694   3.871   9.231  0.00  0.00    +0.000 A 
ATOM     17  N   UNL     1      45.440   4.556   8.336  0.00  0.00    +0.000 NA
ATOM     18  C   UNL     1      46.301   3.828   7.587  0.00  0.00    +0.000 A 
ATOM     19  C   UNL     1      46.467   2.465   7.719  0.00  0.00    +0.000 A 
ATOM     20  C   UNL     1      45.663   1.861   8.656  0.00  0.00    +0.000 A 
ATOM     21  N   UNL     1      44.781   2.535   9.430  0.00  0.00    +0.000 NA
BRANCH  19  22
ATOM     22  C   UNL     1      47.433   1.752   6.873  0.00  0.00    +0.000 C 
ATOM     23  N   UNL     1      48.515   2.441   6.401  0.00  0.00    +0.000 N 
ATOM     24  O   UNL     1      47.257   0.578   6.578  0.00  0.00    +0.000 OA
ATOM     25  H   UNL     1      48.673   3.433   6.510  0.00  0.00    +0.000 HD
ATOM     26  H   UNL     1      49.130   1.938   5.771  0.00  0.00    +0.000 HD
ENDBRANCH  19  22
ENDBRANCH  15  16
ENDBRANCH  13  15
ENDBRANCH   3  13
BRANCH   6  27
ATOM     27  C   UNL     1      47.782   5.384  15.003  0.00  0.00    +0.000 C 
ATOM     28  N   UNL     1      48.386   5.109  15.949  0.00  0.00    +0.000 NA
ENDBRANCH   6  27
TORSDOF 7
ENDMDL
MODEL 2
REMARK VINA RESULT:    -6.931      1.612      2.911
REMARK INTER + INTRA:         -10.452
REMARK INTER:                  -9.850
REMARK INTRA:                  -0.602
REMARK UNBOUND:                -0.685
REMARK  Name = 
REMARK  11 active torsions:
REMARK  status: ('A' for Active; 'I' for Inactive)
REMARK    1  A    between atoms: C_1  and  N_2
REMARK    2  A    between atoms: N_2  and  C_3
REMARK    3  A    between atoms: N_2  and  C_4
REMARK    4  A    between atoms: C_4  and  C_5
REMARK    5  A    between atoms: C_4  and  C_6
REMARK    6  A    between atoms: C_4  and  C_7
REMARK    7  A    between atoms: C_9  and  N_10
REMARK    8  A    between atoms: N_10  and  C_11
REMARK    9  A    between atoms: C_11  and  C_12
REMARK   10  A    between atoms: C_15  and  C_16
REMARK   11  A    between atoms: C_23  and  C_24
REMARK                            x       y       z     vdW  Elec       q    Type
REMARK                         _______ _______ _______ _____ _____    ______ ____
ROOT
ATOM      1  C   UNL     1      46.737   7.846  12.158  0.00  0.00    +0.000 A 
ATOM      2  C   UNL     1      46.305   6.505  12.003  0.00  0.00    +0.000 A 
ATOM      3  C   UNL     1      45.039   6.150  11.548  0.00  0.00    +0.000 A 
ATOM      4  N   UNL     1      44.149   7.091  11.217  0.00  0.00    +0.000 NA
ATOM      5  C   UNL     1      44.539   8.385  11.347  0.00  0.00    +0.000 A 
ATOM      6  C   UNL     1      45.788   8.820  11.800  0.00  0.00    +0.000 A 
ENDROOT
BRANCH   1   7
ATOM      7  C   UNL     1      48.194   8.087  12.676  0.00  0.00    +0.000 C 
ATOM      8  C   UNL     1      49.008   8.921  11.631  0.00  0.00    +0.000 C 
ATOM      9  C   UNL     1      48.990   6.755  12.769  0.00  0.00    +0.000 C 
BRANCH   7  11
ATOM     10  C   UNL     1      48.616   7.874  15.130  0.00  0.00    +0.000 C 
ATOM     11  N   UNL     1      48.171   8.741  14.028  0.00  0.00    +0.000 NA
ATOM     12  C   UNL     1      48.906  10.008  14.131  0.00  0.00    +0.000 C 
ENDBRANCH   7  11
ENDBRANCH   1   7
BRANCH   3  13
ATOM     13  N   UNL     1      44.620   4.836  11.503  0.00  0.00    +0.000 N 
ATOM     14  H   UNL     1      44.210   4.531  12.382  0.00  0.00    +0.000 HD
BRANCH  13  15
ATOM     15  C   UNL     1      43.981   4.302  10.304  0.00  0.00    +0.000 C 
BRANCH  15  16
ATOM     16  C   UNL     1      44.976   3.737   9.301  0.00  0.00    +0.000 A 
ATOM     17  N   UNL     1      45.169   2.400   9.265  0.00  0.00    +0.000 NA
ATOM     18  C   UNL     1      46.030   1.941   8.327  0.00  0.00    +0.000 A 
ATOM     19  C   UNL     1      46.672   2.752   7.416  0.00  0.00    +0.000 A 
ATOM     20  C   UNL     1      46.410   4.096   7.534  0.00  0.00    +0.000 A 
ATOM     21  N   UNL     1      45.564   4.614   8.453  0.00  0.00    +0.000 NA
BRANCH  19  22
ATOM     22  C   UNL     1      47.584   2.170   6.422  0.00  0.00    +0.000 C 
ATOM     23  N   UNL     1      47.859   2.890   5.293  0.00  0.00    +0.000 N 
ATOM     24  O   UNL     1      48.062   1.055   6.588  0.00  0.00    +0.000 OA
ATOM     25  H   UNL     1      47.423   3.764   5.033  0.00  0.00    +0.000 HD
ATOM     26  H   UNL     1      48.443   2.436   4.600  0.00  0.00    +0.000 HD
ENDBRANCH  19  22
ENDBRANCH  15  16
ENDBRANCH  13  15
ENDBRANCH   3  13
BRANCH   6  27
ATOM     27  C   UNL     1      45.952  10.243  11.886  0.00  0.00    +0.000 C 
ATOM     28  N   UNL     1      46.107  11.379  12.034  0.00  0.00    +0.000 NA
ENDBRANCH   6  27
TORSDOF 7
ENDMDL
MODEL 3
REMARK VINA RESULT:    -6.091      1.477      2.018
REMARK INTER + INTRA:          -9.269
REMARK INTER:                  -8.656
REMARK INTRA:                  -0.613
REMARK UNBOUND:                -0.685
REMARK  Name = 
REMARK  11 active torsions:
REMARK  status: ('A' for Active; 'I' for Inactive)
REMARK    1  A    between atoms: C_1  and  N_2
REMARK    2  A    between atoms: N_2  and  C_3
REMARK    3  A    between atoms: N_2  and  C_4
REMARK    4  A    between atoms: C_4  and  C_5
REMARK    5  A    between atoms: C_4  and  C_6
REMARK    6  A    between atoms: C_4  and  C_7
REMARK    7  A    between atoms: C_9  and  N_10
REMARK    8  A    between atoms: N_10  and  C_11
REMARK    9  A    between atoms: C_11  and  C_12
REMARK   10  A    between atoms: C_15  and  C_16
REMARK   11  A    between atoms: C_23  and  C_24
REMARK                            x       y       z     vdW  Elec       q    Type
REMARK                         _______ _______ _______ _____ _____    ______ ____
ROOT
ATOM      1  C   UNL     1      46.427   6.016  12.487  0.00  0.00    +0.000 A 
ATOM      2  C   UNL     1      45.383   5.512  11.672  0.00  0.00    +0.000 A 
ATOM      3  C   UNL     1      44.738   4.301  11.905  0.00  0.00    +0.000 A 
ATOM      4  N   UNL     1      45.080   3.541  12.950  0.00  0.00    +0.000 NA
ATOM      5  C   UNL     1      46.071   4.003  13.754  0.00  0.00    +0.000 A 
ATOM      6  C   UNL     1      46.769   5.204  13.583  0.00  0.00    +0.000 A 
ENDROOT
BRANCH   1   7
ATOM      7  C   UNL     1      47.052   7.397  12.100  0.00  0.00    +0.000 C 
ATOM      8  C   UNL     1      46.489   7.879  10.721  0.00  0.00    +0.000 C 
ATOM      9  C   UNL     1      48.580   7.275  11.840  0.00  0.00    +0.000 C 
BRANCH   7  11
ATOM     10  C   UNL     1      47.952   9.313  13.430  0.00  0.00    +0.000 C 
ATOM     11  N   UNL     1      46.819   8.406  13.189  0.00  0.00    +0.000 NA
ATOM     12  C   UNL     1      45.612   9.228  13.044  0.00  0.00    +0.000 C 
ENDBRANCH   7  11
ENDBRANCH   1   7
BRANCH   3  13
ATOM     13  N   UNL     1      43.793   3.796  11.035  0.00  0.00    +0.000 N 
ATOM     14  H   UNL     1      43.447   4.501  10.389  0.00  0.00    +0.000 HD
BRANCH  13  15
ATOM     15  C   UNL     1      43.946   2.459  10.470  0.00  0.00    +0.000 C 
BRANCH  15  16
ATOM     16  C   UNL     1      44.876   2.425   9.266  0.00  0.00    +0.000 A 
ATOM     17  N   UNL     1      45.131   3.580   8.613  0.00  0.00    +0.000 NA
ATOM     18  C   UNL     1      45.998   3.507   7.576  0.00  0.00    +0.000 A 
ATOM     19  C   UNL     1      46.636   2.347   7.193  0.00  0.00    +0.000 A 
ATOM     20  C   UNL     1      46.311   1.226   7.920  0.00  0.00    +0.000 A 
ATOM     21  N   UNL     1      45.448   1.236   8.962  0.00  0.00    +0.000 NA
BRANCH  19  22
ATOM     22  C   UNL     1      47.573   2.357   6.062  0.00  0.00    +0.000 C 
ATOM     23  N   UNL     1      47.410   3.307   5.092  0.00  0.00    +0.000 N 
ATOM     24  O   UNL     1      48.460   1.518   5.977  0.00  0.00    +0.000 OA
ATOM     25  H   UNL     1      46.643   3.961   5.034  0.00  0.00    +0.000 HD
ATOM     26  H   UNL     1      48.035   3.249   4.296  0.00  0.00    +0.000 HD
ENDBRANCH  19  22
ENDBRANCH  15  16
ENDBRANCH  13  15
ENDBRANCH   3  13
BRANCH   6  27
ATOM     27  C   UNL     1      47.803   5.459  14.545  0.00  0.00    +0.000 C 
ATOM     28  N   UNL     1      48.588   5.726  15.350  0.00  0.00    +0.000 NA
ENDBRANCH   6  27
TORSDOF 7
ENDMDL
MODEL 4
REMARK VINA RESULT:    -6.022      3.954      6.108
REMARK INTER + INTRA:          -9.172
REMARK INTER:                  -8.679
REMARK INTRA:                  -0.493
REMARK UNBOUND:                -0.685
REMARK  Name = 
REMARK  11 active torsions:
REMARK  status: ('A' for Active; 'I' for Inactive)
REMARK    1  A    between atoms: C_1  and  N_2
REMARK    2  A    between atoms: N_2  and  C_3
REMARK    3  A    between atoms: N_2  and  C_4
REMARK    4  A    between atoms: C_4  and  C_5
REMARK    5  A    between atoms: C_4  and  C_6
REMARK    6  A    between atoms: C_4  and  C_7
REMARK    7  A    between atoms: C_9  and  N_10
REMARK    8  A    between atoms: N_10  and  C_11
REMARK    9  A    between atoms: C_11  and  C_12
REMARK   10  A    between atoms: C_15  and  C_16
REMARK   11  A    between atoms: C_23  and  C_24
REMARK                            x       y       z     vdW  Elec       q    Type
REMARK                         _______ _______ _______ _____ _____    ______ ____
ROOT
ATOM      1  C   UNL     1      50.304   4.035  17.743  0.00  0.00    +0.000 A 
ATOM      2  C   UNL     1      49.029   4.248  17.163  0.00  0.00    +0.000 A 
ATOM      3  C   UNL     1      48.365   3.301  16.389  0.00  0.00    +0.000 A 
ATOM      4  N   UNL     1      48.918   2.105  16.159  0.00  0.00    +0.000 NA
ATOM      5  C   UNL     1      50.136   1.870  16.710  0.00  0.00    +0.000 A 
ATOM      6  C   UNL     1      50.866   2.770  17.493  0.00  0.00    +0.000 A 
ENDROOT
BRANCH   1   7
ATOM      7  C   UNL     1      50.920   5.194  18.594  0.00  0.00    +0.000 C 
ATOM      8  C   UNL     1      49.982   6.447  18.563  0.00  0.00    +0.000 C 
ATOM      9  C   UNL     1      52.241   5.720  17.964  0.00  0.00    +0.000 C 
BRANCH   7  11
ATOM     10  C   UNL     1      52.537   5.073  20.497  0.00  0.00    +0.000 C 
ATOM     11  N   UNL     1      51.197   4.730  19.996  0.00  0.00    +0.000 NA
ATOM     12  C   UNL     1      50.220   5.152  21.008  0.00  0.00    +0.000 C 
ENDBRANCH   7  11
ENDBRANCH   1   7
BRANCH   3  13
ATOM     13  N   UNL     1      47.169   3.578  15.760  0.00  0.00    +0.000 N 
ATOM     14  H   UNL     1      46.366   3.371  16.349  0.00  0.00    +0.000 HD
BRANCH  13  15
ATOM     15  C   UNL     1      47.031   4.763  14.918  0.00  0.00    +0.000 C 
BRANCH  15  16
ATOM     16  C   UNL     1      46.332   4.476  13.598  0.00  0.00    +0.000 A 
ATOM     17  N   UNL     1      46.087   3.190  13.261  0.00  0.00    +0.000 NA
ATOM     18  C   UNL     1      45.424   2.987  12.099  0.00  0.00    +0.000 A 
ATOM     19  C   UNL     1      44.974   4.006  11.287  0.00  0.00    +0.000 A 
ATOM     20  C   UNL     1      45.272   5.278  11.716  0.00  0.00    +0.000 A 
ATOM     21  N   UNL     1      45.935   5.543  12.864  0.00  0.00    +0.000 NA
BRANCH  19  22
ATOM     22  C   UNL     1      44.251   3.698  10.046  0.00  0.00    +0.000 C 
ATOM     23  N   UNL     1      43.934   4.729   9.207  0.00  0.00    +0.000 N 
ATOM     24  O   UNL     1      43.917   2.549   9.785  0.00  0.00    +0.000 OA
ATOM     25  H   UNL     1      44.077   5.710   9.401  0.00  0.00    +0.000 HD
ATOM     26  H   UNL     1      43.383   4.491   8.389  0.00  0.00    +0.000 HD
ENDBRANCH  19  22
ENDBRANCH  15  16
ENDBRANCH  13  15
ENDBRANCH   3  13
BRANCH   6  27
ATOM     27  C   UNL     1      52.150   2.305  17.933  0.00  0.00    +0.000 C 
ATOM     28  N   UNL     1      53.219   1.979  18.230  0.00  0.00    +0.000 NA
ENDBRANCH   6  27
TORSDOF 7
ENDMDL
MODEL 5
REMARK VINA RESULT:    -5.889      4.549      7.335
REMARK INTER + INTRA:          -8.985
REMARK INTER:                  -8.379
REMARK INTRA:                  -0.605
REMARK UNBOUND:                -0.685
REMARK  Name = 
REMARK  11 active torsions:
REMARK  status: ('A' for Active; 'I' for Inactive)
REMARK    1  A    between atoms: C_1  and  N_2
REMARK    2  A    between atoms: N_2  and  C_3
REMARK    3  A    between atoms: N_2  and  C_4
REMARK    4  A    between atoms: C_4  and  C_5
REMARK    5  A    between atoms: C_4  and  C_6
REMARK    6  A    between atoms: C_4  and  C_7
REMARK    7  A    between atoms: C_9  and  N_10
REMARK    8  A    between atoms: N_10  and  C_11
REMARK    9  A    between atoms: C_11  and  C_12
REMARK   10  A    between atoms: C_15  and  C_16
REMARK   11  A    between atoms: C_23  and  C_24
REMARK                            x       y       z     vdW  Elec       q    Type
REMARK                         _______ _______ _______ _____ _____    ______ ____
ROOT
ATOM      1  C   UNL     1      47.230   6.653  13.222  0.00  0.00    +0.000 A 
ATOM      2  C   UNL     1      47.621   5.523  13.982  0.00  0.00    +0.000 A 
ATOM      3  C   UNL     1      46.782   4.445  14.251  0.00  0.00    +0.000 A 
ATOM      4  N   UNL     1      45.531   4.426  13.779  0.00  0.00    +0.000 NA
ATOM      5  C   UNL     1      45.132   5.492  13.040  0.00  0.00    +0.000 A 
ATOM      6  C   UNL     1      45.912   6.611  12.732  0.00  0.00    +0.000 A 
ENDROOT
BRANCH   1   7
ATOM      7  C   UNL     1      48.288   7.784  13.000  0.00  0.00    +0.000 C 
ATOM      8  C   UNL     1      48.670   7.877  11.485  0.00  0.00    +0.000 C 
ATOM      9  C   UNL     1      49.639   7.440  13.689  0.00  0.00    +0.000 C 
BRANCH   7  11
ATOM     10  C   UNL     1      48.392   9.503  14.812  0.00  0.00    +0.000 C 
ATOM     11  N   UNL     1      47.782   9.093  13.537  0.00  0.00    +0.000 NA
ATOM     12  C   UNL     1      47.865  10.231  12.614  0.00  0.00    +0.000 C 
ENDBRANCH   7  11
ENDBRANCH   1   7
BRANCH   3  13
ATOM     13  N   UNL     1      47.165   3.408  15.076  0.00  0.00    +0.000 N 
ATOM     14  H   UNL     1      47.841   2.791  14.632  0.00  0.00    +0.000 HD
BRANCH  13  15
ATOM     15  C   UNL     1      47.376   3.633  16.502  0.00  0.00    +0.000 C 
BRANCH  15  16
ATOM     16  C   UNL     1      48.787   3.290  16.957  0.00  0.00    +0.000 A 
ATOM     17  N   UNL     1      49.312   2.099  16.593  0.00  0.00    +0.000 NA
ATOM     18  C   UNL     1      50.585   1.857  16.983  0.00  0.00    +0.000 A 
ATOM     19  C   UNL     1      51.354   2.760  17.685  0.00  0.00    +0.000 A 
ATOM     20  C   UNL     1      50.731   3.942  18.008  0.00  0.00    +0.000 A 
ATOM     21  N   UNL     1      49.460   4.238  17.650  0.00  0.00    +0.000 NA
BRANCH  19  22
ATOM     22  C   UNL     1      52.734   2.422  18.061  0.00  0.00    +0.000 C 
ATOM     23  N   UNL     1      52.995   1.154  18.501  0.00  0.00    +0.000 N 
ATOM     24  O   UNL     1      53.620   3.264  18.006  0.00  0.00    +0.000 OA
ATOM     25  H   UNL     1      52.303   0.439  18.676  0.00  0.00    +0.000 HD
ATOM     26  H   UNL     1      53.943   0.971  18.809  0.00  0.00    +0.000 HD
ENDBRANCH  19  22
ENDBRANCH  15  16
ENDBRANCH  13  15
ENDBRANCH   3  13
BRANCH   6  27
ATOM     27  C   UNL     1      45.254   7.630  11.964  0.00  0.00    +0.000 C 
ATOM     28  N   UNL     1      44.681   8.468  11.412  0.00  0.00    +0.000 NA
ENDBRANCH   6  27
TORSDOF 7
ENDMDL
MODEL 6
REMARK VINA RESULT:    -5.836      4.028      7.903
REMARK INTER + INTRA:          -8.910
REMARK INTER:                  -8.491
REMARK INTRA:                  -0.419
REMARK UNBOUND:                -0.685
REMARK  Name = 
REMARK  11 active torsions:
REMARK  status: ('A' for Active; 'I' for Inactive)
REMARK    1  A    between atoms: C_1  and  N_2
REMARK    2  A    between atoms: N_2  and  C_3
REMARK    3  A    between atoms: N_2  and  C_4
REMARK    4  A    between atoms: C_4  and  C_5
REMARK    5  A    between atoms: C_4  and  C_6
REMARK    6  A    between atoms: C_4  and  C_7
REMARK    7  A    between atoms: C_9  and  N_10
REMARK    8  A    between atoms: N_10  and  C_11
REMARK    9  A    between atoms: C_11  and  C_12
REMARK   10  A    between atoms: C_15  and  C_16
REMARK   11  A    between atoms: C_23  and  C_24
REMARK                            x       y       z     vdW  Elec       q    Type
REMARK                         _______ _______ _______ _____ _____    ______ ____
ROOT
ATOM      1  C   UNL     1      46.178   6.496  12.887  0.00  0.00    +0.000 A 
ATOM      2  C   UNL     1      47.168   6.031  13.788  0.00  0.00    +0.000 A 
ATOM      3  C   UNL     1      48.024   6.870  14.494  0.00  0.00    +0.000 A 
ATOM      4  N   UNL     1      47.940   8.197  14.354  0.00  0.00    +0.000 NA
ATOM      5  C   UNL     1      46.994   8.672  13.504  0.00  0.00    +0.000 A 
ATOM      6  C   UNL     1      46.103   7.894  12.757  0.00  0.00    +0.000 A 
ENDROOT
BRANCH   1   7
ATOM      7  C   UNL     1      45.286   5.429  12.170  0.00  0.00    +0.000 C 
ATOM      8  C   UNL     1      45.748   3.985  12.561  0.00  0.00    +0.000 C 
ATOM      9  C   UNL     1      45.489   5.463  10.628  0.00  0.00    +0.000 C 
BRANCH   7  11
ATOM     10  C   UNL     1      42.996   5.922  11.298  0.00  0.00    +0.000 C 
ATOM     11  N   UNL     1      43.834   5.661  12.478  0.00  0.00    +0.000 NA
ATOM     12  C   UNL     1      43.179   4.613  13.269  0.00  0.00    +0.000 C 
ENDBRANCH   7  11
ENDBRANCH   1   7
BRANCH   3  13
ATOM     13  N   UNL     1      49.040   6.379  15.289  0.00  0.00    +0.000 N 
ATOM     14  H   UNL     1      49.874   6.960  15.253  0.00  0.00    +0.000 HD
BRANCH  13  15
ATOM     15  C   UNL     1      48.745   5.798  16.595  0.00  0.00    +0.000 C 
BRANCH  15  16
ATOM     16  C   UNL     1      49.655   4.631  16.946  0.00  0.00    +0.000 A 
ATOM     17  N   UNL     1      49.149   3.379  16.895  0.00  0.00    +0.000 NA
ATOM     18  C   UNL     1      50.008   2.370  17.173  0.00  0.00    +0.000 A 
ATOM     19  C   UNL     1      51.342   2.559  17.464  0.00  0.00    +0.000 A 
ATOM     20  C   UNL     1      51.760   3.869  17.491  0.00  0.00    +0.000 A 
ATOM     21  N   UNL     1      50.948   4.918  17.227  0.00  0.00    +0.000 NA
BRANCH  19  22
ATOM     22  C   UNL     1      52.209   1.407  17.743  0.00  0.00    +0.000 C 
ATOM     23  N   UNL     1      51.626   0.239  18.149  0.00  0.00    +0.000 N 
ATOM     24  O   UNL     1      53.425   1.501  17.642  0.00  0.00    +0.000 OA
ATOM     25  H   UNL     1      50.646   0.114  18.359  0.00  0.00    +0.000 HD
ATOM     26  H   UNL     1      52.256  -0.518  18.391  0.00  0.00    +0.000 HD
ENDBRANCH  19  22
ENDBRANCH  15  16
ENDBRANCH  13  15
ENDBRANCH   3  13
BRANCH   6  27
ATOM     27  C   UNL     1      45.217   8.626  11.897  0.00  0.00    +0.000 C 
ATOM     28  N   UNL     1      44.553   9.194  11.141  0.00  0.00    +0.000 NA
ENDBRANCH   6  27
TORSDOF 7
ENDMDL
MODEL 7
REMARK VINA RESULT:    -5.559      2.800      5.138
REMARK INTER + INTRA:          -8.520
REMARK INTER:                  -8.128
REMARK INTRA:                  -0.392
REMARK UNBOUND:                -0.685
REMARK  Name = 
REMARK  11 active torsions:
REMARK  status: ('A' for Active; 'I' for Inactive)
REMARK    1  A    between atoms: C_1  and  N_2
REMARK    2  A    between atoms: N_2  and  C_3
REMARK    3  A    between atoms: N_2  and  C_4
REMARK    4  A    between atoms: C_4  and  C_5
REMARK    5  A    between atoms: C_4  and  C_6
REMARK    6  A    between atoms: C_4  and  C_7
REMARK    7  A    between atoms: C_9  and  N_10
REMARK    8  A    between atoms: N_10  and  C_11
REMARK    9  A    between atoms: C_11  and  C_12
REMARK   10  A    between atoms: C_15  and  C_16
REMARK   11  A    between atoms: C_23  and  C_24
REMARK                            x       y       z     vdW  Elec       q    Type
REMARK                         _______ _______ _______ _____ _____    ______ ____
ROOT
ATOM      1  C   UNL     1      49.514   6.113  16.275  0.00  0.00    +0.000 A 
ATOM      2  C   UNL     1      48.382   6.377  15.464  0.00  0.00    +0.000 A 
ATOM      3  C   UNL     1      48.385   7.279  14.405  0.00  0.00    +0.000 A 
ATOM      4  N   UNL     1      49.497   7.951  14.090  0.00  0.00    +0.000 NA
ATOM      5  C   UNL     1      50.600   7.710  14.843  0.00  0.00    +0.000 A 
ATOM      6  C   UNL     1      50.674   6.825  15.924  0.00  0.00    +0.000 A 
ENDROOT
BRANCH   1   7
ATOM      7  C   UNL     1      49.357   5.066  17.427  0.00  0.00    +0.000 C 
ATOM      8  C   UNL     1      47.843   4.851  17.761  0.00  0.00    +0.000 C 
ATOM      9  C   UNL     1      49.945   5.602  18.764  0.00  0.00    +0.000 C 
BRANCH   7  11
ATOM     10  C   UNL     1      51.239   3.483  17.877  0.00  0.00    +0.000 C 
ATOM     11  N   UNL     1      50.046   3.780  17.069  0.00  0.00    +0.000 NA
ATOM     12  C   UNL     1      49.195   2.583  17.073  0.00  0.00    +0.000 C 
ENDBRANCH   7  11
ENDBRANCH   1   7
BRANCH   3  13
ATOM     13  N   UNL     1      47.238   7.584  13.700  0.00  0.00    +0.000 N 
ATOM     14  H   UNL     1      46.805   8.446  14.022  0.00  0.00    +0.000 HD
BRANCH  13  15
ATOM     15  C   UNL     1      47.171   7.358  12.260  0.00  0.00    +0.000 C 
BRANCH  15  16
ATOM     16  C   UNL     1      46.308   6.162  11.885  0.00  0.00    +0.000 A 
ATOM     17  N   UNL     1      45.847   6.069  10.618  0.00  0.00    +0.000 NA
ATOM     18  C   UNL     1      45.121   4.966  10.321  0.00  0.00    +0.000 A 
ATOM     19  C   UNL     1      44.869   3.951  11.218  0.00  0.00    +0.000 A 
ATOM     20  C   UNL     1      45.381   4.138  12.481  0.00  0.00    +0.000 A 
ATOM     21  N   UNL     1      46.109   5.220  12.838  0.00  0.00    +0.000 NA
BRANCH  19  22
ATOM     22  C   UNL     1      44.081   2.781  10.810  0.00  0.00    +0.000 C 
ATOM     23  N   UNL     1      44.504   2.057   9.731  0.00  0.00    +0.000 N 
ATOM     24  O   UNL     1      43.054   2.480  11.405  0.00  0.00    +0.000 OA
ATOM     25  H   UNL     1      45.275   2.303   9.125  0.00  0.00    +0.000 HD
ATOM     26  H   UNL     1      43.906   1.293   9.438  0.00  0.00    +0.000 HD
ENDBRANCH  19  22
ENDBRANCH  15  16
ENDBRANCH  13  15
ENDBRANCH   3  13
BRANCH   6  27
ATOM     27  C   UNL     1      51.944   6.770  16.590  0.00  0.00    +0.000 C 
ATOM     28  N   UNL     1      52.961   6.807  17.138  0.00  0.00    +0.000 NA
ENDBRANCH   6  27
TORSDOF 7
ENDMDL
MODEL 8
REMARK VINA RESULT:    -5.500      2.826      5.536
REMARK INTER + INTRA:          -8.436
REMARK INTER:                  -7.825
REMARK INTRA:                  -0.611
REMARK UNBOUND:                -0.685
REMARK  Name = 
REMARK  11 active torsions:
REMARK  status: ('A' for Active; 'I' for Inactive)
REMARK    1  A    between atoms: C_1  and  N_2
REMARK    2  A    between atoms: N_2  and  C_3
REMARK    3  A    between atoms: N_2  and  C_4
REMARK    4  A    between atoms: C_4  and  C_5
REMARK    5  A    between atoms: C_4  and  C_6
REMARK    6  A    between atoms: C_4  and  C_7
REMARK    7  A    between atoms: C_9  and  N_10
REMARK    8  A    between atoms: N_10  and  C_11
REMARK    9  A    between atoms: C_11  and  C_12
REMARK   10  A    between atoms: C_15  and  C_16
REMARK   11  A    between atoms: C_23  and  C_24
REMARK                            x       y       z     vdW  Elec       q    Type
REMARK                         _______ _______ _______ _____ _____    ______ ____
ROOT
ATOM      1  C   UNL     1      49.380   5.866  16.540  0.00  0.00    +0.000 A 
ATOM      2  C   UNL     1      48.660   6.261  15.386  0.00  0.00    +0.000 A 
ATOM      3  C   UNL     1      49.152   7.151  14.436  0.00  0.00    +0.000 A 
ATOM      4  N   UNL     1      50.371   7.683  14.574  0.00  0.00    +0.000 NA
ATOM      5  C   UNL     1      51.088   7.315  15.667  0.00  0.00    +0.000 A 
ATOM      6  C   UNL     1      50.661   6.432  16.664  0.00  0.00    +0.000 A 
ENDROOT
BRANCH   1   7
ATOM      7  C   UNL     1      48.695   4.850  17.514  0.00  0.00    +0.000 C 
ATOM      8  C   UNL     1      49.524   3.524  17.585  0.00  0.00    +0.000 C 
ATOM      9  C   UNL     1      47.317   4.382  16.968  0.00  0.00    +0.000 C 
BRANCH   7  11
ATOM     10  C   UNL     1      47.126   5.912  19.146  0.00  0.00    +0.000 C 
ATOM     11  N   UNL     1      48.502   5.468  18.870  0.00  0.00    +0.000 NA
ATOM     12  C   UNL     1      48.945   4.653  20.008  0.00  0.00    +0.000 C 
ENDBRANCH   7  11
ENDBRANCH   1   7
BRANCH   3  13
ATOM     13  N   UNL     1      48.385   7.588  13.376  0.00  0.00    +0.000 N 
ATOM     14  H   UNL     1      48.722   7.234  12.484  0.00  0.00    +0.000 HD
BRANCH  13  15
ATOM     15  C   UNL     1      46.934   7.678  13.498  0.00  0.00    +0.000 C 
BRANCH  15  16
ATOM     16  C   UNL     1      46.200   6.678  12.617  0.00  0.00    +0.000 A 
ATOM     17  N   UNL     1      45.235   5.912  13.174  0.00  0.00    +0.000 NA
ATOM     18  C   UNL     1      44.580   5.069  12.342  0.00  0.00    +0.000 A 
ATOM     19  C   UNL     1      44.826   4.985  10.988  0.00  0.00    +0.000 A 
ATOM     20  C   UNL     1      45.825   5.804  10.518  0.00  0.00    +0.000 A 
ATOM     21  N   UNL     1      46.517   6.663  11.301  0.00  0.00    +0.000 NA
BRANCH  19  22
ATOM     22  C   UNL     1      44.060   4.050  10.154  0.00  0.00    +0.000 C 
ATOM     23  N   UNL     1      44.019   4.268   8.805  0.00  0.00    +0.000 N 
ATOM     24  O   UNL     1      43.452   3.116  10.659  0.00  0.00    +0.000 OA
ATOM     25  H   UNL     1      44.402   5.072   8.328  0.00  0.00    +0.000 HD
ATOM     26  H   UNL     1      43.433   3.640   8.265  0.00  0.00    +0.000 HD
ENDBRANCH  19  22
ENDBRANCH  15  16
ENDBRANCH  13  15
ENDBRANCH   3  13
BRANCH   6  27
ATOM     27  C   UNL     1      51.585   6.228  17.743  0.00  0.00    +0.000 C 
ATOM     28  N   UNL     1      52.299   6.133  18.647  0.00  0.00    +0.000 NA
ENDBRANCH   6  27
TORSDOF 7
ENDMDL
MODEL 9
REMARK VINA RESULT:    -5.287      2.911      5.312
REMARK INTER + INTRA:          -8.136
REMARK INTER:                  -7.788
REMARK INTRA:                  -0.348
REMARK UNBOUND:                -0.685
REMARK  Name = 
REMARK  11 active torsions:
REMARK  status: ('A' for Active; 'I' for Inactive)
REMARK    1  A    between atoms: C_1  and  N_2
REMARK    2  A    between atoms: N_2  and  C_3
REMARK    3  A    between atoms: N_2  and  C_4
REMARK    4  A    between atoms: C_4  and  C_5
REMARK    5  A    between atoms: C_4  and  C_6
REMARK    6  A    between atoms: C_4  and  C_7
REMARK    7  A    between atoms: C_9  and  N_10
REMARK    8  A    between atoms: N_10  and  C_11
REMARK    9  A    between atoms: C_11  and  C_12
REMARK   10  A    between atoms: C_15  and  C_16
REMARK   11  A    between atoms: C_23  and  C_24
REMARK                            x       y       z     vdW  Elec       q    Type
REMARK                         _______ _______ _______ _____ _____    ______ ____
ROOT
ATOM      1  C   UNL     1      48.988   6.454  16.871  0.00  0.00    +0.000 A 
ATOM      2  C   UNL     1      48.706   6.266  15.496  0.00  0.00    +0.000 A 
ATOM      3  C   UNL     1      48.733   7.291  14.555  0.00  0.00    +0.000 A 
ATOM      4  N   UNL     1      49.046   8.538  14.921  0.00  0.00    +0.000 NA
ATOM      5  C   UNL     1      49.330   8.746  16.232  0.00  0.00    +0.000 A 
ATOM      6  C   UNL     1      49.319   7.771  17.235  0.00  0.00    +0.000 A 
ENDROOT
BRANCH   1   7
ATOM      7  C   UNL     1      48.923   5.201  17.807  0.00  0.00    +0.000 C 
ATOM      8  C   UNL     1      47.830   5.404  18.909  0.00  0.00    +0.000 C 
ATOM      9  C   UNL     1      50.233   5.037  18.628  0.00  0.00    +0.000 C 
BRANCH   7  11
ATOM     10  C   UNL     1      49.608   2.848  17.315  0.00  0.00    +0.000 C 
ATOM     11  N   UNL     1      48.689   3.953  17.002  0.00  0.00    +0.000 NA
ATOM     12  C   UNL     1      47.321   3.422  17.040  0.00  0.00    +0.000 C 
ENDBRANCH   7  11
ENDBRANCH   1   7
BRANCH   3  13
ATOM     13  N   UNL     1      48.358   7.090  13.243  0.00  0.00    +0.000 N 
ATOM     14  H   UNL     1      48.712   6.213  12.870  0.00  0.00    +0.000 HD
BRANCH  13  15
ATOM     15  C   UNL     1      47.022   7.462  12.788  0.00  0.00    +0.000 C 
BRANCH  15  16
ATOM     16  C   UNL     1      46.211   6.275  12.290  0.00  0.00    +0.000 A 
ATOM     17  N   UNL     1      45.863   6.231  10.985  0.00  0.00    +0.000 NA
ATOM     18  C   UNL     1      45.181   5.135  10.580  0.00  0.00    +0.000 A 
ATOM     19  C   UNL     1      44.864   4.080  11.410  0.00  0.00    +0.000 A 
ATOM     20  C   UNL     1      45.261   4.220  12.719  0.00  0.00    +0.000 A 
ATOM     21  N   UNL     1      45.941   5.293  13.183  0.00  0.00    +0.000 NA
BRANCH  19  22
ATOM     22  C   UNL     1      44.130   2.921  10.886  0.00  0.00    +0.000 C 
ATOM     23  N   UNL     1      44.680   2.217   9.852  0.00  0.00    +0.000 N 
ATOM     24  O   UNL     1      43.039   2.612  11.347  0.00  0.00    +0.000 OA
ATOM     25  H   UNL     1      45.518   2.472   9.348  0.00  0.00    +0.000 HD
ATOM     26  H   UNL     1      44.121   1.461   9.474  0.00  0.00    +0.000 HD
ENDBRANCH  19  22
ENDBRANCH  15  16
ENDBRANCH  13  15
ENDBRANCH   3  13
BRANCH   6  27
ATOM     27  C   UNL     1      49.619   8.242  18.557  0.00  0.00    +0.000 C 
ATOM     28  N   UNL     1      49.783   8.602  19.643  0.00  0.00    +0.000 NA
ENDBRANCH   6  27
TORSDOF 7
ENDMDL
