MODEL 1
REMARK VINA RESULT:    -8.553      0.000      0.000
REMARK INTER + INTRA:         -11.093
REMARK INTER:                 -10.552
REMARK INTRA:                  -0.540
REMARK UNBOUND:                -0.540
REMARK  Name = 
REMARK  4 active torsions:
REMARK  status: ('A' for Active; 'I' for Inactive)
REMARK    1  A    between atoms: C_2  and  C_4
REMARK    2  A    between atoms: N_8  and  C_9
REMARK    3  A    between atoms: C_9  and  C_10
REMARK    4  A    between atoms: C_14  and  N_15
REMARK                            x       y       z     vdW  Elec       q    Type
REMARK                         _______ _______ _______ _____ _____    ______ ____
ROOT
ATOM      1  C   UNL     1      46.391   2.458   7.754  0.00  0.00    +0.000 A 
ATOM      2  C   UNL     1      46.235   3.838   7.816  0.00  0.00    +0.000 A 
ATOM      3  C   UNL     1      45.335   4.380   8.735  0.00  0.00    +0.000 A 
ATOM      4  C   UNL     1      44.604   3.539   9.566  0.00  0.00    +0.000 A 
ATOM      5  N   UNL     1      43.748   3.984  10.533  0.00  0.00    +0.000 N 
ATOM      6  N   UNL     1      44.709   2.199   9.476  0.00  0.00    +0.000 NA
ATOM      7  C   UNL     1      45.591   1.684   8.578  0.00  0.00    +0.000 A 
ATOM      8  H   UNL     1      43.221   3.240  10.975  0.00  0.00    +0.000 HD
ENDROOT
BRANCH   1  10
ATOM      9  N   UNL     1      48.435   2.545   6.451  0.00  0.00    +0.000 N 
ATOM     10  C   UNL     1      47.359   1.800   6.855  0.00  0.00    +0.000 C 
ATOM     11  O   UNL     1      47.230   0.632   6.520  0.00  0.00    +0.000 OA
ATOM     12  H   UNL     1      49.146   2.049   5.928  0.00  0.00    +0.000 HD
ATOM     13  H   UNL     1      48.700   3.407   6.902  0.00  0.00    +0.000 HD
ENDBRANCH   1  10
BRANCH   5  14
ATOM     14  C   UNL     1      43.369   5.354  10.790  0.00  0.00    +0.000 C 
BRANCH  14  15
ATOM     15  C   UNL     1      44.397   6.147  11.551  0.00  0.00    +0.000 A 
ATOM     16  C   UNL     1      44.338   7.535  11.521  0.00  0.00    +0.000 A 
ATOM     17  N   UNL     1      45.185   8.340  12.192  0.00  0.00    +0.000 NA
ATOM     18  C   UNL     1      46.145   7.725  12.928  0.00  0.00    +0.000 A 
ATOM     19  C   UNL     1      46.332   6.345  13.044  0.00  0.00    +0.000 A 
ATOM     20  C   UNL     1      45.424   5.571  12.314  0.00  0.00    +0.000 A 
BRANCH  19  21
ATOM     21  N   UNL     1      47.317   5.776  13.820  0.00  0.00    +0.000 N 
ATOM     22  C   UNL     1      47.211   4.434  14.414  0.00  0.00    +0.000 C 
ATOM     23  C   UNL     1      47.408   4.512  15.934  0.00  0.00    +0.000 C 
ATOM     24  O   UNL     1      48.649   5.160  16.267  0.00  0.00    +0.000 OA
ATOM     25  C   UNL     1      48.667   6.498  15.741  0.00  0.00    +0.000 C 
ATOM     26  C   UNL     1      48.528   6.513  14.208  0.00  0.00    +0.000 C 
ENDBRANCH  19  21
ENDBRANCH  14  15
ENDBRANCH   5  14
TORSDOF 4
ENDMDL
MODEL 2
REMARK VINA RESULT:    -7.613      1.980      2.845
REMARK INTER + INTRA:          -9.933
REMARK INTER:                  -9.395
REMARK INTRA:                  -0.538
REMARK UNBOUND:                -0.540
REMARK  Name = 
REMARK  4 active torsions:
REMARK  status: ('A' for Active; 'I' for Inactive)
REMARK    1  A    between atoms: C_2  and  C_4
REMARK    2  A    between atoms: N_8  and  C_9
REMARK    3  A    between atoms: C_9  and  C_10
REMARK    4  A    between atoms: C_14  and  N_15
REMARK                            x       y       z     vdW  Elec       q    Type
REMARK                         _______ _______ _______ _____ _____    ______ ____
ROOT
ATOM      1  C   UNL     1      46.697   2.522   7.139  0.00  0.00    +0.000 A 
ATOM      2  C   UNL     1      46.358   3.786   7.612  0.00  0.00    +0.000 A 
ATOM      3  C   UNL     1      45.575   3.894   8.761  0.00  0.00    +0.000 A 
ATOM      4  C   UNL     1      45.138   2.746   9.412  0.00  0.00    +0.000 A 
ATOM      5  N   UNL     1      44.420   2.758  10.575  0.00  0.00    +0.000 N 
ATOM      6  N   UNL     1      45.418   1.518   8.932  0.00  0.00    +0.000 NA
ATOM      7  C   UNL     1      46.184   1.427   7.813  0.00  0.00    +0.000 A 
ATOM      8  H   UNL     1      44.097   1.840  10.855  0.00  0.00    +0.000 HD
ENDROOT
BRANCH   1  10
ATOM      9  N   UNL     1      47.397   3.164   4.907  0.00  0.00    +0.000 N 
ATOM     10  C   UNL     1      47.567   2.313   5.966  0.00  0.00    +0.000 C 
ATOM     11  O   UNL     1      48.430   1.447   5.956  0.00  0.00    +0.000 OA
ATOM     12  H   UNL     1      48.073   3.081   4.158  0.00  0.00    +0.000 HD
ATOM     13  H   UNL     1      46.883   4.029   4.981  0.00  0.00    +0.000 HD
ENDBRANCH   1  10
BRANCH   5  14
ATOM     14  C   UNL     1      43.901   3.919  11.259  0.00  0.00    +0.000 C 
BRANCH  14  15
ATOM     15  C   UNL     1      44.916   4.643  12.103  0.00  0.00    +0.000 A 
ATOM     16  C   UNL     1      45.245   4.131  13.352  0.00  0.00    +0.000 A 
ATOM     17  N   UNL     1      46.162   4.678  14.173  0.00  0.00    +0.000 NA
ATOM     18  C   UNL     1      46.779   5.801  13.724  0.00  0.00    +0.000 A 
ATOM     19  C   UNL     1      46.544   6.433  12.501  0.00  0.00    +0.000 A 
ATOM     20  C   UNL     1      45.573   5.817  11.704  0.00  0.00    +0.000 A 
BRANCH  19  21
ATOM     21  N   UNL     1      47.213   7.565  12.091  0.00  0.00    +0.000 N 
ATOM     22  C   UNL     1      48.593   7.553  11.578  0.00  0.00    +0.000 C 
ATOM     23  C   UNL     1      49.471   8.505  12.400  0.00  0.00    +0.000 C 
ATOM     24  O   UNL     1      48.913   9.831  12.435  0.00  0.00    +0.000 OA
ATOM     25  C   UNL     1      47.602   9.803  13.027  0.00  0.00    +0.000 C 
ATOM     26  C   UNL     1      46.634   8.908  12.232  0.00  0.00    +0.000 C 
ENDBRANCH  19  21
ENDBRANCH  14  15
ENDBRANCH   5  14
TORSDOF 4
ENDMDL
MODEL 3
REMARK VINA RESULT:    -7.315      2.440      8.149
REMARK INTER + INTRA:          -9.566
REMARK INTER:                  -9.162
REMARK INTRA:                  -0.404
REMARK UNBOUND:                -0.540
REMARK  Name = 
REMARK  4 active torsions:
REMARK  status: ('A' for Active; 'I' for Inactive)
REMARK    1  A    between atoms: C_2  and  C_4
REMARK    2  A    between atoms: N_8  and  C_9
REMARK    3  A    between atoms: C_9  and  C_10
REMARK    4  A    between atoms: C_14  and  N_15
REMARK                            x       y       z     vdW  Elec       q    Type
REMARK                         _______ _______ _______ _____ _____    ______ ____
ROOT
ATOM      1  C   UNL     1      48.736   4.383  18.127  0.00  0.00    +0.000 A 
ATOM      2  C   UNL     1      48.825   5.440  17.228  0.00  0.00    +0.000 A 
ATOM      3  C   UNL     1      48.065   5.404  16.059  0.00  0.00    +0.000 A 
ATOM      4  C   UNL     1      47.237   4.317  15.804  0.00  0.00    +0.000 A 
ATOM      5  N   UNL     1      46.413   4.226  14.717  0.00  0.00    +0.000 N 
ATOM      6  N   UNL     1      47.184   3.265  16.644  0.00  0.00    +0.000 NA
ATOM      7  C   UNL     1      47.929   3.312  17.780  0.00  0.00    +0.000 A 
ATOM      8  H   UNL     1      45.960   3.325  14.633  0.00  0.00    +0.000 HD
ENDROOT
BRANCH   1  10
ATOM      9  N   UNL     1      48.749   3.971  20.517  0.00  0.00    +0.000 N 
ATOM     10  C   UNL     1      49.459   4.362  19.413  0.00  0.00    +0.000 C 
ATOM     11  O   UNL     1      50.647   4.638  19.484  0.00  0.00    +0.000 OA
ATOM     12  H   UNL     1      49.283   3.853  21.369  0.00  0.00    +0.000 HD
ATOM     13  H   UNL     1      47.858   3.502  20.454  0.00  0.00    +0.000 HD
ENDBRANCH   1  10
BRANCH   5  14
ATOM     14  C   UNL     1      46.334   5.154  13.613  0.00  0.00    +0.000 C 
BRANCH  14  15
ATOM     15  C   UNL     1      45.251   4.838  12.617  0.00  0.00    +0.000 A 
ATOM     16  C   UNL     1      43.944   5.218  12.896  0.00  0.00    +0.000 A 
ATOM     17  N   UNL     1      42.906   5.016  12.062  0.00  0.00    +0.000 NA
ATOM     18  C   UNL     1      43.188   4.395  10.889  0.00  0.00    +0.000 A 
ATOM     19  C   UNL     1      44.446   3.947  10.479  0.00  0.00    +0.000 A 
ATOM     20  C   UNL     1      45.475   4.182  11.397  0.00  0.00    +0.000 A 
BRANCH  19  21
ATOM     21  N   UNL     1      44.675   3.335   9.267  0.00  0.00    +0.000 N 
ATOM     22  C   UNL     1      44.696   1.875   9.085  0.00  0.00    +0.000 C 
ATOM     23  C   UNL     1      46.028   1.439   8.459  0.00  0.00    +0.000 C 
ATOM     24  O   UNL     1      46.285   2.146   7.233  0.00  0.00    +0.000 OA
ATOM     25  C   UNL     1      46.345   3.562   7.478  0.00  0.00    +0.000 C 
ATOM     26  C   UNL     1      45.024   4.099   8.060  0.00  0.00    +0.000 C 
ENDBRANCH  19  21
ENDBRANCH  14  15
ENDBRANCH   5  14
TORSDOF 4
ENDMDL
MODEL 4
REMARK VINA RESULT:    -7.263      2.482      6.857
REMARK INTER + INTRA:          -9.502
REMARK INTER:                  -8.803
REMARK INTRA:                  -0.699
REMARK UNBOUND:                -0.540
REMARK  Name = 
REMARK  4 active torsions:
REMARK  status: ('A' for Active; 'I' for Inactive)
REMARK    1  A    between atoms: C_2  and  C_4
REMARK    2  A    between atoms: N_8  and  C_9
REMARK    3  A    between atoms: C_9  and  C_10
REMARK    4  A    between atoms: C_14  and  N_15
REMARK                            x       y       z     vdW  Elec       q    Type
REMARK                         _______ _______ _______ _____ _____    ______ ____
ROOT
ATOM      1  C   UNL     1      49.807   7.738  12.464  0.00  0.00    +0.000 A 
ATOM      2  C   UNL     1      48.826   7.782  11.479  0.00  0.00    +0.000 A 
ATOM      3  C   UNL     1      47.530   7.372  11.792  0.00  0.00    +0.000 A 
ATOM      4  C   UNL     1      47.237   6.918  13.073  0.00  0.00    +0.000 A 
ATOM      5  N   UNL     1      45.986   6.555  13.484  0.00  0.00    +0.000 N 
ATOM      6  N   UNL     1      48.193   6.822  14.018  0.00  0.00    +0.000 NA
ATOM      7  C   UNL     1      49.452   7.227  13.701  0.00  0.00    +0.000 A 
ATOM      8  H   UNL     1      45.970   6.152  14.412  0.00  0.00    +0.000 HD
ENDROOT
BRANCH   1  10
ATOM      9  N   UNL     1      52.047   8.134  13.304  0.00  0.00    +0.000 N 
ATOM     10  C   UNL     1      51.189   8.204  12.240  0.00  0.00    +0.000 C 
ATOM     11  O   UNL     1      51.563   8.596  11.144  0.00  0.00    +0.000 OA
ATOM     12  H   UNL     1      53.017   8.350  13.107  0.00  0.00    +0.000 HD
ATOM     13  H   UNL     1      51.847   7.591  14.131  0.00  0.00    +0.000 HD
ENDBRANCH   1  10
BRANCH   5  14
ATOM     14  C   UNL     1      44.799   6.468  12.665  0.00  0.00    +0.000 C 
BRANCH  14  15
ATOM     15  C   UNL     1      44.506   5.086  12.146  0.00  0.00    +0.000 A 
ATOM     16  C   UNL     1      43.853   4.178  12.971  0.00  0.00    +0.000 A 
ATOM     17  N   UNL     1      43.512   2.930  12.597  0.00  0.00    +0.000 NA
ATOM     18  C   UNL     1      43.848   2.567  11.333  0.00  0.00    +0.000 A 
ATOM     19  C   UNL     1      44.514   3.365  10.399  0.00  0.00    +0.000 A 
ATOM     20  C   UNL     1      44.845   4.644  10.858  0.00  0.00    +0.000 A 
BRANCH  19  21
ATOM     21  N   UNL     1      44.816   2.946   9.123  0.00  0.00    +0.000 N 
ATOM     22  C   UNL     1      45.061   1.540   8.765  0.00  0.00    +0.000 C 
ATOM     23  C   UNL     1      46.434   1.397   8.095  0.00  0.00    +0.000 C 
ATOM     24  O   UNL     1      46.558   2.278   6.964  0.00  0.00    +0.000 OA
ATOM     25  C   UNL     1      46.401   3.645   7.380  0.00  0.00    +0.000 C 
ATOM     26  C   UNL     1      45.022   3.895   8.018  0.00  0.00    +0.000 C 
ENDBRANCH  19  21
ENDBRANCH  14  15
ENDBRANCH   5  14
TORSDOF 4
ENDMDL
MODEL 5
REMARK VINA RESULT:    -6.719      4.263      8.385
REMARK INTER + INTRA:          -8.830
REMARK INTER:                  -8.266
REMARK INTRA:                  -0.564
REMARK UNBOUND:                -0.540
REMARK  Name = 
REMARK  4 active torsions:
REMARK  status: ('A' for Active; 'I' for Inactive)
REMARK    1  A    between atoms: C_2  and  C_4
REMARK    2  A    between atoms: N_8  and  C_9
REMARK    3  A    between atoms: C_9  and  C_10
REMARK    4  A    between atoms: C_14  and  N_15
REMARK                            x       y       z     vdW  Elec       q    Type
REMARK                         _______ _______ _______ _____ _____    ______ ____
ROOT
ATOM      1  C   UNL     1      52.295   2.433  17.936  0.00  0.00    +0.000 A 
ATOM      2  C   UNL     1      51.684   3.675  18.074  0.00  0.00    +0.000 A 
ATOM      3  C   UNL     1      50.353   3.825  17.682  0.00  0.00    +0.000 A 
ATOM      4  C   UNL     1      49.660   2.741  17.156  0.00  0.00    +0.000 A 
ATOM      5  N   UNL     1      48.340   2.781  16.804  0.00  0.00    +0.000 N 
ATOM      6  N   UNL     1      50.259   1.548  16.970  0.00  0.00    +0.000 NA
ATOM      7  C   UNL     1      51.556   1.415  17.357  0.00  0.00    +0.000 A 
ATOM      8  H   UNL     1      48.023   1.937  16.342  0.00  0.00    +0.000 HD
ENDROOT
BRANCH   1  10
ATOM      9  N   UNL     1      54.666   2.321  17.439  0.00  0.00    +0.000 N 
ATOM     10  C   UNL     1      53.678   2.167  18.375  0.00  0.00    +0.000 C 
ATOM     11  O   UNL     1      53.936   1.866  19.531  0.00  0.00    +0.000 OA
ATOM     12  H   UNL     1      55.616   2.246  17.781  0.00  0.00    +0.000 HD
ATOM     13  H   UNL     1      54.519   2.805  16.566  0.00  0.00    +0.000 HD
ENDBRANCH   1  10
BRANCH   5  14
ATOM     14  C   UNL     1      47.480   3.941  16.805  0.00  0.00    +0.000 C 
BRANCH  14  15
ATOM     15  C   UNL     1      47.366   4.627  15.471  0.00  0.00    +0.000 A 
ATOM     16  C   UNL     1      48.198   5.704  15.191  0.00  0.00    +0.000 A 
ATOM     17  N   UNL     1      48.204   6.368  14.019  0.00  0.00    +0.000 NA
ATOM     18  C   UNL     1      47.328   5.935  13.077  0.00  0.00    +0.000 A 
ATOM     19  C   UNL     1      46.426   4.876  13.219  0.00  0.00    +0.000 A 
ATOM     20  C   UNL     1      46.468   4.240  14.464  0.00  0.00    +0.000 A 
BRANCH  19  21
ATOM     21  N   UNL     1      45.569   4.472  12.221  0.00  0.00    +0.000 N 
ATOM     22  C   UNL     1      44.932   5.398  11.271  0.00  0.00    +0.000 C 
ATOM     23  C   UNL     1      43.407   5.235  11.315  0.00  0.00    +0.000 C 
ATOM     24  O   UNL     1      43.021   3.868  11.087  0.00  0.00    +0.000 OA
ATOM     25  C   UNL     1      43.595   3.015  12.093  0.00  0.00    +0.000 C 
ATOM     26  C   UNL     1      45.133   3.074  12.085  0.00  0.00    +0.000 C 
ENDBRANCH  19  21
ENDBRANCH  14  15
ENDBRANCH   5  14
TORSDOF 4
ENDMDL
MODEL 6
REMARK VINA RESULT:    -6.582      1.746      2.099
REMARK INTER + INTRA:          -8.661
REMARK INTER:                  -8.175
REMARK INTRA:                  -0.487
REMARK UNBOUND:                -0.540
REMARK  Name = 
REMARK  4 active torsions:
REMARK  status: ('A' for Active; 'I' for Inactive)
REMARK    1  A    between atoms: C_2  and  C_4
REMARK    2  A    between atoms: N_8  and  C_9
REMARK    3  A    between atoms: C_9  and  C_10
REMARK    4  A    between atoms: C_14  and  N_15
REMARK                            x       y       z     vdW  Elec       q    Type
REMARK                         _______ _______ _______ _____ _____    ______ ____
ROOT
ATOM      1  C   UNL     1      45.800   2.780   8.020  0.00  0.00    +0.000 A 
ATOM      2  C   UNL     1      45.290   4.073   7.992  0.00  0.00    +0.000 A 
ATOM      3  C   UNL     1      44.466   4.502   9.034  0.00  0.00    +0.000 A 
ATOM      4  C   UNL     1      44.162   3.635  10.077  0.00  0.00    +0.000 A 
ATOM      5  N   UNL     1      43.416   3.989  11.166  0.00  0.00    +0.000 N 
ATOM      6  N   UNL     1      44.610   2.365  10.086  0.00  0.00    +0.000 NA
ATOM      7  C   UNL     1      45.412   1.960   9.066  0.00  0.00    +0.000 A 
ATOM      8  H   UNL     1      43.205   3.209  11.777  0.00  0.00    +0.000 HD
ENDROOT
BRANCH   1  10
ATOM      9  N   UNL     1      47.292   1.038   7.231  0.00  0.00    +0.000 N 
ATOM     10  C   UNL     1      46.723   2.261   6.992  0.00  0.00    +0.000 C 
ATOM     11  O   UNL     1      46.936   2.872   5.956  0.00  0.00    +0.000 OA
ATOM     12  H   UNL     1      47.832   0.645   6.471  0.00  0.00    +0.000 HD
ATOM     13  H   UNL     1      46.949   0.406   7.938  0.00  0.00    +0.000 HD
ENDBRANCH   1  10
BRANCH   5  14
ATOM     14  C   UNL     1      42.734   5.245  11.376  0.00  0.00    +0.000 C 
BRANCH  14  15
ATOM     15  C   UNL     1      43.652   6.424  11.550  0.00  0.00    +0.000 A 
ATOM     16  C   UNL     1      43.296   7.646  10.992  0.00  0.00    +0.000 A 
ATOM     17  N   UNL     1      44.025   8.772  11.115  0.00  0.00    +0.000 NA
ATOM     18  C   UNL     1      45.174   8.671  11.830  0.00  0.00    +0.000 A 
ATOM     19  C   UNL     1      45.663   7.511  12.436  0.00  0.00    +0.000 A 
ATOM     20  C   UNL     1      44.861   6.379  12.260  0.00  0.00    +0.000 A 
BRANCH  19  21
ATOM     21  N   UNL     1      46.832   7.472  13.164  0.00  0.00    +0.000 N 
ATOM     22  C   UNL     1      47.284   8.567  14.037  0.00  0.00    +0.000 C 
ATOM     23  C   UNL     1      48.691   9.023  13.628  0.00  0.00    +0.000 C 
ATOM     24  O   UNL     1      49.614   7.918  13.614  0.00  0.00    +0.000 OA
ATOM     25  C   UNL     1      49.176   6.916  12.681  0.00  0.00    +0.000 C 
ATOM     26  C   UNL     1      47.788   6.361  13.047  0.00  0.00    +0.000 C 
ENDBRANCH  19  21
ENDBRANCH  14  15
ENDBRANCH   5  14
TORSDOF 4
ENDMDL
MODEL 7
REMARK VINA RESULT:    -6.402      2.781      4.857
REMARK INTER + INTRA:          -8.439
REMARK INTER:                  -7.763
REMARK INTRA:                  -0.675
REMARK UNBOUND:                -0.540
REMARK  Name = 
REMARK  4 active torsions:
REMARK  status: ('A' for Active; 'I' for Inactive)
REMARK    1  A    between atoms: C_2  and  C_4
REMARK    2  A    between atoms: N_8  and  C_9
REMARK    3  A    between atoms: C_9  and  C_10
REMARK    4  A    between atoms: C_14  and  N_15
REMARK                            x       y       z     vdW  Elec       q    Type
REMARK                         _______ _______ _______ _____ _____    ______ ____
ROOT
ATOM      1  C   UNL     1      44.658   5.227  10.870  0.00  0.00    +0.000 A 
ATOM      2  C   UNL     1      45.931   5.708  10.583  0.00  0.00    +0.000 A 
ATOM      3  C   UNL     1      46.508   6.653  11.432  0.00  0.00    +0.000 A 
ATOM      4  C   UNL     1      45.805   7.106  12.543  0.00  0.00    +0.000 A 
ATOM      5  N   UNL     1      46.315   7.983  13.459  0.00  0.00    +0.000 N 
ATOM      6  N   UNL     1      44.551   6.686  12.799  0.00  0.00    +0.000 NA
ATOM      7  C   UNL     1      44.001   5.763  11.965  0.00  0.00    +0.000 A 
ATOM      8  H   UNL     1      45.635   8.285  14.145  0.00  0.00    +0.000 HD
ENDROOT
BRANCH   1  10
ATOM      9  N   UNL     1      44.084   4.308   8.700  0.00  0.00    +0.000 N 
ATOM     10  C   UNL     1      43.994   4.187  10.061  0.00  0.00    +0.000 C 
ATOM     11  O   UNL     1      43.425   3.238  10.581  0.00  0.00    +0.000 OA
ATOM     12  H   UNL     1      43.722   3.531   8.161  0.00  0.00    +0.000 HD
ATOM     13  H   UNL     1      44.746   4.922   8.250  0.00  0.00    +0.000 HD
ENDBRANCH   1  10
BRANCH   5  14
ATOM     14  C   UNL     1      47.586   8.665  13.389  0.00  0.00    +0.000 C 
BRANCH  14  15
ATOM     15  C   UNL     1      48.669   8.041  14.228  0.00  0.00    +0.000 A 
ATOM     16  C   UNL     1      49.967   8.525  14.126  0.00  0.00    +0.000 A 
ATOM     17  N   UNL     1      51.003   8.065  14.853  0.00  0.00    +0.000 NA
ATOM     18  C   UNL     1      50.728   7.062  15.726  0.00  0.00    +0.000 A 
ATOM     19  C   UNL     1      49.479   6.470  15.928  0.00  0.00    +0.000 A 
ATOM     20  C   UNL     1      48.452   6.991  15.133  0.00  0.00    +0.000 A 
BRANCH  19  21
ATOM     21  N   UNL     1      49.256   5.463  16.841  0.00  0.00    +0.000 N 
ATOM     22  C   UNL     1      50.301   4.920  17.723  0.00  0.00    +0.000 C 
ATOM     23  C   UNL     1      50.416   3.402  17.533  0.00  0.00    +0.000 C 
ATOM     24  O   UNL     1      49.146   2.753  17.727  0.00  0.00    +0.000 OA
ATOM     25  C   UNL     1      48.183   3.253  16.783  0.00  0.00    +0.000 C 
ATOM     26  C   UNL     1      47.964   4.769  16.938  0.00  0.00    +0.000 C 
ENDBRANCH  19  21
ENDBRANCH  14  15
ENDBRANCH   5  14
TORSDOF 4
ENDMDL
MODEL 8
REMARK VINA RESULT:    -6.200      1.485      7.233
REMARK INTER + INTRA:          -8.190
REMARK INTER:                  -8.130
REMARK INTRA:                  -0.060
REMARK UNBOUND:                -0.540
REMARK  Name = 
REMARK  4 active torsions:
REMARK  status: ('A' for Active; 'I' for Inactive)
REMARK    1  A    between atoms: C_2  and  C_4
REMARK    2  A    between atoms: N_8  and  C_9
REMARK    3  A    between atoms: C_9  and  C_10
REMARK    4  A    between atoms: C_14  and  N_15
REMARK                            x       y       z     vdW  Elec       q    Type
REMARK                         _______ _______ _______ _____ _____    ______ ____
ROOT
ATOM      1  C   UNL     1      47.621   4.786  15.334  0.00  0.00    +0.000 A 
ATOM      2  C   UNL     1      46.378   4.428  14.825  0.00  0.00    +0.000 A 
ATOM      3  C   UNL     1      45.922   5.036  13.654  0.00  0.00    +0.000 A 
ATOM      4  C   UNL     1      46.707   5.992  13.020  0.00  0.00    +0.000 A 
ATOM      5  N   UNL     1      46.368   6.593  11.840  0.00  0.00    +0.000 N 
ATOM      6  N   UNL     1      47.889   6.383  13.535  0.00  0.00    +0.000 NA
ATOM      7  C   UNL     1      48.323   5.781  14.674  0.00  0.00    +0.000 A 
ATOM      8  H   UNL     1      47.001   7.337  11.574  0.00  0.00    +0.000 HD
ENDROOT
BRANCH   1  10
ATOM      9  N   UNL     1      48.010   4.793  17.728  0.00  0.00    +0.000 N 
ATOM     10  C   UNL     1      48.208   4.155  16.532  0.00  0.00    +0.000 C 
ATOM     11  O   UNL     1      48.806   3.091  16.468  0.00  0.00    +0.000 OA
ATOM     12  H   UNL     1      48.319   4.293  18.553  0.00  0.00    +0.000 HD
ATOM     13  H   UNL     1      47.321   5.519  17.851  0.00  0.00    +0.000 HD
ENDBRANCH   1  10
BRANCH   5  14
ATOM     14  C   UNL     1      45.127   6.440  11.117  0.00  0.00    +0.000 C 
BRANCH  14  15
ATOM     15  C   UNL     1      44.857   5.037  10.643  0.00  0.00    +0.000 A 
ATOM     16  C   UNL     1      43.918   4.265  11.315  0.00  0.00    +0.000 A 
ATOM     17  N   UNL     1      43.575   3.013  10.956  0.00  0.00    +0.000 NA
ATOM     18  C   UNL     1      44.209   2.503   9.870  0.00  0.00    +0.000 A 
ATOM     19  C   UNL     1      45.180   3.155   9.105  0.00  0.00    +0.000 A 
ATOM     20  C   UNL     1      45.493   4.447   9.541  0.00  0.00    +0.000 A 
BRANCH  19  21
ATOM     21  N   UNL     1      45.781   2.591   8.001  0.00  0.00    +0.000 N 
ATOM     22  C   UNL     1      45.883   1.139   7.785  0.00  0.00    +0.000 C 
ATOM     23  C   UNL     1      47.351   0.737   7.583  0.00  0.00    +0.000 C 
ATOM     24  O   UNL     1      47.958   1.493   6.520  0.00  0.00    +0.000 OA
ATOM     25  C   UNL     1      47.913   2.898   6.820  0.00  0.00    +0.000 C 
ATOM     26  C   UNL     1      46.468   3.403   6.986  0.00  0.00    +0.000 C 
ENDBRANCH  19  21
ENDBRANCH  14  15
ENDBRANCH   5  14
TORSDOF 4
ENDMDL
MODEL 9
REMARK VINA RESULT:    -6.194      3.611      5.684
REMARK INTER + INTRA:          -8.182
REMARK INTER:                  -7.558
REMARK INTRA:                  -0.623
REMARK UNBOUND:                -0.540
REMARK  Name = 
REMARK  4 active torsions:
REMARK  status: ('A' for Active; 'I' for Inactive)
REMARK    1  A    between atoms: C_2  and  C_4
REMARK    2  A    between atoms: N_8  and  C_9
REMARK    3  A    between atoms: C_9  and  C_10
REMARK    4  A    between atoms: C_14  and  N_15
REMARK                            x       y       z     vdW  Elec       q    Type
REMARK                         _______ _______ _______ _____ _____    ______ ____
ROOT
ATOM      1  C   UNL     1      44.706   4.693  12.389  0.00  0.00    +0.000 A 
ATOM      2  C   UNL     1      46.018   4.405  12.749  0.00  0.00    +0.000 A 
ATOM      3  C   UNL     1      46.845   5.439  13.188  0.00  0.00    +0.000 A 
ATOM      4  C   UNL     1      46.354   6.738  13.254  0.00  0.00    +0.000 A 
ATOM      5  N   UNL     1      47.073   7.799  13.728  0.00  0.00    +0.000 N 
ATOM      6  N   UNL     1      45.101   7.035  12.857  0.00  0.00    +0.000 NA
ATOM      7  C   UNL     1      44.305   6.018  12.433  0.00  0.00    +0.000 A 
ATOM      8  H   UNL     1      46.602   8.688  13.608  0.00  0.00    +0.000 HD
ENDROOT
BRANCH   1  10
ATOM      9  N   UNL     1      43.820   2.446  12.604  0.00  0.00    +0.000 N 
ATOM     10  C   UNL     1      43.745   3.657  11.968  0.00  0.00    +0.000 C 
ATOM     11  O   UNL     1      42.892   3.880  11.121  0.00  0.00    +0.000 OA
ATOM     12  H   UNL     1      43.085   1.784  12.386  0.00  0.00    +0.000 HD
ATOM     13  H   UNL     1      44.329   2.313  13.464  0.00  0.00    +0.000 HD
ENDBRANCH   1  10
BRANCH   5  14
ATOM     14  C   UNL     1      48.461   7.794  14.129  0.00  0.00    +0.000 C 
BRANCH  14  15
ATOM     15  C   UNL     1      48.692   7.352  15.548  0.00  0.00    +0.000 A 
ATOM     16  C   UNL     1      48.623   8.292  16.569  0.00  0.00    +0.000 A 
ATOM     17  N   UNL     1      48.780   8.001  17.875  0.00  0.00    +0.000 NA
ATOM     18  C   UNL     1      49.024   6.700  18.176  0.00  0.00    +0.000 A 
ATOM     19  C   UNL     1      49.131   5.651  17.259  0.00  0.00    +0.000 A 
ATOM     20  C   UNL     1      48.967   6.028  15.922  0.00  0.00    +0.000 A 
BRANCH  19  21
ATOM     21  N   UNL     1      49.366   4.345  17.626  0.00  0.00    +0.000 N 
ATOM     22  C   UNL     1      50.627   3.884  18.229  0.00  0.00    +0.000 C 
ATOM     23  C   UNL     1      51.223   2.740  17.397  0.00  0.00    +0.000 C 
ATOM     24  O   UNL     1      50.275   1.670  17.226  0.00  0.00    +0.000 OA
ATOM     25  C   UNL     1      49.099   2.150  16.554  0.00  0.00    +0.000 C 
ATOM     26  C   UNL     1      48.402   3.270  17.348  0.00  0.00    +0.000 C 
ENDBRANCH  19  21
ENDBRANCH  14  15
ENDBRANCH   5  14
TORSDOF 4
ENDMDL
