MODEL 1
REMARK VINA RESULT:    -8.073      0.000      0.000
REMARK INTER + INTRA:         -10.070
REMARK INTER:                  -9.489
REMARK INTRA:                  -0.581
REMARK UNBOUND:                -0.581
REMARK  Name = 
REMARK  3 active torsions:
REMARK  status: ('A' for Active; 'I' for Inactive)
REMARK    1  A    between atoms: C_2  and  C_4
REMARK    2  A    between atoms: C_7  and  C_8
REMARK    3  A    between atoms: C_8  and  N_9
REMARK                            x       y       z     vdW  Elec       q    Type
REMARK                         _______ _______ _______ _____ _____    ______ ____
ROOT
ATOM      1  C   UNL     1      46.653   2.633   7.284  0.00  0.00    +0.000 A 
ATOM      2  C   UNL     1      46.085   1.663   8.111  0.00  0.00    +0.000 A 
ATOM      3  C   UNL     1      45.248   2.040   9.166  0.00  0.00    +0.000 A 
ATOM      4  C   UNL     1      44.983   3.396   9.418  0.00  0.00    +0.000 A 
ATOM      5  C   UNL     1      45.567   4.363   8.587  0.00  0.00    +0.000 A 
ATOM      6  C   UNL     1      46.396   3.987   7.526  0.00  0.00    +0.000 A 
ENDROOT
BRANCH   1   8
ATOM      7  N   UNL     1      47.446   3.012   5.017  0.00  0.00    +0.000 N 
ATOM      8  C   UNL     1      47.543   2.258   6.152  0.00  0.00    +0.000 C 
ATOM      9  O   UNL     1      48.343   1.340   6.236  0.00  0.00    +0.000 OA
ATOM     10  H   UNL     1      48.107   2.815   4.278  0.00  0.00    +0.000 HD
ATOM     11  H   UNL     1      46.984   3.912   5.001  0.00  0.00    +0.000 HD
ENDBRANCH   1   8
BRANCH   4  12
ATOM     12  C   UNL     1      44.088   3.811  10.559  0.00  0.00    +0.000 C 
BRANCH  12  13
ATOM     13  N   UNL     1      44.832   4.301  11.714  0.00  0.00    +0.000 N 
ATOM     14  C   UNL     1      45.515   3.493  12.595  0.00  0.00    +0.000 A 
ATOM     15  C   UNL     1      46.263   4.300  13.425  0.00  0.00    +0.000 A 
ATOM     16  C   UNL     1      46.044   5.638  13.026  0.00  0.00    +0.000 A 
ATOM     17  N   UNL     1      46.604   6.770  13.516  0.00  0.00    +0.000 NA
ATOM     18  C   UNL     1      46.218   7.905  12.898  0.00  0.00    +0.000 A 
ATOM     19  C   UNL     1      45.306   7.987  11.857  0.00  0.00    +0.000 A 
ATOM     20  C   UNL     1      44.723   6.821  11.371  0.00  0.00    +0.000 A 
ATOM     21  C   UNL     1      45.128   5.625  11.973  0.00  0.00    +0.000 A 
ENDBRANCH  12  13
ENDBRANCH   4  12
TORSDOF 3
ENDMDL
MODEL 2
REMARK VINA RESULT:    -7.759      0.853      2.381
REMARK INTER + INTRA:          -9.700
REMARK INTER:                  -9.149
REMARK INTRA:                  -0.552
REMARK UNBOUND:                -0.581
REMARK  Name = 
REMARK  3 active torsions:
REMARK  status: ('A' for Active; 'I' for Inactive)
REMARK    1  A    between atoms: C_2  and  C_4
REMARK    2  A    between atoms: C_7  and  C_8
REMARK    3  A    between atoms: C_8  and  N_9
REMARK                            x       y       z     vdW  Elec       q    Type
REMARK                         _______ _______ _______ _____ _____    ______ ____
ROOT
ATOM      1  C   UNL     1      46.430   2.511   7.567  0.00  0.00    +0.000 A 
ATOM      2  C   UNL     1      46.409   3.907   7.593  0.00  0.00    +0.000 A 
ATOM      3  C   UNL     1      45.620   4.581   8.529  0.00  0.00    +0.000 A 
ATOM      4  C   UNL     1      44.828   3.867   9.442  0.00  0.00    +0.000 A 
ATOM      5  C   UNL     1      44.849   2.464   9.401  0.00  0.00    +0.000 A 
ATOM      6  C   UNL     1      45.644   1.789   8.471  0.00  0.00    +0.000 A 
ENDROOT
BRANCH   1   8
ATOM      7  N   UNL     1      48.071   2.519   5.772  0.00  0.00    +0.000 N 
ATOM      8  C   UNL     1      47.265   1.770   6.583  0.00  0.00    +0.000 C 
ATOM      9  O   UNL     1      47.257   0.551   6.516  0.00  0.00    +0.000 OA
ATOM     10  H   UNL     1      48.701   2.016   5.162  0.00  0.00    +0.000 HD
ATOM     11  H   UNL     1      48.283   3.489   5.964  0.00  0.00    +0.000 HD
ENDBRANCH   1   8
BRANCH   4  12
ATOM     12  C   UNL     1      43.968   4.587  10.451  0.00  0.00    +0.000 C 
BRANCH  12  13
ATOM     13  N   UNL     1      44.744   5.412  11.371  0.00  0.00    +0.000 N 
ATOM     14  C   UNL     1      44.583   6.772  11.515  0.00  0.00    +0.000 A 
ATOM     15  C   UNL     1      45.322   7.178  12.605  0.00  0.00    +0.000 A 
ATOM     16  C   UNL     1      45.937   6.029  13.152  0.00  0.00    +0.000 A 
ATOM     17  N   UNL     1      46.715   5.930  14.257  0.00  0.00    +0.000 NA
ATOM     18  C   UNL     1      47.128   4.680  14.548  0.00  0.00    +0.000 A 
ATOM     19  C   UNL     1      46.841   3.543  13.808  0.00  0.00    +0.000 A 
ATOM     20  C   UNL     1      46.055   3.655  12.665  0.00  0.00    +0.000 A 
ATOM     21  C   UNL     1      45.587   4.937  12.356  0.00  0.00    +0.000 A 
ENDBRANCH  12  13
ENDBRANCH   4  12
TORSDOF 3
ENDMDL
MODEL 3
REMARK VINA RESULT:    -6.303      2.707      6.587
REMARK INTER + INTRA:          -7.989
REMARK INTER:                  -7.405
REMARK INTRA:                  -0.583
REMARK UNBOUND:                -0.581
REMARK  Name = 
REMARK  3 active torsions:
REMARK  status: ('A' for Active; 'I' for Inactive)
REMARK    1  A    between atoms: C_2  and  C_4
REMARK    2  A    between atoms: C_7  and  C_8
REMARK    3  A    between atoms: C_8  and  N_9
REMARK                            x       y       z     vdW  Elec       q    Type
REMARK                         _______ _______ _______ _____ _____    ______ ____
ROOT
ATOM      1  C   UNL     1      46.265   4.588  13.291  0.00  0.00    +0.000 A 
ATOM      2  C   UNL     1      45.732   3.363  12.883  0.00  0.00    +0.000 A 
ATOM      3  C   UNL     1      45.179   3.228  11.607  0.00  0.00    +0.000 A 
ATOM      4  C   UNL     1      45.137   4.321  10.726  0.00  0.00    +0.000 A 
ATOM      5  C   UNL     1      45.667   5.549  11.150  0.00  0.00    +0.000 A 
ATOM      6  C   UNL     1      46.228   5.684  12.423  0.00  0.00    +0.000 A 
ENDROOT
BRANCH   1   8
ATOM      7  N   UNL     1      47.496   5.943  14.893  0.00  0.00    +0.000 N 
ATOM      8  C   UNL     1      46.864   4.757  14.643  0.00  0.00    +0.000 C 
ATOM      9  O   UNL     1      46.774   3.894  15.502  0.00  0.00    +0.000 OA
ATOM     10  H   UNL     1      47.828   6.095  15.835  0.00  0.00    +0.000 HD
ATOM     11  H   UNL     1      47.375   6.756  14.304  0.00  0.00    +0.000 HD
ENDBRANCH   1   8
BRANCH   4  12
ATOM     12  C   UNL     1      44.535   4.185   9.350  0.00  0.00    +0.000 C 
BRANCH  12  13
ATOM     13  N   UNL     1      45.515   3.805   8.338  0.00  0.00    +0.000 N 
ATOM     14  C   UNL     1      46.320   4.698   7.666  0.00  0.00    +0.000 A 
ATOM     15  C   UNL     1      47.254   3.979   6.953  0.00  0.00    +0.000 A 
ATOM     16  C   UNL     1      47.023   2.609   7.211  0.00  0.00    +0.000 A 
ATOM     17  N   UNL     1      47.722   1.534   6.769  0.00  0.00    +0.000 NA
ATOM     18  C   UNL     1      47.275   0.345   7.222  0.00  0.00    +0.000 A 
ATOM     19  C   UNL     1      46.180   0.157   8.052  0.00  0.00    +0.000 A 
ATOM     20  C   UNL     1      45.458   1.264   8.487  0.00  0.00    +0.000 A 
ATOM     21  C   UNL     1      45.918   2.514   8.057  0.00  0.00    +0.000 A 
ENDBRANCH  12  13
ENDBRANCH   4  12
TORSDOF 3
ENDMDL
MODEL 4
REMARK VINA RESULT:    -6.298      3.066      6.520
REMARK INTER + INTRA:          -7.984
REMARK INTER:                  -7.560
REMARK INTRA:                  -0.423
REMARK UNBOUND:                -0.581
REMARK  Name = 
REMARK  3 active torsions:
REMARK  status: ('A' for Active; 'I' for Inactive)
REMARK    1  A    between atoms: C_2  and  C_4
REMARK    2  A    between atoms: C_7  and  C_8
REMARK    3  A    between atoms: C_8  and  N_9
REMARK                            x       y       z     vdW  Elec       q    Type
REMARK                         _______ _______ _______ _____ _____    ______ ____
ROOT
ATOM      1  C   UNL     1      46.780   8.178  13.266  0.00  0.00    +0.000 A 
ATOM      2  C   UNL     1      46.696   6.784  13.303  0.00  0.00    +0.000 A 
ATOM      3  C   UNL     1      45.689   6.122  12.594  0.00  0.00    +0.000 A 
ATOM      4  C   UNL     1      44.743   6.846  11.851  0.00  0.00    +0.000 A 
ATOM      5  C   UNL     1      44.832   8.246  11.828  0.00  0.00    +0.000 A 
ATOM      6  C   UNL     1      45.843   8.910  12.529  0.00  0.00    +0.000 A 
ENDROOT
BRANCH   1   8
ATOM      7  N   UNL     1      47.694   9.003  15.363  0.00  0.00    +0.000 N 
ATOM      8  C   UNL     1      47.844   8.907  14.008  0.00  0.00    +0.000 C 
ATOM      9  O   UNL     1      48.821   9.374  13.444  0.00  0.00    +0.000 OA
ATOM     10  H   UNL     1      48.456   9.421  15.879  0.00  0.00    +0.000 HD
ATOM     11  H   UNL     1      47.042   8.427  15.879  0.00  0.00    +0.000 HD
ENDBRANCH   1   8
BRANCH   4  12
ATOM     12  C   UNL     1      43.650   6.139  11.090  0.00  0.00    +0.000 C 
BRANCH  12  13
ATOM     13  N   UNL     1      43.903   4.710  10.931  0.00  0.00    +0.000 N 
ATOM     14  C   UNL     1      43.276   3.727  11.663  0.00  0.00    +0.000 A 
ATOM     15  C   UNL     1      43.599   2.508  11.107  0.00  0.00    +0.000 A 
ATOM     16  C   UNL     1      44.432   2.757   9.993  0.00  0.00    +0.000 A 
ATOM     17  N   UNL     1      44.954   1.870   9.111  0.00  0.00    +0.000 NA
ATOM     18  C   UNL     1      45.688   2.421   8.122  0.00  0.00    +0.000 A 
ATOM     19  C   UNL     1      45.951   3.774   7.971  0.00  0.00    +0.000 A 
ATOM     20  C   UNL     1      45.425   4.676   8.891  0.00  0.00    +0.000 A 
ATOM     21  C   UNL     1      44.634   4.135   9.910  0.00  0.00    +0.000 A 
ENDBRANCH  12  13
ENDBRANCH   4  12
TORSDOF 3
ENDMDL
MODEL 5
REMARK VINA RESULT:    -6.259      3.235      6.213
REMARK INTER + INTRA:          -7.937
REMARK INTER:                  -7.402
REMARK INTRA:                  -0.535
REMARK UNBOUND:                -0.581
REMARK  Name = 
REMARK  3 active torsions:
REMARK  status: ('A' for Active; 'I' for Inactive)
REMARK    1  A    between atoms: C_2  and  C_4
REMARK    2  A    between atoms: C_7  and  C_8
REMARK    3  A    between atoms: C_8  and  N_9
REMARK                            x       y       z     vdW  Elec       q    Type
REMARK                         _______ _______ _______ _____ _____    ______ ____
ROOT
ATOM      1  C   UNL     1      48.408   7.360  13.204  0.00  0.00    +0.000 A 
ATOM      2  C   UNL     1      47.666   8.223  12.395  0.00  0.00    +0.000 A 
ATOM      3  C   UNL     1      46.352   7.901  12.042  0.00  0.00    +0.000 A 
ATOM      4  C   UNL     1      45.768   6.701  12.482  0.00  0.00    +0.000 A 
ATOM      5  C   UNL     1      46.526   5.837  13.286  0.00  0.00    +0.000 A 
ATOM      6  C   UNL     1      47.837   6.162  13.646  0.00  0.00    +0.000 A 
ENDROOT
BRANCH   1   8
ATOM      7  N   UNL     1      50.737   7.702  12.596  0.00  0.00    +0.000 N 
ATOM      8  C   UNL     1      49.806   7.682  13.596  0.00  0.00    +0.000 C 
ATOM      9  O   UNL     1      50.110   7.944  14.749  0.00  0.00    +0.000 OA
ATOM     10  H   UNL     1      51.670   8.004  12.844  0.00  0.00    +0.000 HD
ATOM     11  H   UNL     1      50.482   7.734  11.617  0.00  0.00    +0.000 HD
ENDBRANCH   1   8
BRANCH   4  12
ATOM     12  C   UNL     1      44.354   6.343  12.099  0.00  0.00    +0.000 C 
BRANCH  12  13
ATOM     13  N   UNL     1      44.201   4.936  11.746  0.00  0.00    +0.000 N 
ATOM     14  C   UNL     1      43.456   4.032  12.470  0.00  0.00    +0.000 A 
ATOM     15  C   UNL     1      43.365   2.868  11.737  0.00  0.00    +0.000 A 
ATOM     16  C   UNL     1      44.060   3.075  10.524  0.00  0.00    +0.000 A 
ATOM     17  N   UNL     1      44.197   2.230   9.473  0.00  0.00    +0.000 NA
ATOM     18  C   UNL     1      44.893   2.732   8.432  0.00  0.00    +0.000 A 
ATOM     19  C   UNL     1      45.473   3.990   8.381  0.00  0.00    +0.000 A 
ATOM     20  C   UNL     1      45.342   4.845   9.472  0.00  0.00    +0.000 A 
ATOM     21  C   UNL     1      44.598   4.361  10.554  0.00  0.00    +0.000 A 
ENDBRANCH  12  13
ENDBRANCH   4  12
TORSDOF 3
ENDMDL
MODEL 6
REMARK VINA RESULT:    -5.822      2.686      6.485
REMARK INTER + INTRA:          -7.424
REMARK INTER:                  -6.932
REMARK INTRA:                  -0.492
REMARK UNBOUND:                -0.581
REMARK  Name = 
REMARK  3 active torsions:
REMARK  status: ('A' for Active; 'I' for Inactive)
REMARK    1  A    between atoms: C_2  and  C_4
REMARK    2  A    between atoms: C_7  and  C_8
REMARK    3  A    between atoms: C_8  and  N_9
REMARK                            x       y       z     vdW  Elec       q    Type
REMARK                         _______ _______ _______ _____ _____    ______ ____
ROOT
ATOM      1  C   UNL     1      46.369   5.617  12.701  0.00  0.00    +0.000 A 
ATOM      2  C   UNL     1      45.793   4.350  12.813  0.00  0.00    +0.000 A 
ATOM      3  C   UNL     1      45.193   3.749  11.703  0.00  0.00    +0.000 A 
ATOM      4  C   UNL     1      45.147   4.416  10.468  0.00  0.00    +0.000 A 
ATOM      5  C   UNL     1      45.721   5.692  10.369  0.00  0.00    +0.000 A 
ATOM      6  C   UNL     1      46.329   6.290  11.475  0.00  0.00    +0.000 A 
ENDROOT
BRANCH   1   8
ATOM      7  N   UNL     1      47.153   5.525  15.001  0.00  0.00    +0.000 N 
ATOM      8  C   UNL     1      47.018   6.276  13.867  0.00  0.00    +0.000 C 
ATOM      9  O   UNL     1      47.438   7.420  13.811  0.00  0.00    +0.000 OA
ATOM     10  H   UNL     1      47.669   5.940  15.766  0.00  0.00    +0.000 HD
ATOM     11  H   UNL     1      47.045   4.519  15.003  0.00  0.00    +0.000 HD
ENDBRANCH   1   8
BRANCH   4  12
ATOM     12  C   UNL     1      44.494   3.777   9.267  0.00  0.00    +0.000 C 
BRANCH  12  13
ATOM     13  N   UNL     1      45.299   2.706   8.688  0.00  0.00    +0.000 N 
ATOM     14  C   UNL     1      45.174   1.376   9.024  0.00  0.00    +0.000 A 
ATOM     15  C   UNL     1      45.931   0.639   8.139  0.00  0.00    +0.000 A 
ATOM     16  C   UNL     1      46.520   1.544   7.228  0.00  0.00    +0.000 A 
ATOM     17  N   UNL     1      47.304   1.275   6.155  0.00  0.00    +0.000 NA
ATOM     18  C   UNL     1      47.686   2.358   5.448  0.00  0.00    +0.000 A 
ATOM     19  C   UNL     1      47.364   3.673   5.750  0.00  0.00    +0.000 A 
ATOM     20  C   UNL     1      46.573   3.941   6.863  0.00  0.00    +0.000 A 
ATOM     21  C   UNL     1      46.136   2.833   7.597  0.00  0.00    +0.000 A 
ENDBRANCH  12  13
ENDBRANCH   4  12
TORSDOF 3
ENDMDL
MODEL 7
REMARK VINA RESULT:    -5.613      3.281      5.035
REMARK INTER + INTRA:          -7.178
REMARK INTER:                  -6.788
REMARK INTRA:                  -0.390
REMARK UNBOUND:                -0.581
REMARK  Name = 
REMARK  3 active torsions:
REMARK  status: ('A' for Active; 'I' for Inactive)
REMARK    1  A    between atoms: C_2  and  C_4
REMARK    2  A    between atoms: C_7  and  C_8
REMARK    3  A    between atoms: C_8  and  N_9
REMARK                            x       y       z     vdW  Elec       q    Type
REMARK                         _______ _______ _______ _____ _____    ______ ____
ROOT
ATOM      1  C   UNL     1      44.478   4.084  11.456  0.00  0.00    +0.000 A 
ATOM      2  C   UNL     1      44.535   4.374  12.821  0.00  0.00    +0.000 A 
ATOM      3  C   UNL     1      45.053   5.597  13.258  0.00  0.00    +0.000 A 
ATOM      4  C   UNL     1      45.535   6.540  12.336  0.00  0.00    +0.000 A 
ATOM      5  C   UNL     1      45.481   6.234  10.968  0.00  0.00    +0.000 A 
ATOM      6  C   UNL     1      44.956   5.015  10.528  0.00  0.00    +0.000 A 
ENDROOT
BRANCH   1   8
ATOM      7  N   UNL     1      44.573   2.210   9.908  0.00  0.00    +0.000 N 
ATOM      8  C   UNL     1      43.928   2.791  10.964  0.00  0.00    +0.000 C 
ATOM      9  O   UNL     1      42.966   2.256  11.491  0.00  0.00    +0.000 OA
ATOM     10  H   UNL     1      44.255   1.292   9.627  0.00  0.00    +0.000 HD
ATOM     11  H   UNL     1      45.499   2.493   9.615  0.00  0.00    +0.000 HD
ENDBRANCH   1   8
BRANCH   4  12
ATOM     12  C   UNL     1      46.101   7.858  12.801  0.00  0.00    +0.000 C 
BRANCH  12  13
ATOM     13  N   UNL     1      47.544   7.955  12.608  0.00  0.00    +0.000 N 
ATOM     14  C   UNL     1      48.419   6.902  12.766  0.00  0.00    +0.000 A 
ATOM     15  C   UNL     1      49.654   7.300  12.303  0.00  0.00    +0.000 A 
ATOM     16  C   UNL     1      49.525   8.626  11.833  0.00  0.00    +0.000 A 
ATOM     17  N   UNL     1      50.461   9.411  11.244  0.00  0.00    +0.000 NA
ATOM     18  C   UNL     1      50.021  10.629  10.868  0.00  0.00    +0.000 A 
ATOM     19  C   UNL     1      48.737  11.118  11.059  0.00  0.00    +0.000 A 
ATOM     20  C   UNL     1      47.788  10.312  11.680  0.00  0.00    +0.000 A 
ATOM     21  C   UNL     1      48.208   9.031  12.053  0.00  0.00    +0.000 A 
ENDBRANCH  12  13
ENDBRANCH   4  12
TORSDOF 3
ENDMDL
MODEL 8
REMARK VINA RESULT:    -5.477      3.298      5.341
REMARK INTER + INTRA:          -7.018
REMARK INTER:                  -6.511
REMARK INTRA:                  -0.507
REMARK UNBOUND:                -0.581
REMARK  Name = 
REMARK  3 active torsions:
REMARK  status: ('A' for Active; 'I' for Inactive)
REMARK    1  A    between atoms: C_2  and  C_4
REMARK    2  A    between atoms: C_7  and  C_8
REMARK    3  A    between atoms: C_8  and  N_9
REMARK                            x       y       z     vdW  Elec       q    Type
REMARK                         _______ _______ _______ _____ _____    ______ ____
ROOT
ATOM      1  C   UNL     1      44.704   4.148  11.444  0.00  0.00    +0.000 A 
ATOM      2  C   UNL     1      44.777   5.296  10.653  0.00  0.00    +0.000 A 
ATOM      3  C   UNL     1      45.357   6.464  11.158  0.00  0.00    +0.000 A 
ATOM      4  C   UNL     1      45.858   6.502  12.470  0.00  0.00    +0.000 A 
ATOM      5  C   UNL     1      45.771   5.346  13.259  0.00  0.00    +0.000 A 
ATOM      6  C   UNL     1      45.199   4.176  12.753  0.00  0.00    +0.000 A 
ENDROOT
BRANCH   1   8
ATOM      7  N   UNL     1      44.757   2.260   9.913  0.00  0.00    +0.000 N 
ATOM      8  C   UNL     1      44.095   2.892  10.928  0.00  0.00    +0.000 C 
ATOM      9  O   UNL     1      43.071   2.429  11.402  0.00  0.00    +0.000 OA
ATOM     10  H   UNL     1      44.393   1.364   9.618  0.00  0.00    +0.000 HD
ATOM     11  H   UNL     1      45.715   2.477   9.671  0.00  0.00    +0.000 HD
ENDBRANCH   1   8
BRANCH   4  12
ATOM     12  C   UNL     1      46.479   7.760  13.025  0.00  0.00    +0.000 C 
BRANCH  12  13
ATOM     13  N   UNL     1      47.931   7.787  12.879  0.00  0.00    +0.000 N 
ATOM     14  C   UNL     1      48.588   8.256  11.763  0.00  0.00    +0.000 A 
ATOM     15  C   UNL     1      49.933   8.327  12.057  0.00  0.00    +0.000 A 
ATOM     16  C   UNL     1      50.097   7.906  13.396  0.00  0.00    +0.000 A 
ATOM     17  N   UNL     1      51.233   7.858  14.135  0.00  0.00    +0.000 NA
ATOM     18  C   UNL     1      51.062   7.443  15.407  0.00  0.00    +0.000 A 
ATOM     19  C   UNL     1      49.858   7.056  15.975  0.00  0.00    +0.000 A 
ATOM     20  C   UNL     1      48.700   7.093  15.204  0.00  0.00    +0.000 A 
ATOM     21  C   UNL     1      48.842   7.549  13.889  0.00  0.00    +0.000 A 
ENDBRANCH  12  13
ENDBRANCH   4  12
TORSDOF 3
ENDMDL
MODEL 9
REMARK VINA RESULT:    -5.336      4.766      7.884
REMARK INTER + INTRA:          -6.852
REMARK INTER:                  -6.410
REMARK INTRA:                  -0.442
REMARK UNBOUND:                -0.581
REMARK  Name = 
REMARK  3 active torsions:
REMARK  status: ('A' for Active; 'I' for Inactive)
REMARK    1  A    between atoms: C_2  and  C_4
REMARK    2  A    between atoms: C_7  and  C_8
REMARK    3  A    between atoms: C_8  and  N_9
REMARK                            x       y       z     vdW  Elec       q    Type
REMARK                         _______ _______ _______ _____ _____    ______ ____
ROOT
ATOM      1  C   UNL     1      48.106   5.020  17.488  0.00  0.00    +0.000 A 
ATOM      2  C   UNL     1      48.767   6.074  16.854  0.00  0.00    +0.000 A 
ATOM      3  C   UNL     1      48.613   6.274  15.479  0.00  0.00    +0.000 A 
ATOM      4  C   UNL     1      47.809   5.411  14.717  0.00  0.00    +0.000 A 
ATOM      5  C   UNL     1      47.157   4.350  15.363  0.00  0.00    +0.000 A 
ATOM      6  C   UNL     1      47.302   4.154  16.739  0.00  0.00    +0.000 A 
ENDROOT
BRANCH   1   8
ATOM      7  N   UNL     1      48.906   3.652  19.333  0.00  0.00    +0.000 N 
ATOM      8  C   UNL     1      48.249   4.789  18.951  0.00  0.00    +0.000 C 
ATOM      9  O   UNL     1      47.829   5.584  19.776  0.00  0.00    +0.000 OA
ATOM     10  H   UNL     1      49.081   3.535  20.322  0.00  0.00    +0.000 HD
ATOM     11  H   UNL     1      49.472   3.111  18.692  0.00  0.00    +0.000 HD
ENDBRANCH   1   8
BRANCH   4  12
ATOM     12  C   UNL     1      47.644   5.615  13.231  0.00  0.00    +0.000 C 
BRANCH  12  13
ATOM     13  N   UNL     1      46.287   6.005  12.860  0.00  0.00    +0.000 N 
ATOM     14  C   UNL     1      45.881   7.306  12.666  0.00  0.00    +0.000 A 
ATOM     15  C   UNL     1      44.613   7.283  12.126  0.00  0.00    +0.000 A 
ATOM     16  C   UNL     1      44.244   5.928  11.969  0.00  0.00    +0.000 A 
ATOM     17  N   UNL     1      43.109   5.416  11.432  0.00  0.00    +0.000 NA
ATOM     18  C   UNL     1      43.063   4.069  11.387  0.00  0.00    +0.000 A 
ATOM     19  C   UNL     1      44.045   3.212  11.858  0.00  0.00    +0.000 A 
ATOM     20  C   UNL     1      45.200   3.745  12.424  0.00  0.00    +0.000 A 
ATOM     21  C   UNL     1      45.289   5.141  12.455  0.00  0.00    +0.000 A 
ENDBRANCH  12  13
ENDBRANCH   4  12
TORSDOF 3
ENDMDL
