MODEL 1
REMARK VINA RESULT:    -7.299      0.000      0.000
REMARK INTER + INTRA:         -11.406
REMARK INTER:                 -10.286
REMARK INTRA:                  -1.120
REMARK UNBOUND:                -1.120
REMARK  Name = 
REMARK  7 active torsions:
REMARK  status: ('A' for Active; 'I' for Inactive)
REMARK    1  A    between atoms: C_2  and  C_3
REMARK    2  A    between atoms: C_5  and  C_6
REMARK    3  A    between atoms: N_8  and  C_9
REMARK    4  A    between atoms: C_9  and  C_10
REMARK    5  A    between atoms: C_13  and  C_14
REMARK    6  A    between atoms: C_14  and  N_15
REMARK    7  A    between atoms: C_16  and  C_18
REMARK                            x       y       z     vdW  Elec       q    Type
REMARK                         _______ _______ _______ _____ _____    ______ ____
ROOT
ATOM      1  C   UNL     1      45.333   7.028  11.474  0.00  0.00    +0.000 A 
ATOM      2  C   UNL     1      45.007   8.230  12.107  0.00  0.00    +0.000 A 
ATOM      3  C   UNL     1      45.880   8.782  13.044  0.00  0.00    +0.000 A 
ATOM      4  C   UNL     1      47.084   8.135  13.313  0.00  0.00    +0.000 A 
ATOM      5  N   UNL     1      47.423   6.969  12.706  0.00  0.00    +0.000 NA
ATOM      6  C   UNL     1      46.552   6.450  11.809  0.00  0.00    +0.000 A 
ENDROOT
BRANCH   1   7
ATOM      7  C   UNL     1      44.416   6.394  10.472  0.00  0.00    +0.000 C 
BRANCH   7  10
ATOM      8  C   UNL     1      44.544   4.104   9.616  0.00  0.00    +0.000 C 
ATOM      9  O   UNL     1      43.505   3.796  10.193  0.00  0.00    +0.000 OA
ATOM     10  N   UNL     1      45.078   5.371   9.694  0.00  0.00    +0.000 N 
ATOM     11  H   UNL     1      45.916   5.617   9.191  0.00  0.00    +0.000 HD
BRANCH   8  14
ATOM     12  C   UNL     1      46.727   2.239   7.162  0.00  0.00    +0.000 A 
ATOM     13  C   UNL     1      46.182   3.392   7.693  0.00  0.00    +0.000 A 
ATOM     14  C   UNL     1      45.293   3.142   8.800  0.00  0.00    +0.000 A 
ATOM     15  C   UNL     1      45.217   1.778   9.041  0.00  0.00    +0.000 A 
ATOM     16  S   UNL     1      46.177   0.847   7.977  0.00  0.00    +0.000 S 
BRANCH  12  18
ATOM     17  N   UNL     1      48.386   2.197   5.177  0.00  0.00    +0.000 NA
ATOM     18  C   UNL     1      47.642   2.200   6.065  0.00  0.00    +0.000 C 
ENDBRANCH  12  18
ENDBRANCH   8  14
ENDBRANCH   7  10
ENDBRANCH   1   7
BRANCH   4  19
ATOM     19  C   UNL     1      48.039   8.698  14.344  0.00  0.00    +0.000 C 
BRANCH  19  20
ATOM     20  N   UNL     1      48.265   7.762  15.426  0.00  0.00    +0.000 N 
ATOM     21  C   UNL     1      49.430   7.049  15.537  0.00  0.00    +0.000 C 
ATOM     22  O   UNL     1      50.379   7.225  14.777  0.00  0.00    +0.000 OA
ATOM     23  H   UNL     1      47.427   7.425  15.890  0.00  0.00    +0.000 HD
BRANCH  21  24
ATOM     24  C   UNL     1      49.522   6.112  16.665  0.00  0.00    +0.000 A 
ATOM     25  C   UNL     1      50.503   6.293  17.632  0.00  0.00    +0.000 A 
ATOM     26  S   UNL     1      50.435   5.151  18.897  0.00  0.00    +0.000 S 
ATOM     27  C   UNL     1      49.127   4.343  18.171  0.00  0.00    +0.000 A 
ATOM     28  N   UNL     1      48.586   3.233  18.743  0.00  0.00    +0.000 NA
ATOM     29  C   UNL     1      47.622   2.701  18.067  0.00  0.00    +0.000 A 
ATOM     30  N   UNL     1      47.147   3.182  16.875  0.00  0.00    +0.000 N 
ATOM     31  C   UNL     1      47.640   4.318  16.277  0.00  0.00    +0.000 A 
ATOM     32  O   UNL     1      47.161   4.751  15.235  0.00  0.00    +0.000 OA
ATOM     33  C   UNL     1      48.736   4.945  16.990  0.00  0.00    +0.000 A 
ATOM     34  H   UNL     1      46.382   2.726  16.399  0.00  0.00    +0.000 HD
ENDBRANCH  21  24
ENDBRANCH  19  20
ENDBRANCH   4  19
TORSDOF 7
ENDMDL
MODEL 2
REMARK VINA RESULT:    -6.954      0.756      1.039
REMARK INTER + INTRA:         -10.920
REMARK INTER:                  -9.844
REMARK INTRA:                  -1.076
REMARK UNBOUND:                -1.120
REMARK  Name = 
REMARK  7 active torsions:
REMARK  status: ('A' for Active; 'I' for Inactive)
REMARK    1  A    between atoms: C_2  and  C_3
REMARK    2  A    between atoms: C_5  and  C_6
REMARK    3  A    between atoms: N_8  and  C_9
REMARK    4  A    between atoms: C_9  and  C_10
REMARK    5  A    between atoms: C_13  and  C_14
REMARK    6  A    between atoms: C_14  and  N_15
REMARK    7  A    between atoms: C_16  and  C_18
REMARK                            x       y       z     vdW  Elec       q    Type
REMARK                         _______ _______ _______ _____ _____    ______ ____
ROOT
ATOM      1  C   UNL     1      45.632   7.135  11.639  0.00  0.00    +0.000 A 
ATOM      2  C   UNL     1      46.868   6.554  11.933  0.00  0.00    +0.000 A 
ATOM      3  C   UNL     1      47.703   7.140  12.883  0.00  0.00    +0.000 A 
ATOM      4  C   UNL     1      47.275   8.288  13.547  0.00  0.00    +0.000 A 
ATOM      5  N   UNL     1      46.077   8.866  13.280  0.00  0.00    +0.000 NA
ATOM      6  C   UNL     1      45.291   8.282  12.344  0.00  0.00    +0.000 A 
ENDROOT
BRANCH   1   7
ATOM      7  C   UNL     1      44.710   6.544  10.614  0.00  0.00    +0.000 C 
BRANCH   7  10
ATOM      8  C   UNL     1      44.617   4.369   9.496  0.00  0.00    +0.000 C 
ATOM      9  O   UNL     1      43.433   4.230   9.793  0.00  0.00    +0.000 OA
ATOM     10  N   UNL     1      45.339   5.483   9.860  0.00  0.00    +0.000 N 
ATOM     11  H   UNL     1      46.302   5.596   9.584  0.00  0.00    +0.000 HD
BRANCH   8  14
ATOM     12  C   UNL     1      46.769   2.341   7.146  0.00  0.00    +0.000 A 
ATOM     13  C   UNL     1      46.246   3.529   7.618  0.00  0.00    +0.000 A 
ATOM     14  C   UNL     1      45.349   3.352   8.732  0.00  0.00    +0.000 A 
ATOM     15  C   UNL     1      45.243   2.004   9.039  0.00  0.00    +0.000 A 
ATOM     16  S   UNL     1      46.187   1.002   8.026  0.00  0.00    +0.000 S 
BRANCH  12  18
ATOM     17  N   UNL     1      48.414   2.117   5.162  0.00  0.00    +0.000 NA
ATOM     18  C   UNL     1      47.686   2.229   6.057  0.00  0.00    +0.000 C 
ENDBRANCH  12  18
ENDBRANCH   8  14
ENDBRANCH   7  10
ENDBRANCH   1   7
BRANCH   4  19
ATOM     19  C   UNL     1      48.172   8.961  14.564  0.00  0.00    +0.000 C 
BRANCH  19  20
ATOM     20  N   UNL     1      48.373   8.128  15.731  0.00  0.00    +0.000 N 
ATOM     21  C   UNL     1      49.581   7.543  16.007  0.00  0.00    +0.000 C 
ATOM     22  O   UNL     1      50.582   7.761  15.328  0.00  0.00    +0.000 OA
ATOM     23  H   UNL     1      47.526   7.741  16.138  0.00  0.00    +0.000 HD
BRANCH  21  24
ATOM     24  C   UNL     1      49.643   6.698  17.206  0.00  0.00    +0.000 A 
ATOM     25  C   UNL     1      50.410   7.100  18.292  0.00  0.00    +0.000 A 
ATOM     26  S   UNL     1      50.330   6.034  19.621  0.00  0.00    +0.000 S 
ATOM     27  C   UNL     1      49.310   4.969  18.773  0.00  0.00    +0.000 A 
ATOM     28  N   UNL     1      48.876   3.812  19.343  0.00  0.00    +0.000 NA
ATOM     29  C   UNL     1      48.137   3.083  18.575  0.00  0.00    +0.000 A 
ATOM     30  N   UNL     1      47.788   3.409  17.290  0.00  0.00    +0.000 N 
ATOM     31  C   UNL     1      48.175   4.581  16.685  0.00  0.00    +0.000 A 
ATOM     32  O   UNL     1      47.806   4.867  15.551  0.00  0.00    +0.000 OA
ATOM     33  C   UNL     1      49.021   5.429  17.501  0.00  0.00    +0.000 A 
ATOM     34  H   UNL     1      47.198   2.800  16.743  0.00  0.00    +0.000 HD
ENDBRANCH  21  24
ENDBRANCH  19  20
ENDBRANCH   4  19
TORSDOF 7
ENDMDL
MODEL 3
REMARK VINA RESULT:    -6.855      3.025      4.463
REMARK INTER + INTRA:         -10.780
REMARK INTER:                  -9.892
REMARK INTRA:                  -0.888
REMARK UNBOUND:                -1.120
REMARK  Name = 
REMARK  7 active torsions:
REMARK  status: ('A' for Active; 'I' for Inactive)
REMARK    1  A    between atoms: C_2  and  C_3
REMARK    2  A    between atoms: C_5  and  C_6
REMARK    3  A    between atoms: N_8  and  C_9
REMARK    4  A    between atoms: C_9  and  C_10
REMARK    5  A    between atoms: C_13  and  C_14
REMARK    6  A    between atoms: C_14  and  N_15
REMARK    7  A    between atoms: C_16  and  C_18
REMARK                            x       y       z     vdW  Elec       q    Type
REMARK                         _______ _______ _______ _____ _____    ______ ____
ROOT
ATOM      1  C   UNL     1      47.169   5.787  14.151  0.00  0.00    +0.000 A 
ATOM      2  C   UNL     1      48.075   6.282  15.091  0.00  0.00    +0.000 A 
ATOM      3  C   UNL     1      48.339   5.557  16.253  0.00  0.00    +0.000 A 
ATOM      4  C   UNL     1      47.710   4.328  16.442  0.00  0.00    +0.000 A 
ATOM      5  N   UNL     1      46.830   3.826  15.540  0.00  0.00    +0.000 NA
ATOM      6  C   UNL     1      46.584   4.557  14.426  0.00  0.00    +0.000 A 
ENDROOT
BRANCH   1   7
ATOM      7  C   UNL     1      46.847   6.542  12.896  0.00  0.00    +0.000 C 
BRANCH   7  10
ATOM      8  C   UNL     1      45.433   5.649  11.110  0.00  0.00    +0.000 C 
ATOM      9  O   UNL     1      44.494   6.364  11.451  0.00  0.00    +0.000 OA
ATOM     10  N   UNL     1      46.643   5.664  11.766  0.00  0.00    +0.000 N 
ATOM     11  H   UNL     1      47.413   5.094  11.456  0.00  0.00    +0.000 HD
BRANCH   8  14
ATOM     12  C   UNL     1      45.729   3.679   7.901  0.00  0.00    +0.000 A 
ATOM     13  C   UNL     1      46.087   4.709   8.749  0.00  0.00    +0.000 A 
ATOM     14  C   UNL     1      45.330   4.724   9.975  0.00  0.00    +0.000 A 
ATOM     15  C   UNL     1      44.420   3.677   9.978  0.00  0.00    +0.000 A 
ATOM     16  S   UNL     1      44.481   2.724   8.561  0.00  0.00    +0.000 S 
BRANCH  12  18
ATOM     17  N   UNL     1      46.787   3.202   5.588  0.00  0.00    +0.000 NA
ATOM     18  C   UNL     1      46.322   3.429   6.625  0.00  0.00    +0.000 C 
ENDBRANCH  12  18
ENDBRANCH   8  14
ENDBRANCH   7  10
ENDBRANCH   1   7
BRANCH   4  19
ATOM     19  C   UNL     1      47.957   3.531  17.706  0.00  0.00    +0.000 C 
BRANCH  19  20
ATOM     20  N   UNL     1      49.368   3.278  17.908  0.00  0.00    +0.000 N 
ATOM     21  C   UNL     1      50.057   2.363  17.155  0.00  0.00    +0.000 C 
ATOM     22  O   UNL     1      49.538   1.770  16.213  0.00  0.00    +0.000 OA
ATOM     23  H   UNL     1      49.733   3.554  18.815  0.00  0.00    +0.000 HD
BRANCH  21  24
ATOM     24  C   UNL     1      51.478   2.181  17.480  0.00  0.00    +0.000 A 
ATOM     25  C   UNL     1      51.989   0.898  17.638  0.00  0.00    +0.000 A 
ATOM     26  S   UNL     1      53.663   0.863  17.958  0.00  0.00    +0.000 S 
ATOM     27  C   UNL     1      53.756   2.561  17.950  0.00  0.00    +0.000 A 
ATOM     28  N   UNL     1      54.934   3.199  18.188  0.00  0.00    +0.000 NA
ATOM     29  C   UNL     1      54.852   4.488  18.186  0.00  0.00    +0.000 A 
ATOM     30  N   UNL     1      53.701   5.197  17.961  0.00  0.00    +0.000 N 
ATOM     31  C   UNL     1      52.496   4.596  17.683  0.00  0.00    +0.000 A 
ATOM     32  O   UNL     1      51.493   5.258  17.437  0.00  0.00    +0.000 OA
ATOM     33  C   UNL     1      52.531   3.147  17.689  0.00  0.00    +0.000 A 
ATOM     34  H   UNL     1      53.704   6.206  17.962  0.00  0.00    +0.000 HD
ENDBRANCH  21  24
ENDBRANCH  19  20
ENDBRANCH   4  19
TORSDOF 7
ENDMDL
MODEL 4
REMARK VINA RESULT:    -6.666      3.137      3.982
REMARK INTER + INTRA:         -10.514
REMARK INTER:                  -9.604
REMARK INTRA:                  -0.910
REMARK UNBOUND:                -1.120
REMARK  Name = 
REMARK  7 active torsions:
REMARK  status: ('A' for Active; 'I' for Inactive)
REMARK    1  A    between atoms: C_2  and  C_3
REMARK    2  A    between atoms: C_5  and  C_6
REMARK    3  A    between atoms: N_8  and  C_9
REMARK    4  A    between atoms: C_9  and  C_10
REMARK    5  A    between atoms: C_13  and  C_14
REMARK    6  A    between atoms: C_14  and  N_15
REMARK    7  A    between atoms: C_16  and  C_18
REMARK                            x       y       z     vdW  Elec       q    Type
REMARK                         _______ _______ _______ _____ _____    ______ ____
ROOT
ATOM      1  C   UNL     1      46.985   6.123  13.670  0.00  0.00    +0.000 A 
ATOM      2  C   UNL     1      48.001   6.702  14.434  0.00  0.00    +0.000 A 
ATOM      3  C   UNL     1      48.402   6.102  15.627  0.00  0.00    +0.000 A 
ATOM      4  C   UNL     1      47.797   4.912  16.025  0.00  0.00    +0.000 A 
ATOM      5  N   UNL     1      46.811   4.330  15.296  0.00  0.00    +0.000 NA
ATOM      6  C   UNL     1      46.433   4.941  14.147  0.00  0.00    +0.000 A 
ENDROOT
BRANCH   1   7
ATOM      7  C   UNL     1      46.515   6.745  12.389  0.00  0.00    +0.000 C 
BRANCH   7  10
ATOM      8  C   UNL     1      45.197   5.395  10.829  0.00  0.00    +0.000 C 
ATOM      9  O   UNL     1      44.146   5.842  11.280  0.00  0.00    +0.000 OA
ATOM     10  N   UNL     1      46.426   5.782  11.314  0.00  0.00    +0.000 N 
ATOM     11  H   UNL     1      47.281   5.429  10.913  0.00  0.00    +0.000 HD
BRANCH   8  14
ATOM     12  C   UNL     1      45.738   3.347   7.702  0.00  0.00    +0.000 A 
ATOM     13  C   UNL     1      45.951   4.457   8.498  0.00  0.00    +0.000 A 
ATOM     14  C   UNL     1      45.218   4.414   9.737  0.00  0.00    +0.000 A 
ATOM     15  C   UNL     1      44.474   3.246   9.803  0.00  0.00    +0.000 A 
ATOM     16  S   UNL     1      44.656   2.249   8.427  0.00  0.00    +0.000 S 
BRANCH  12  18
ATOM     17  N   UNL     1      46.811   2.939   5.383  0.00  0.00    +0.000 NA
ATOM     18  C   UNL     1      46.344   3.130   6.426  0.00  0.00    +0.000 C 
ENDBRANCH  12  18
ENDBRANCH   8  14
ENDBRANCH   7  10
ENDBRANCH   1   7
BRANCH   4  19
ATOM     19  C   UNL     1      48.193   4.252  17.328  0.00  0.00    +0.000 C 
BRANCH  19  20
ATOM     20  N   UNL     1      49.594   3.885  17.334  0.00  0.00    +0.000 N 
ATOM     21  C   UNL     1      50.416   4.178  18.390  0.00  0.00    +0.000 C 
ATOM     22  O   UNL     1      49.994   4.690  19.424  0.00  0.00    +0.000 OA
ATOM     23  H   UNL     1      49.999   3.706  16.421  0.00  0.00    +0.000 HD
BRANCH  21  24
ATOM     24  C   UNL     1      51.823   3.777  18.259  0.00  0.00    +0.000 A 
ATOM     25  C   UNL     1      52.829   4.692  18.542  0.00  0.00    +0.000 A 
ATOM     26  S   UNL     1      54.402   4.049  18.393  0.00  0.00    +0.000 S 
ATOM     27  C   UNL     1      53.796   2.540  17.893  0.00  0.00    +0.000 A 
ATOM     28  N   UNL     1      54.637   1.519  17.575  0.00  0.00    +0.000 NA
ATOM     29  C   UNL     1      54.042   0.443  17.179  0.00  0.00    +0.000 A 
ATOM     30  N   UNL     1      52.684   0.293  17.079  0.00  0.00    +0.000 N 
ATOM     31  C   UNL     1      51.796   1.286  17.421  0.00  0.00    +0.000 A 
ATOM     32  O   UNL     1      50.584   1.105  17.368  0.00  0.00    +0.000 OA
ATOM     33  C   UNL     1      52.413   2.522  17.858  0.00  0.00    +0.000 A 
ATOM     34  H   UNL     1      52.279  -0.579  16.772  0.00  0.00    +0.000 HD
ENDBRANCH  21  24
ENDBRANCH  19  20
ENDBRANCH   4  19
TORSDOF 7
ENDMDL
MODEL 5
REMARK VINA RESULT:    -6.614      3.740      8.872
REMARK INTER + INTRA:         -10.440
REMARK INTER:                  -9.471
REMARK INTRA:                  -0.969
REMARK UNBOUND:                -1.120
REMARK  Name = 
REMARK  7 active torsions:
REMARK  status: ('A' for Active; 'I' for Inactive)
REMARK    1  A    between atoms: C_2  and  C_3
REMARK    2  A    between atoms: C_5  and  C_6
REMARK    3  A    between atoms: N_8  and  C_9
REMARK    4  A    between atoms: C_9  and  C_10
REMARK    5  A    between atoms: C_13  and  C_14
REMARK    6  A    between atoms: C_14  and  N_15
REMARK    7  A    between atoms: C_16  and  C_18
REMARK                            x       y       z     vdW  Elec       q    Type
REMARK                         _______ _______ _______ _____ _____    ______ ____
ROOT
ATOM      1  C   UNL     1      49.414   5.089  17.366  0.00  0.00    +0.000 A 
ATOM      2  C   UNL     1      50.150   6.195  16.934  0.00  0.00    +0.000 A 
ATOM      3  C   UNL     1      49.787   6.857  15.761  0.00  0.00    +0.000 A 
ATOM      4  C   UNL     1      48.672   6.416  15.051  0.00  0.00    +0.000 A 
ATOM      5  N   UNL     1      47.941   5.347  15.455  0.00  0.00    +0.000 NA
ATOM      6  C   UNL     1      48.322   4.717  16.592  0.00  0.00    +0.000 A 
ENDROOT
BRANCH   1   7
ATOM      7  C   UNL     1      49.778   4.342  18.614  0.00  0.00    +0.000 C 
BRANCH   7  10
ATOM      8  C   UNL     1      51.211   2.531  17.804  0.00  0.00    +0.000 C 
ATOM      9  O   UNL     1      50.263   1.987  17.244  0.00  0.00    +0.000 OA
ATOM     10  N   UNL     1      51.071   3.704  18.511  0.00  0.00    +0.000 N 
ATOM     11  H   UNL     1      51.865   4.153  18.940  0.00  0.00    +0.000 HD
BRANCH   8  14
ATOM     12  C   UNL     1      54.338   0.421  17.613  0.00  0.00    +0.000 A 
ATOM     13  C   UNL     1      52.967   0.588  17.632  0.00  0.00    +0.000 A 
ATOM     14  C   UNL     1      52.565   1.966  17.759  0.00  0.00    +0.000 A 
ATOM     15  C   UNL     1      53.688   2.777  17.833  0.00  0.00    +0.000 A 
ATOM     16  S   UNL     1      55.157   1.909  17.753  0.00  0.00    +0.000 S 
BRANCH  12  18
ATOM     17  N   UNL     1      55.571  -1.843  17.388  0.00  0.00    +0.000 NA
ATOM     18  C   UNL     1      55.005  -0.837  17.491  0.00  0.00    +0.000 C 
ENDBRANCH  12  18
ENDBRANCH   8  14
ENDBRANCH   7  10
ENDBRANCH   1   7
BRANCH   4  19
ATOM     19  C   UNL     1      48.271   7.098  13.760  0.00  0.00    +0.000 C 
BRANCH  19  20
ATOM     20  N   UNL     1      47.510   6.212  12.905  0.00  0.00    +0.000 N 
ATOM     21  C   UNL     1      46.581   6.683  12.014  0.00  0.00    +0.000 C 
ATOM     22  O   UNL     1      46.403   7.885  11.832  0.00  0.00    +0.000 OA
ATOM     23  H   UNL     1      47.458   5.247  13.216  0.00  0.00    +0.000 HD
BRANCH  21  24
ATOM     24  C   UNL     1      45.857   5.677  11.225  0.00  0.00    +0.000 A 
ATOM     25  C   UNL     1      45.954   5.690   9.840  0.00  0.00    +0.000 A 
ATOM     26  S   UNL     1      45.098   4.424   9.082  0.00  0.00    +0.000 S 
ATOM     27  C   UNL     1      44.524   3.846  10.575  0.00  0.00    +0.000 A 
ATOM     28  N   UNL     1      43.696   2.768  10.637  0.00  0.00    +0.000 NA
ATOM     29  C   UNL     1      43.310   2.460  11.830  0.00  0.00    +0.000 A 
ATOM     30  N   UNL     1      43.682   3.128  12.968  0.00  0.00    +0.000 N 
ATOM     31  C   UNL     1      44.542   4.201  12.957  0.00  0.00    +0.000 A 
ATOM     32  O   UNL     1      44.896   4.747  13.997  0.00  0.00    +0.000 OA
ATOM     33  C   UNL     1      44.993   4.597  11.638  0.00  0.00    +0.000 A 
ATOM     34  H   UNL     1      43.354   2.831  13.875  0.00  0.00    +0.000 HD
ENDBRANCH  21  24
ENDBRANCH  19  20
ENDBRANCH   4  19
TORSDOF 7
ENDMDL
MODEL 6
REMARK VINA RESULT:    -6.405      4.593      7.596
REMARK INTER + INTRA:         -10.146
REMARK INTER:                  -9.177
REMARK INTRA:                  -0.968
REMARK UNBOUND:                -1.120
REMARK  Name = 
REMARK  7 active torsions:
REMARK  status: ('A' for Active; 'I' for Inactive)
REMARK    1  A    between atoms: C_2  and  C_3
REMARK    2  A    between atoms: C_5  and  C_6
REMARK    3  A    between atoms: N_8  and  C_9
REMARK    4  A    between atoms: C_9  and  C_10
REMARK    5  A    between atoms: C_13  and  C_14
REMARK    6  A    between atoms: C_14  and  N_15
REMARK    7  A    between atoms: C_16  and  C_18
REMARK                            x       y       z     vdW  Elec       q    Type
REMARK                         _______ _______ _______ _____ _____    ______ ____
ROOT
ATOM      1  C   UNL     1      50.198   9.119  11.557  0.00  0.00    +0.000 A 
ATOM      2  C   UNL     1      49.728   7.808  11.441  0.00  0.00    +0.000 A 
ATOM      3  C   UNL     1      48.468   7.474  11.937  0.00  0.00    +0.000 A 
ATOM      4  C   UNL     1      47.683   8.468  12.518  0.00  0.00    +0.000 A 
ATOM      5  N   UNL     1      48.119   9.748  12.637  0.00  0.00    +0.000 NA
ATOM      6  C   UNL     1      49.351  10.042  12.157  0.00  0.00    +0.000 A 
ENDROOT
BRANCH   1   7
ATOM      7  C   UNL     1      51.552   9.515  11.049  0.00  0.00    +0.000 C 
BRANCH   7  10
ATOM      8  C   UNL     1      53.236   7.765  10.742  0.00  0.00    +0.000 C 
ATOM      9  O   UNL     1      53.711   7.982  11.854  0.00  0.00    +0.000 OA
ATOM     10  N   UNL     1      52.163   8.476  10.251  0.00  0.00    +0.000 N 
ATOM     11  H   UNL     1      51.766   8.266   9.349  0.00  0.00    +0.000 HD
BRANCH   8  14
ATOM     12  C   UNL     1      54.154   5.387   7.955  0.00  0.00    +0.000 A 
ATOM     13  C   UNL     1      53.421   6.428   8.492  0.00  0.00    +0.000 A 
ATOM     14  C   UNL     1      53.781   6.731   9.854  0.00  0.00    +0.000 A 
ATOM     15  C   UNL     1      54.788   5.877  10.275  0.00  0.00    +0.000 A 
ATOM     16  S   UNL     1      55.274   4.760   9.076  0.00  0.00    +0.000 S 
BRANCH  12  18
ATOM     17  N   UNL     1      53.913   4.486   5.542  0.00  0.00    +0.000 NA
ATOM     18  C   UNL     1      54.006   4.885   6.626  0.00  0.00    +0.000 C 
ENDBRANCH  12  18
ENDBRANCH   8  14
ENDBRANCH   7  10
ENDBRANCH   1   7
BRANCH   4  19
ATOM     19  C   UNL     1      46.323   8.130  13.089  0.00  0.00    +0.000 C 
BRANCH  19  20
ATOM     20  N   UNL     1      45.894   6.806  12.691  0.00  0.00    +0.000 N 
ATOM     21  C   UNL     1      44.888   6.611  11.782  0.00  0.00    +0.000 C 
ATOM     22  O   UNL     1      44.353   7.546  11.190  0.00  0.00    +0.000 OA
ATOM     23  H   UNL     1      46.133   6.059  13.338  0.00  0.00    +0.000 HD
BRANCH  21  24
ATOM     24  C   UNL     1      44.529   5.218  11.486  0.00  0.00    +0.000 A 
ATOM     25  C   UNL     1      43.781   4.490  12.403  0.00  0.00    +0.000 A 
ATOM     26  S   UNL     1      43.405   2.910  11.882  0.00  0.00    +0.000 S 
ATOM     27  C   UNL     1      44.275   3.123  10.435  0.00  0.00    +0.000 A 
ATOM     28  N   UNL     1      44.376   2.118   9.524  0.00  0.00    +0.000 NA
ATOM     29  C   UNL     1      45.093   2.405   8.490  0.00  0.00    +0.000 A 
ATOM     30  N   UNL     1      45.713   3.609   8.280  0.00  0.00    +0.000 N 
ATOM     31  C   UNL     1      45.611   4.664   9.156  0.00  0.00    +0.000 A 
ATOM     32  O   UNL     1      46.137   5.747   8.916  0.00  0.00    +0.000 OA
ATOM     33  C   UNL     1      44.828   4.388  10.343  0.00  0.00    +0.000 A 
ATOM     34  H   UNL     1      46.252   3.776   7.444  0.00  0.00    +0.000 HD
ENDBRANCH  21  24
ENDBRANCH  19  20
ENDBRANCH   4  19
TORSDOF 7
ENDMDL
MODEL 7
REMARK VINA RESULT:    -6.243      3.002      8.563
REMARK INTER + INTRA:          -9.917
REMARK INTER:                  -9.040
REMARK INTRA:                  -0.878
REMARK UNBOUND:                -1.120
REMARK  Name = 
REMARK  7 active torsions:
REMARK  status: ('A' for Active; 'I' for Inactive)
REMARK    1  A    between atoms: C_2  and  C_3
REMARK    2  A    between atoms: C_5  and  C_6
REMARK    3  A    between atoms: N_8  and  C_9
REMARK    4  A    between atoms: C_9  and  C_10
REMARK    5  A    between atoms: C_13  and  C_14
REMARK    6  A    between atoms: C_14  and  N_15
REMARK    7  A    between atoms: C_16  and  C_18
REMARK                            x       y       z     vdW  Elec       q    Type
REMARK                         _______ _______ _______ _____ _____    ______ ____
ROOT
ATOM      1  C   UNL     1      48.903   7.497  16.254  0.00  0.00    +0.000 A 
ATOM      2  C   UNL     1      48.422   8.740  15.833  0.00  0.00    +0.000 A 
ATOM      3  C   UNL     1      48.183   8.971  14.478  0.00  0.00    +0.000 A 
ATOM      4  C   UNL     1      48.403   7.941  13.566  0.00  0.00    +0.000 A 
ATOM      5  N   UNL     1      48.866   6.726  13.953  0.00  0.00    +0.000 NA
ATOM      6  C   UNL     1      49.100   6.533  15.273  0.00  0.00    +0.000 A 
ENDROOT
BRANCH   1   7
ATOM      7  C   UNL     1      49.185   7.213  17.699  0.00  0.00    +0.000 C 
BRANCH   7  10
ATOM      8  C   UNL     1      50.033   5.014  18.358  0.00  0.00    +0.000 C 
ATOM      9  O   UNL     1      48.906   4.636  18.666  0.00  0.00    +0.000 OA
ATOM     10  N   UNL     1      50.275   6.279  17.869  0.00  0.00    +0.000 N 
ATOM     11  H   UNL     1      51.201   6.564  17.593  0.00  0.00    +0.000 HD
BRANCH   8  14
ATOM     12  C   UNL     1      52.748   2.399  18.124  0.00  0.00    +0.000 A 
ATOM     13  C   UNL     1      51.553   2.970  17.730  0.00  0.00    +0.000 A 
ATOM     14  C   UNL     1      51.207   4.143  18.491  0.00  0.00    +0.000 A 
ATOM     15  C   UNL     1      52.186   4.392  19.441  0.00  0.00    +0.000 A 
ATOM     16  S   UNL     1      53.464   3.257  19.411  0.00  0.00    +0.000 S 
BRANCH  12  18
ATOM     17  N   UNL     1      53.815   0.284  17.082  0.00  0.00    +0.000 NA
ATOM     18  C   UNL     1      53.328   1.233  17.535  0.00  0.00    +0.000 C 
ENDBRANCH  12  18
ENDBRANCH   8  14
ENDBRANCH   7  10
ENDBRANCH   1   7
BRANCH   4  19
ATOM     19  C   UNL     1      48.178   8.172  12.087  0.00  0.00    +0.000 C 
BRANCH  19  20
ATOM     20  N   UNL     1      47.503   7.049  11.470  0.00  0.00    +0.000 N 
ATOM     21  C   UNL     1      46.136   6.955  11.432  0.00  0.00    +0.000 C 
ATOM     22  O   UNL     1      45.409   7.856  11.842  0.00  0.00    +0.000 OA
ATOM     23  H   UNL     1      48.064   6.209  11.367  0.00  0.00    +0.000 HD
BRANCH  21  24
ATOM     24  C   UNL     1      45.577   5.751  10.803  0.00  0.00    +0.000 A 
ATOM     25  C   UNL     1      45.772   5.531   9.445  0.00  0.00    +0.000 A 
ATOM     26  S   UNL     1      45.105   4.064   8.887  0.00  0.00    +0.000 S 
ATOM     27  C   UNL     1      44.486   3.696  10.428  0.00  0.00    +0.000 A 
ATOM     28  N   UNL     1      43.769   2.560  10.642  0.00  0.00    +0.000 NA
ATOM     29  C   UNL     1      43.331   2.425  11.849  0.00  0.00    +0.000 A 
ATOM     30  N   UNL     1      43.550   3.319  12.864  0.00  0.00    +0.000 N 
ATOM     31  C   UNL     1      44.296   4.463  12.703  0.00  0.00    +0.000 A 
ATOM     32  O   UNL     1      44.516   5.220  13.642  0.00  0.00    +0.000 OA
ATOM     33  C   UNL     1      44.799   4.670  11.359  0.00  0.00    +0.000 A 
ATOM     34  H   UNL     1      43.188   3.152  13.790  0.00  0.00    +0.000 HD
ENDBRANCH  21  24
ENDBRANCH  19  20
ENDBRANCH   4  19
TORSDOF 7
ENDMDL
MODEL 8
REMARK VINA RESULT:    -6.112      3.375      4.875
REMARK INTER + INTRA:          -9.733
REMARK INTER:                  -8.633
REMARK INTRA:                  -1.100
REMARK UNBOUND:                -1.120
REMARK  Name = 
REMARK  7 active torsions:
REMARK  status: ('A' for Active; 'I' for Inactive)
REMARK    1  A    between atoms: C_2  and  C_3
REMARK    2  A    between atoms: C_5  and  C_6
REMARK    3  A    between atoms: N_8  and  C_9
REMARK    4  A    between atoms: C_9  and  C_10
REMARK    5  A    between atoms: C_13  and  C_14
REMARK    6  A    between atoms: C_14  and  N_15
REMARK    7  A    between atoms: C_16  and  C_18
REMARK                            x       y       z     vdW  Elec       q    Type
REMARK                         _______ _______ _______ _____ _____    ______ ____
ROOT
ATOM      1  C   UNL     1      45.878   7.003  11.947  0.00  0.00    +0.000 A 
ATOM      2  C   UNL     1      46.973   6.251  12.381  0.00  0.00    +0.000 A 
ATOM      3  C   UNL     1      47.868   6.792  13.303  0.00  0.00    +0.000 A 
ATOM      4  C   UNL     1      47.636   8.073  13.801  0.00  0.00    +0.000 A 
ATOM      5  N   UNL     1      46.577   8.819  13.397  0.00  0.00    +0.000 NA
ATOM      6  C   UNL     1      45.730   8.272  12.492  0.00  0.00    +0.000 A 
ENDROOT
BRANCH   1   7
ATOM      7  C   UNL     1      44.901   6.462  10.946  0.00  0.00    +0.000 C 
BRANCH   7  10
ATOM      8  C   UNL     1      44.643   4.431   9.605  0.00  0.00    +0.000 C 
ATOM      9  O   UNL     1      43.425   4.446   9.758  0.00  0.00    +0.000 OA
ATOM     10  N   UNL     1      45.464   5.389  10.158  0.00  0.00    +0.000 N 
ATOM     11  H   UNL     1      46.458   5.381   9.998  0.00  0.00    +0.000 HD
BRANCH   8  14
ATOM     12  C   UNL     1      46.681   2.324   7.223  0.00  0.00    +0.000 A 
ATOM     13  C   UNL     1      46.233   3.533   7.721  0.00  0.00    +0.000 A 
ATOM     14  C   UNL     1      45.314   3.387   8.821  0.00  0.00    +0.000 A 
ATOM     15  C   UNL     1      45.116   2.042   9.093  0.00  0.00    +0.000 A 
ATOM     16  S   UNL     1      46.002   1.005   8.063  0.00  0.00    +0.000 S 
BRANCH  12  18
ATOM     17  N   UNL     1      48.361   2.084   5.271  0.00  0.00    +0.000 NA
ATOM     18  C   UNL     1      47.601   2.179   6.140  0.00  0.00    +0.000 C 
ENDBRANCH  12  18
ENDBRANCH   8  14
ENDBRANCH   7  10
ENDBRANCH   1   7
BRANCH   4  19
ATOM     19  C   UNL     1      48.604   8.697  14.783  0.00  0.00    +0.000 C 
BRANCH  19  20
ATOM     20  N   UNL     1      49.907   8.906  14.186  0.00  0.00    +0.000 N 
ATOM     21  C   UNL     1      50.998   8.157  14.542  0.00  0.00    +0.000 C 
ATOM     22  O   UNL     1      50.914   7.213  15.324  0.00  0.00    +0.000 OA
ATOM     23  H   UNL     1      50.045   9.814  13.753  0.00  0.00    +0.000 HD
BRANCH  21  24
ATOM     24  C   UNL     1      52.267   8.489  13.882  0.00  0.00    +0.000 A 
ATOM     25  C   UNL     1      53.368   8.848  14.649  0.00  0.00    +0.000 A 
ATOM     26  S   UNL     1      54.774   9.148  13.731  0.00  0.00    +0.000 S 
ATOM     27  C   UNL     1      53.948   8.861  12.272  0.00  0.00    +0.000 A 
ATOM     28  N   UNL     1      54.582   8.976  11.074  0.00  0.00    +0.000 NA
ATOM     29  C   UNL     1      53.827   8.765  10.048  0.00  0.00    +0.000 A 
ATOM     30  N   UNL     1      52.496   8.442  10.112  0.00  0.00    +0.000 N 
ATOM     31  C   UNL     1      51.822   8.282  11.300  0.00  0.00    +0.000 A 
ATOM     32  O   UNL     1      50.643   7.944  11.326  0.00  0.00    +0.000 OA
ATOM     33  C   UNL     1      52.623   8.524  12.484  0.00  0.00    +0.000 A 
ATOM     34  H   UNL     1      51.961   8.278   9.272  0.00  0.00    +0.000 HD
ENDBRANCH  21  24
ENDBRANCH  19  20
ENDBRANCH   4  19
TORSDOF 7
ENDMDL
MODEL 9
REMARK VINA RESULT:    -5.937      3.009      4.318
REMARK INTER + INTRA:          -9.487
REMARK INTER:                  -8.474
REMARK INTRA:                  -1.013
REMARK UNBOUND:                -1.120
REMARK  Name = 
REMARK  7 active torsions:
REMARK  status: ('A' for Active; 'I' for Inactive)
REMARK    1  A    between atoms: C_2  and  C_3
REMARK    2  A    between atoms: C_5  and  C_6
REMARK    3  A    between atoms: N_8  and  C_9
REMARK    4  A    between atoms: C_9  and  C_10
REMARK    5  A    between atoms: C_13  and  C_14
REMARK    6  A    between atoms: C_14  and  N_15
REMARK    7  A    between atoms: C_16  and  C_18
REMARK                            x       y       z     vdW  Elec       q    Type
REMARK                         _______ _______ _______ _____ _____    ______ ____
ROOT
ATOM      1  C   UNL     1      48.615   8.274  13.616  0.00  0.00    +0.000 A 
ATOM      2  C   UNL     1      48.989   7.053  14.181  0.00  0.00    +0.000 A 
ATOM      3  C   UNL     1      49.667   7.029  15.399  0.00  0.00    +0.000 A 
ATOM      4  C   UNL     1      49.936   8.231  16.050  0.00  0.00    +0.000 A 
ATOM      5  N   UNL     1      49.578   9.428  15.521  0.00  0.00    +0.000 NA
ATOM      6  C   UNL     1      48.930   9.423  14.331  0.00  0.00    +0.000 A 
ENDROOT
BRANCH   1   7
ATOM      7  C   UNL     1      47.897   8.344  12.301  0.00  0.00    +0.000 C 
BRANCH   7  10
ATOM      8  C   UNL     1      45.811   7.064  12.321  0.00  0.00    +0.000 C 
ATOM      9  O   UNL     1      45.204   8.000  12.833  0.00  0.00    +0.000 OA
ATOM     10  N   UNL     1      47.153   7.138  12.019  0.00  0.00    +0.000 N 
ATOM     11  H   UNL     1      47.631   6.372  11.571  0.00  0.00    +0.000 HD
BRANCH   8  14
ATOM     12  C   UNL     1      44.538   3.822  10.862  0.00  0.00    +0.000 A 
ATOM     13  C   UNL     1      45.324   4.957  10.835  0.00  0.00    +0.000 A 
ATOM     14  C   UNL     1      45.149   5.796  11.993  0.00  0.00    +0.000 A 
ATOM     15  C   UNL     1      44.214   5.229  12.846  0.00  0.00    +0.000 A 
ATOM     16  S   UNL     1      43.579   3.751  12.270  0.00  0.00    +0.000 S 
BRANCH  12  18
ATOM     17  N   UNL     1      44.531   2.003   9.021  0.00  0.00    +0.000 NA
ATOM     18  C   UNL     1      44.518   2.818   9.845  0.00  0.00    +0.000 C 
ENDBRANCH  12  18
ENDBRANCH   8  14
ENDBRANCH   7  10
ENDBRANCH   1   7
BRANCH   4  19
ATOM     19  C   UNL     1      50.694   8.237  17.360  0.00  0.00    +0.000 C 
BRANCH  19  20
ATOM     20  N   UNL     1      51.420   7.001  17.560  0.00  0.00    +0.000 N 
ATOM     21  C   UNL     1      51.164   6.172  18.621  0.00  0.00    +0.000 C 
ATOM     22  O   UNL     1      50.249   6.388  19.413  0.00  0.00    +0.000 OA
ATOM     23  H   UNL     1      52.316   6.942  17.086  0.00  0.00    +0.000 HD
BRANCH  21  24
ATOM     24  C   UNL     1      51.991   4.962  18.725  0.00  0.00    +0.000 A 
ATOM     25  C   UNL     1      53.197   5.010  19.414  0.00  0.00    +0.000 A 
ATOM     26  S   UNL     1      54.004   3.509  19.486  0.00  0.00    +0.000 S 
ATOM     27  C   UNL     1      52.797   2.755  18.554  0.00  0.00    +0.000 A 
ATOM     28  N   UNL     1      52.891   1.438  18.221  0.00  0.00    +0.000 NA
ATOM     29  C   UNL     1      51.924   1.006  17.483  0.00  0.00    +0.000 A 
ATOM     30  N   UNL     1      50.869   1.767  17.052  0.00  0.00    +0.000 N 
ATOM     31  C   UNL     1      50.716   3.091  17.391  0.00  0.00    +0.000 A 
ATOM     32  O   UNL     1      49.735   3.733  17.031  0.00  0.00    +0.000 OA
ATOM     33  C   UNL     1      51.785   3.630  18.208  0.00  0.00    +0.000 A 
ATOM     34  H   UNL     1      50.138   1.367  16.484  0.00  0.00    +0.000 HD
ENDBRANCH  21  24
ENDBRANCH  19  20
ENDBRANCH   4  19
TORSDOF 7
ENDMDL
