MODEL 1
REMARK VINA RESULT:    -7.040      0.000      0.000
REMARK INTER + INTRA:         -10.215
REMARK INTER:                  -9.098
REMARK INTRA:                  -1.117
REMARK UNBOUND:                -1.117
REMARK  Name = 
REMARK  6 active torsions:
REMARK  status: ('A' for Active; 'I' for Inactive)
REMARK    1  A    between atoms: C_1  and  N_2
REMARK    2  A    between atoms: N_2  and  C_3
REMARK    3  A    between atoms: C_3  and  C_4
REMARK    4  A    between atoms: C_7  and  C_8
REMARK    5  A    between atoms: C_8  and  N_9
REMARK    6  A    between atoms: C_16  and  C_18
REMARK                            x       y       z     vdW  Elec       q    Type
REMARK                         _______ _______ _______ _____ _____    ______ ____
ROOT
ATOM      1  C   UNL     1      46.073   8.594  12.274  0.00  0.00    +0.000 C 
ATOM      2  N   UNL     1      45.909   7.150  12.166  0.00  0.00    +0.000 N 
ATOM      3  C   UNL     1      44.691   6.697  11.624  0.00  0.00    +0.000 C 
ATOM      4  O   UNL     1      43.816   7.482  11.263  0.00  0.00    +0.000 OA
ENDROOT
BRANCH   3   5
ATOM      5  C   UNL     1      44.438   5.251  11.537  0.00  0.00    +0.000 A 
ATOM      6  C   UNL     1      43.710   4.526  12.466  0.00  0.00    +0.000 A 
ATOM      7  S   UNL     1      43.522   2.880  12.057  0.00  0.00    +0.000 S 
ATOM      8  C   UNL     1      44.263   3.120  10.546  0.00  0.00    +0.000 A 
ATOM      9  N   UNL     1      44.322   2.119   9.629  0.00  0.00    +0.000 NA
ATOM     10  C   UNL     1      44.845   2.466   8.498  0.00  0.00    +0.000 A 
ATOM     11  N   UNL     1      45.359   3.706   8.226  0.00  0.00    +0.000 N 
ATOM     12  C   UNL     1      45.450   4.706   9.174  0.00  0.00    +0.000 A 
ATOM     13  O   UNL     1      46.134   5.706   8.977  0.00  0.00    +0.000 OA
ATOM     14  C   UNL     1      44.753   4.405  10.408  0.00  0.00    +0.000 A 
ATOM     15  H   UNL     1      45.826   3.888   7.351  0.00  0.00    +0.000 HD
ENDBRANCH   3   5
BRANCH   2  16
ATOM     16  C   UNL     1      47.069   6.270  12.329  0.00  0.00    +0.000 C 
BRANCH  16  17
ATOM     17  C   UNL     1      47.475   5.836  13.716  0.00  0.00    +0.000 A 
ATOM     18  C   UNL     1      48.365   6.619  14.467  0.00  0.00    +0.000 A 
ATOM     19  C   UNL     1      48.658   6.290  15.792  0.00  0.00    +0.000 A 
ATOM     20  C   UNL     1      48.079   5.165  16.394  0.00  0.00    +0.000 A 
ATOM     21  C   UNL     1      47.210   4.369  15.633  0.00  0.00    +0.000 A 
ATOM     22  C   UNL     1      46.911   4.700  14.307  0.00  0.00    +0.000 A 
BRANCH  20  23
ATOM     23  C   UNL     1      48.430   4.784  17.820  0.00  0.00    +0.000 C 
BRANCH  23  24
ATOM     24  N   UNL     1      48.683   5.938  18.688  0.00  0.00    +0.000 NA
ATOM     25  C   UNL     1      47.490   6.436  19.371  0.00  0.00    +0.000 C 
ATOM     26  C   UNL     1      47.554   5.887  20.781  0.00  0.00    +0.000 C 
ATOM     27  O   UNL     1      48.916   5.551  21.027  0.00  0.00    +0.000 OA
ATOM     28  C   UNL     1      49.596   5.588  19.775  0.00  0.00    +0.000 C 
ENDBRANCH  23  24
ENDBRANCH  20  23
ENDBRANCH  16  17
ENDBRANCH   2  16
TORSDOF 5
ENDMDL
MODEL 2
REMARK VINA RESULT:    -6.091      3.590      8.568
REMARK INTER + INTRA:          -8.988
REMARK INTER:                  -8.072
REMARK INTRA:                  -0.917
REMARK UNBOUND:                -1.117
REMARK  Name = 
REMARK  6 active torsions:
REMARK  status: ('A' for Active; 'I' for Inactive)
REMARK    1  A    between atoms: C_1  and  N_2
REMARK    2  A    between atoms: N_2  and  C_3
REMARK    3  A    between atoms: C_3  and  C_4
REMARK    4  A    between atoms: C_7  and  C_8
REMARK    5  A    between atoms: C_8  and  N_9
REMARK    6  A    between atoms: C_16  and  C_18
REMARK                            x       y       z     vdW  Elec       q    Type
REMARK                         _______ _______ _______ _____ _____    ______ ____
ROOT
ATOM      1  C   UNL     1      48.045   7.130  18.471  0.00  0.00    +0.000 C 
ATOM      2  N   UNL     1      49.259   6.479  17.995  0.00  0.00    +0.000 N 
ATOM      3  C   UNL     1      49.897   5.606  18.897  0.00  0.00    +0.000 C 
ATOM      4  O   UNL     1      49.448   5.406  20.025  0.00  0.00    +0.000 OA
ENDROOT
BRANCH   3   5
ATOM      5  C   UNL     1      51.155   4.957  18.501  0.00  0.00    +0.000 A 
ATOM      6  C   UNL     1      52.411   5.520  18.662  0.00  0.00    +0.000 A 
ATOM      7  S   UNL     1      53.688   4.498  18.176  0.00  0.00    +0.000 S 
ATOM      8  C   UNL     1      52.615   3.211  17.893  0.00  0.00    +0.000 A 
ATOM      9  N   UNL     1      53.077   1.976  17.563  0.00  0.00    +0.000 NA
ATOM     10  C   UNL     1      52.154   1.077  17.451  0.00  0.00    +0.000 A 
ATOM     11  N   UNL     1      50.812   1.317  17.590  0.00  0.00    +0.000 N 
ATOM     12  C   UNL     1      50.291   2.581  17.783  0.00  0.00    +0.000 A 
ATOM     13  O   UNL     1      49.091   2.799  17.654  0.00  0.00    +0.000 OA
ATOM     14  C   UNL     1      51.296   3.591  18.050  0.00  0.00    +0.000 A 
ATOM     15  H   UNL     1      50.139   0.588  17.412  0.00  0.00    +0.000 HD
ENDBRANCH   3   5
BRANCH   2  16
ATOM     16  C   UNL     1      49.594   6.512  16.569  0.00  0.00    +0.000 C 
BRANCH  16  17
ATOM     17  C   UNL     1      48.555   6.089  15.559  0.00  0.00    +0.000 A 
ATOM     18  C   UNL     1      48.388   6.819  14.372  0.00  0.00    +0.000 A 
ATOM     19  C   UNL     1      47.513   6.372  13.380  0.00  0.00    +0.000 A 
ATOM     20  C   UNL     1      46.775   5.194  13.555  0.00  0.00    +0.000 A 
ATOM     21  C   UNL     1      46.924   4.480  14.754  0.00  0.00    +0.000 A 
ATOM     22  C   UNL     1      47.805   4.923  15.747  0.00  0.00    +0.000 A 
BRANCH  20  23
ATOM     23  C   UNL     1      45.794   4.731  12.495  0.00  0.00    +0.000 C 
BRANCH  23  24
ATOM     24  N   UNL     1      44.521   4.253  13.044  0.00  0.00    +0.000 NA
ATOM     25  C   UNL     1      43.444   5.239  12.981  0.00  0.00    +0.000 C 
ATOM     26  C   UNL     1      42.594   4.858  11.787  0.00  0.00    +0.000 C 
ATOM     27  O   UNL     1      42.861   3.485  11.518  0.00  0.00    +0.000 OA
ATOM     28  C   UNL     1      44.011   3.119  12.276  0.00  0.00    +0.000 C 
ENDBRANCH  23  24
ENDBRANCH  20  23
ENDBRANCH  16  17
ENDBRANCH   2  16
TORSDOF 5
ENDMDL
MODEL 3
REMARK VINA RESULT:    -5.991      3.010      7.865
REMARK INTER + INTRA:          -8.858
REMARK INTER:                  -7.637
REMARK INTRA:                  -1.221
REMARK UNBOUND:                -1.117
REMARK  Name = 
REMARK  6 active torsions:
REMARK  status: ('A' for Active; 'I' for Inactive)
REMARK    1  A    between atoms: C_1  and  N_2
REMARK    2  A    between atoms: N_2  and  C_3
REMARK    3  A    between atoms: C_3  and  C_4
REMARK    4  A    between atoms: C_7  and  C_8
REMARK    5  A    between atoms: C_8  and  N_9
REMARK    6  A    between atoms: C_16  and  C_18
REMARK                            x       y       z     vdW  Elec       q    Type
REMARK                         _______ _______ _______ _____ _____    ______ ____
ROOT
ATOM      1  C   UNL     1      47.897   9.396  17.719  0.00  0.00    +0.000 C 
ATOM      2  N   UNL     1      48.819   8.337  17.328  0.00  0.00    +0.000 N 
ATOM      3  C   UNL     1      48.906   7.230  18.194  0.00  0.00    +0.000 C 
ATOM      4  O   UNL     1      48.238   7.166  19.225  0.00  0.00    +0.000 OA
ENDROOT
BRANCH   3   5
ATOM      5  C   UNL     1      49.856   6.151  17.887  0.00  0.00    +0.000 A 
ATOM      6  C   UNL     1      51.221   6.222  18.109  0.00  0.00    +0.000 A 
ATOM      7  S   UNL     1      52.055   4.785  17.722  0.00  0.00    +0.000 S 
ATOM      8  C   UNL     1      50.599   3.968  17.405  0.00  0.00    +0.000 A 
ATOM      9  N   UNL     1      50.590   2.637  17.130  0.00  0.00    +0.000 NA
ATOM     10  C   UNL     1      49.408   2.134  16.984  0.00  0.00    +0.000 A 
ATOM     11  N   UNL     1      48.244   2.853  17.038  0.00  0.00    +0.000 N 
ATOM     12  C   UNL     1      48.214   4.227  17.173  0.00  0.00    +0.000 A 
ATOM     13  O   UNL     1      47.185   4.862  16.968  0.00  0.00    +0.000 OA
ATOM     14  C   UNL     1      49.506   4.810  17.475  0.00  0.00    +0.000 A 
ATOM     15  H   UNL     1      47.358   2.414  16.837  0.00  0.00    +0.000 HD
ENDBRANCH   3   5
BRANCH   2  16
ATOM     16  C   UNL     1      49.367   8.312  15.969  0.00  0.00    +0.000 C 
BRANCH  16  17
ATOM     17  C   UNL     1      48.470   7.920  14.820  0.00  0.00    +0.000 A 
ATOM     18  C   UNL     1      48.454   6.594  14.361  0.00  0.00    +0.000 A 
ATOM     19  C   UNL     1      47.546   6.194  13.378  0.00  0.00    +0.000 A 
ATOM     20  C   UNL     1      46.643   7.111  12.822  0.00  0.00    +0.000 A 
ATOM     21  C   UNL     1      46.679   8.441  13.265  0.00  0.00    +0.000 A 
ATOM     22  C   UNL     1      47.584   8.843  14.254  0.00  0.00    +0.000 A 
BRANCH  20  23
ATOM     23  C   UNL     1      45.686   6.685  11.725  0.00  0.00    +0.000 C 
BRANCH  23  24
ATOM     24  N   UNL     1      45.072   5.375  11.960  0.00  0.00    +0.000 NA
ATOM     25  C   UNL     1      43.874   5.425  12.795  0.00  0.00    +0.000 C 
ATOM     26  C   UNL     1      42.696   5.343  11.846  0.00  0.00    +0.000 C 
ATOM     27  O   UNL     1      43.185   4.768  10.638  0.00  0.00    +0.000 OA
ATOM     28  C   UNL     1      44.609   4.780  10.708  0.00  0.00    +0.000 C 
ENDBRANCH  23  24
ENDBRANCH  20  23
ENDBRANCH  16  17
ENDBRANCH   2  16
TORSDOF 5
ENDMDL
MODEL 4
REMARK VINA RESULT:    -5.927      3.258      7.812
REMARK INTER + INTRA:          -8.777
REMARK INTER:                  -7.569
REMARK INTRA:                  -1.208
REMARK UNBOUND:                -1.117
REMARK  Name = 
REMARK  6 active torsions:
REMARK  status: ('A' for Active; 'I' for Inactive)
REMARK    1  A    between atoms: C_1  and  N_2
REMARK    2  A    between atoms: N_2  and  C_3
REMARK    3  A    between atoms: C_3  and  C_4
REMARK    4  A    between atoms: C_7  and  C_8
REMARK    5  A    between atoms: C_8  and  N_9
REMARK    6  A    between atoms: C_16  and  C_18
REMARK                            x       y       z     vdW  Elec       q    Type
REMARK                         _______ _______ _______ _____ _____    ______ ____
ROOT
ATOM      1  C   UNL     1      50.879   9.352  14.099  0.00  0.00    +0.000 C 
ATOM      2  N   UNL     1      49.851   9.003  15.071  0.00  0.00    +0.000 N 
ATOM      3  C   UNL     1      50.294   8.733  16.381  0.00  0.00    +0.000 C 
ATOM      4  O   UNL     1      51.485   8.791  16.682  0.00  0.00    +0.000 OA
ENDROOT
BRANCH   3   5
ATOM      5  C   UNL     1      49.316   8.322  17.399  0.00  0.00    +0.000 A 
ATOM      6  C   UNL     1      48.619   9.199  18.215  0.00  0.00    +0.000 A 
ATOM      7  S   UNL     1      47.498   8.431  19.247  0.00  0.00    +0.000 S 
ATOM      8  C   UNL     1      47.786   6.923  18.519  0.00  0.00    +0.000 A 
ATOM      9  N   UNL     1      47.052   5.831  18.858  0.00  0.00    +0.000 NA
ATOM     10  C   UNL     1      47.329   4.771  18.172  0.00  0.00    +0.000 A 
ATOM     11  N   UNL     1      48.308   4.696  17.216  0.00  0.00    +0.000 N 
ATOM     12  C   UNL     1      49.171   5.738  16.942  0.00  0.00    +0.000 A 
ATOM     13  O   UNL     1      50.183   5.563  16.271  0.00  0.00    +0.000 OA
ATOM     14  C   UNL     1      48.807   6.982  17.590  0.00  0.00    +0.000 A 
ATOM     15  H   UNL     1      48.527   3.817  16.773  0.00  0.00    +0.000 HD
ENDBRANCH   3   5
BRANCH   2  16
ATOM     16  C   UNL     1      48.439   9.229  14.754  0.00  0.00    +0.000 C 
BRANCH  16  17
ATOM     17  C   UNL     1      47.730   8.270  13.829  0.00  0.00    +0.000 A 
ATOM     18  C   UNL     1      48.198   6.955  13.683  0.00  0.00    +0.000 A 
ATOM     19  C   UNL     1      47.484   6.027  12.923  0.00  0.00    +0.000 A 
ATOM     20  C   UNL     1      46.294   6.393  12.279  0.00  0.00    +0.000 A 
ATOM     21  C   UNL     1      45.842   7.715  12.405  0.00  0.00    +0.000 A 
ATOM     22  C   UNL     1      46.552   8.645  13.173  0.00  0.00    +0.000 A 
BRANCH  20  23
ATOM     23  C   UNL     1      45.542   5.396  11.419  0.00  0.00    +0.000 C 
BRANCH  23  24
ATOM     24  N   UNL     1      44.166   5.157  11.866  0.00  0.00    +0.000 NA
ATOM     25  C   UNL     1      43.391   4.306  10.965  0.00  0.00    +0.000 C 
ATOM     26  C   UNL     1      43.391   2.926  11.587  0.00  0.00    +0.000 C 
ATOM     27  O   UNL     1      43.686   3.101  12.969  0.00  0.00    +0.000 OA
ATOM     28  C   UNL     1      44.144   4.440  13.140  0.00  0.00    +0.000 C 
ENDBRANCH  23  24
ENDBRANCH  20  23
ENDBRANCH  16  17
ENDBRANCH   2  16
TORSDOF 5
ENDMDL
MODEL 5
REMARK VINA RESULT:    -5.539      3.742      8.409
REMARK INTER + INTRA:          -8.274
REMARK INTER:                  -8.333
REMARK INTRA:                   0.059
REMARK UNBOUND:                -1.117
REMARK  Name = 
REMARK  6 active torsions:
REMARK  status: ('A' for Active; 'I' for Inactive)
REMARK    1  A    between atoms: C_1  and  N_2
REMARK    2  A    between atoms: N_2  and  C_3
REMARK    3  A    between atoms: C_3  and  C_4
REMARK    4  A    between atoms: C_7  and  C_8
REMARK    5  A    between atoms: C_8  and  N_9
REMARK    6  A    between atoms: C_16  and  C_18
REMARK                            x       y       z     vdW  Elec       q    Type
REMARK                         _______ _______ _______ _____ _____    ______ ____
ROOT
ATOM      1  C   UNL     1      46.581   4.342  14.332  0.00  0.00    +0.000 C 
ATOM      2  N   UNL     1      46.251   5.582  13.641  0.00  0.00    +0.000 N 
ATOM      3  C   UNL     1      47.279   6.540  13.548  0.00  0.00    +0.000 C 
ATOM      4  O   UNL     1      48.394   6.336  14.026  0.00  0.00    +0.000 OA
ENDROOT
BRANCH   3   5
ATOM      5  C   UNL     1      46.998   7.835  12.911  0.00  0.00    +0.000 A 
ATOM      6  C   UNL     1      45.816   8.542  13.061  0.00  0.00    +0.000 A 
ATOM      7  S   UNL     1      45.811  10.049  12.261  0.00  0.00    +0.000 S 
ATOM      8  C   UNL     1      47.446   9.880  11.828  0.00  0.00    +0.000 A 
ATOM      9  N   UNL     1      48.114  10.890  11.214  0.00  0.00    +0.000 NA
ATOM     10  C   UNL     1      49.369  10.651  11.013  0.00  0.00    +0.000 A 
ATOM     11  N   UNL     1      49.997   9.474  11.325  0.00  0.00    +0.000 N 
ATOM     12  C   UNL     1      49.326   8.372  11.817  0.00  0.00    +0.000 A 
ATOM     13  O   UNL     1      49.859   7.268  11.849  0.00  0.00    +0.000 OA
ATOM     14  C   UNL     1      47.951   8.643  12.183  0.00  0.00    +0.000 A 
ATOM     15  H   UNL     1      50.960   9.323  11.069  0.00  0.00    +0.000 HD
ENDBRANCH   3   5
BRANCH   2  16
ATOM     16  C   UNL     1      45.027   5.668  12.841  0.00  0.00    +0.000 C 
BRANCH  16  17
ATOM     17  C   UNL     1      45.030   5.132  11.430  0.00  0.00    +0.000 A 
ATOM     18  C   UNL     1      45.692   5.834  10.411  0.00  0.00    +0.000 A 
ATOM     19  C   UNL     1      45.800   5.292   9.129  0.00  0.00    +0.000 A 
ATOM     20  C   UNL     1      45.239   4.043   8.831  0.00  0.00    +0.000 A 
ATOM     21  C   UNL     1      44.555   3.355   9.845  0.00  0.00    +0.000 A 
ATOM     22  C   UNL     1      44.451   3.894  11.132  0.00  0.00    +0.000 A 
BRANCH  20  23
ATOM     23  C   UNL     1      45.321   3.473   7.428  0.00  0.00    +0.000 C 
BRANCH  23  24
ATOM     24  N   UNL     1      46.695   3.276   6.955  0.00  0.00    +0.000 NA
ATOM     25  C   UNL     1      47.400   2.187   7.630  0.00  0.00    +0.000 C 
ATOM     26  C   UNL     1      47.348   1.004   6.685  0.00  0.00    +0.000 C 
ATOM     27  O   UNL     1      47.100   1.531   5.385  0.00  0.00    +0.000 OA
ATOM     28  C   UNL     1      46.716   2.894   5.545  0.00  0.00    +0.000 C 
ENDBRANCH  23  24
ENDBRANCH  20  23
ENDBRANCH  16  17
ENDBRANCH   2  16
TORSDOF 5
ENDMDL
MODEL 6
REMARK VINA RESULT:    -5.494      3.128      8.932
REMARK INTER + INTRA:          -8.217
REMARK INTER:                  -7.354
REMARK INTRA:                  -0.862
REMARK UNBOUND:                -1.117
REMARK  Name = 
REMARK  6 active torsions:
REMARK  status: ('A' for Active; 'I' for Inactive)
REMARK    1  A    between atoms: C_1  and  N_2
REMARK    2  A    between atoms: N_2  and  C_3
REMARK    3  A    between atoms: C_3  and  C_4
REMARK    4  A    between atoms: C_7  and  C_8
REMARK    5  A    between atoms: C_8  and  N_9
REMARK    6  A    between atoms: C_16  and  C_18
REMARK                            x       y       z     vdW  Elec       q    Type
REMARK                         _______ _______ _______ _____ _____    ______ ____
ROOT
ATOM      1  C   UNL     1      47.775   7.061  18.745  0.00  0.00    +0.000 C 
ATOM      2  N   UNL     1      48.807   6.162  18.246  0.00  0.00    +0.000 N 
ATOM      3  C   UNL     1      49.057   5.007  19.012  0.00  0.00    +0.000 C 
ATOM      4  O   UNL     1      48.433   4.775  20.047  0.00  0.00    +0.000 OA
ENDROOT
BRANCH   3   5
ATOM      5  C   UNL     1      50.123   4.084  18.595  0.00  0.00    +0.000 A 
ATOM      6  C   UNL     1      49.913   2.920  17.875  0.00  0.00    +0.000 A 
ATOM      7  S   UNL     1      51.350   2.094  17.471  0.00  0.00    +0.000 S 
ATOM      8  C   UNL     1      52.307   3.351  18.100  0.00  0.00    +0.000 A 
ATOM      9  N   UNL     1      53.658   3.334  17.967  0.00  0.00    +0.000 NA
ATOM     10  C   UNL     1      54.250   4.389  18.425  0.00  0.00    +0.000 A 
ATOM     11  N   UNL     1      53.613   5.430  19.046  0.00  0.00    +0.000 N 
ATOM     12  C   UNL     1      52.262   5.423  19.330  0.00  0.00    +0.000 A 
ATOM     13  O   UNL     1      51.771   6.242  20.100  0.00  0.00    +0.000 OA
ATOM     14  C   UNL     1      51.543   4.325  18.714  0.00  0.00    +0.000 A 
ATOM     15  H   UNL     1      54.141   6.187  19.452  0.00  0.00    +0.000 HD
ENDBRANCH   3   5
BRANCH   2  16
ATOM     16  C   UNL     1      49.313   6.318  16.879  0.00  0.00    +0.000 C 
BRANCH  16  17
ATOM     17  C   UNL     1      48.468   5.842  15.723  0.00  0.00    +0.000 A 
ATOM     18  C   UNL     1      47.721   4.659  15.836  0.00  0.00    +0.000 A 
ATOM     19  C   UNL     1      46.847   4.270  14.818  0.00  0.00    +0.000 A 
ATOM     20  C   UNL     1      46.709   5.047  13.659  0.00  0.00    +0.000 A 
ATOM     21  C   UNL     1      47.476   6.215  13.538  0.00  0.00    +0.000 A 
ATOM     22  C   UNL     1      48.347   6.609  14.559  0.00  0.00    +0.000 A 
BRANCH  20  23
ATOM     23  C   UNL     1      45.791   4.602  12.536  0.00  0.00    +0.000 C 
BRANCH  23  24
ATOM     24  N   UNL     1      44.467   4.173  12.998  0.00  0.00    +0.000 NA
ATOM     25  C   UNL     1      43.457   5.229  12.957  0.00  0.00    +0.000 C 
ATOM     26  C   UNL     1      42.641   4.982  11.705  0.00  0.00    +0.000 C 
ATOM     27  O   UNL     1      42.834   3.615  11.355  0.00  0.00    +0.000 OA
ATOM     28  C   UNL     1      43.923   3.127  12.134  0.00  0.00    +0.000 C 
ENDBRANCH  23  24
ENDBRANCH  20  23
ENDBRANCH  16  17
ENDBRANCH   2  16
TORSDOF 5
ENDMDL
MODEL 7
REMARK VINA RESULT:    -5.303      3.287      8.274
REMARK INTER + INTRA:          -7.970
REMARK INTER:                  -6.957
REMARK INTRA:                  -1.013
REMARK UNBOUND:                -1.117
REMARK  Name = 
REMARK  6 active torsions:
REMARK  status: ('A' for Active; 'I' for Inactive)
REMARK    1  A    between atoms: C_1  and  N_2
REMARK    2  A    between atoms: N_2  and  C_3
REMARK    3  A    between atoms: C_3  and  C_4
REMARK    4  A    between atoms: C_7  and  C_8
REMARK    5  A    between atoms: C_8  and  N_9
REMARK    6  A    between atoms: C_16  and  C_18
REMARK                            x       y       z     vdW  Elec       q    Type
REMARK                         _______ _______ _______ _____ _____    ______ ____
ROOT
ATOM      1  C   UNL     1      48.512   9.769  12.166  0.00  0.00    +0.000 C 
ATOM      2  N   UNL     1      48.145   9.384  13.522  0.00  0.00    +0.000 N 
ATOM      3  C   UNL     1      49.042   9.754  14.544  0.00  0.00    +0.000 C 
ATOM      4  O   UNL     1      50.078  10.370  14.298  0.00  0.00    +0.000 OA
ENDROOT
BRANCH   3   5
ATOM      5  C   UNL     1      48.759   9.350  15.929  0.00  0.00    +0.000 A 
ATOM      6  C   UNL     1      48.281  10.201  16.911  0.00  0.00    +0.000 A 
ATOM      7  S   UNL     1      47.978   9.428  18.401  0.00  0.00    +0.000 S 
ATOM      8  C   UNL     1      48.317   7.902  17.734  0.00  0.00    +0.000 A 
ATOM      9  N   UNL     1      48.132   6.766  18.457  0.00  0.00    +0.000 NA
ATOM     10  C   UNL     1      48.357   5.676  17.799  0.00  0.00    +0.000 A 
ATOM     11  N   UNL     1      48.799   5.626  16.503  0.00  0.00    +0.000 N 
ATOM     12  C   UNL     1      49.137   6.753  15.781  0.00  0.00    +0.000 A 
ATOM     13  O   UNL     1      49.759   6.668  14.727  0.00  0.00    +0.000 OA
ATOM     14  C   UNL     1      48.770   7.995  16.432  0.00  0.00    +0.000 A 
ATOM     15  H   UNL     1      49.031   4.744  16.073  0.00  0.00    +0.000 HD
ENDBRANCH   3   5
BRANCH   2  16
ATOM     16  C   UNL     1      46.785   8.919  13.806  0.00  0.00    +0.000 C 
BRANCH  16  17
ATOM     17  C   UNL     1      46.171   7.858  12.927  0.00  0.00    +0.000 A 
ATOM     18  C   UNL     1      46.641   6.537  12.983  0.00  0.00    +0.000 A 
ATOM     19  C   UNL     1      46.006   5.524  12.261  0.00  0.00    +0.000 A 
ATOM     20  C   UNL     1      44.894   5.809  11.457  0.00  0.00    +0.000 A 
ATOM     21  C   UNL     1      44.442   7.135  11.382  0.00  0.00    +0.000 A 
ATOM     22  C   UNL     1      45.074   8.150  12.109  0.00  0.00    +0.000 A 
BRANCH  20  23
ATOM     23  C   UNL     1      44.230   4.717  10.641  0.00  0.00    +0.000 C 
BRANCH  23  24
ATOM     24  N   UNL     1      45.181   3.860   9.925  0.00  0.00    +0.000 NA
ATOM     25  C   UNL     1      44.562   2.709   9.271  0.00  0.00    +0.000 C 
ATOM     26  C   UNL     1      44.432   3.077   7.808  0.00  0.00    +0.000 C 
ATOM     27  O   UNL     1      45.370   4.122   7.565  0.00  0.00    +0.000 OA
ATOM     28  C   UNL     1      45.825   4.587   8.833  0.00  0.00    +0.000 C 
ENDBRANCH  23  24
ENDBRANCH  20  23
ENDBRANCH  16  17
ENDBRANCH   2  16
TORSDOF 5
ENDMDL
MODEL 8
REMARK VINA RESULT:    -5.273      3.187      4.421
REMARK INTER + INTRA:          -7.931
REMARK INTER:                  -7.350
REMARK INTRA:                  -0.581
REMARK UNBOUND:                -1.117
REMARK  Name = 
REMARK  6 active torsions:
REMARK  status: ('A' for Active; 'I' for Inactive)
REMARK    1  A    between atoms: C_1  and  N_2
REMARK    2  A    between atoms: N_2  and  C_3
REMARK    3  A    between atoms: C_3  and  C_4
REMARK    4  A    between atoms: C_7  and  C_8
REMARK    5  A    between atoms: C_8  and  N_9
REMARK    6  A    between atoms: C_16  and  C_18
REMARK                            x       y       z     vdW  Elec       q    Type
REMARK                         _______ _______ _______ _____ _____    ______ ____
ROOT
ATOM      1  C   UNL     1      51.311   9.051  12.950  0.00  0.00    +0.000 C 
ATOM      2  N   UNL     1      49.877   9.022  13.212  0.00  0.00    +0.000 N 
ATOM      3  C   UNL     1      49.074   8.402  12.235  0.00  0.00    +0.000 C 
ATOM      4  O   UNL     1      49.562   7.913  11.217  0.00  0.00    +0.000 OA
ENDROOT
BRANCH   3   5
ATOM      5  C   UNL     1      47.614   8.386  12.410  0.00  0.00    +0.000 A 
ATOM      6  C   UNL     1      46.783   9.463  12.151  0.00  0.00    +0.000 A 
ATOM      7  S   UNL     1      45.126   9.120  12.376  0.00  0.00    +0.000 S 
ATOM      8  C   UNL     1      45.455   7.478  12.662  0.00  0.00    +0.000 A 
ATOM      9  N   UNL     1      44.447   6.579  12.813  0.00  0.00    +0.000 NA
ATOM     10  C   UNL     1      44.843   5.355  12.949  0.00  0.00    +0.000 A 
ATOM     11  N   UNL     1      46.155   4.963  12.999  0.00  0.00    +0.000 N 
ATOM     12  C   UNL     1      47.207   5.856  12.994  0.00  0.00    +0.000 A 
ATOM     13  O   UNL     1      48.343   5.499  13.289  0.00  0.00    +0.000 OA
ATOM     14  C   UNL     1      46.812   7.221  12.706  0.00  0.00    +0.000 A 
ATOM     15  H   UNL     1      46.396   4.002  13.186  0.00  0.00    +0.000 HD
ENDBRANCH   3   5
BRANCH   2  16
ATOM     16  C   UNL     1      49.373   9.346  14.548  0.00  0.00    +0.000 C 
BRANCH  16  17
ATOM     17  C   UNL     1      49.469   8.311  15.643  0.00  0.00    +0.000 A 
ATOM     18  C   UNL     1      48.635   8.395  16.767  0.00  0.00    +0.000 A 
ATOM     19  C   UNL     1      48.633   7.383  17.729  0.00  0.00    +0.000 A 
ATOM     20  C   UNL     1      49.475   6.269  17.596  0.00  0.00    +0.000 A 
ATOM     21  C   UNL     1      50.327   6.201  16.484  0.00  0.00    +0.000 A 
ATOM     22  C   UNL     1      50.325   7.212  15.517  0.00  0.00    +0.000 A 
BRANCH  20  23
ATOM     23  C   UNL     1      49.503   5.190  18.662  0.00  0.00    +0.000 C 
BRANCH  23  24
ATOM     24  N   UNL     1      48.524   4.122  18.440  0.00  0.00    +0.000 NA
ATOM     25  C   UNL     1      47.304   4.570  17.770  0.00  0.00    +0.000 C 
ATOM     26  C   UNL     1      47.451   4.167  16.318  0.00  0.00    +0.000 C 
ATOM     27  O   UNL     1      48.422   3.126  16.279  0.00  0.00    +0.000 OA
ATOM     28  C   UNL     1      49.061   3.093  17.553  0.00  0.00    +0.000 C 
ENDBRANCH  23  24
ENDBRANCH  20  23
ENDBRANCH  16  17
ENDBRANCH   2  16
TORSDOF 5
ENDMDL
MODEL 9
REMARK VINA RESULT:    -4.355      9.917     12.682
REMARK INTER + INTRA:          -6.745
REMARK INTER:                  -5.650
REMARK INTRA:                  -1.095
REMARK UNBOUND:                -1.117
REMARK  Name = 
REMARK  6 active torsions:
REMARK  status: ('A' for Active; 'I' for Inactive)
REMARK    1  A    between atoms: C_1  and  N_2
REMARK    2  A    between atoms: N_2  and  C_3
REMARK    3  A    between atoms: C_3  and  C_4
REMARK    4  A    between atoms: C_7  and  C_8
REMARK    5  A    between atoms: C_8  and  N_9
REMARK    6  A    between atoms: C_16  and  C_18
REMARK                            x       y       z     vdW  Elec       q    Type
REMARK                         _______ _______ _______ _____ _____    ______ ____
ROOT
ATOM      1  C   UNL     1      38.731  -2.946  19.770  0.00  0.00    +0.000 C 
ATOM      2  N   UNL     1      38.808  -1.895  18.762  0.00  0.00    +0.000 N 
ATOM      3  C   UNL     1      37.731  -0.988  18.719  0.00  0.00    +0.000 C 
ATOM      4  O   UNL     1      36.779  -1.082  19.493  0.00  0.00    +0.000 OA
ENDROOT
BRANCH   3   5
ATOM      5  C   UNL     1      37.720   0.064  17.692  0.00  0.00    +0.000 A 
ATOM      6  C   UNL     1      37.144  -0.071  16.439  0.00  0.00    +0.000 A 
ATOM      7  S   UNL     1      37.222   1.346  15.492  0.00  0.00    +0.000 S 
ATOM      8  C   UNL     1      37.878   2.233  16.785  0.00  0.00    +0.000 A 
ATOM      9  N   UNL     1      38.080   3.573  16.683  0.00  0.00    +0.000 NA
ATOM     10  C   UNL     1      38.512   4.129  17.767  0.00  0.00    +0.000 A 
ATOM     11  N   UNL     1      38.807   3.455  18.923  0.00  0.00    +0.000 N 
ATOM     12  C   UNL     1      38.753   2.079  19.026  0.00  0.00    +0.000 A 
ATOM     13  O   UNL     1      39.256   1.494  19.979  0.00  0.00    +0.000 OA
ATOM     14  C   UNL     1      38.144   1.433  17.880  0.00  0.00    +0.000 A 
ATOM     15  H   UNL     1      39.216   3.937  19.709  0.00  0.00    +0.000 HD
ENDBRANCH   3   5
BRANCH   2  16
ATOM     16  C   UNL     1      40.073  -1.642  18.068  0.00  0.00    +0.000 C 
BRANCH  16  17
ATOM     17  C   UNL     1      40.421  -2.462  16.850  0.00  0.00    +0.000 A 
ATOM     18  C   UNL     1      40.023  -2.034  15.575  0.00  0.00    +0.000 A 
ATOM     19  C   UNL     1      40.438  -2.722  14.432  0.00  0.00    +0.000 A 
ATOM     20  C   UNL     1      41.249  -3.860  14.538  0.00  0.00    +0.000 A 
ATOM     21  C   UNL     1      41.625  -4.300  15.815  0.00  0.00    +0.000 A 
ATOM     22  C   UNL     1      41.215  -3.609  16.961  0.00  0.00    +0.000 A 
BRANCH  20  23
ATOM     23  C   UNL     1      41.665  -4.630  13.299  0.00  0.00    +0.000 C 
BRANCH  23  24
ATOM     24  N   UNL     1      41.175  -6.012  13.277  0.00  0.00    +0.000 NA
ATOM     25  C   UNL     1      40.154  -6.259  12.260  0.00  0.00    +0.000 C 
ATOM     26  C   UNL     1      40.866  -6.933  11.106  0.00  0.00    +0.000 C 
ATOM     27  O   UNL     1      42.064  -7.490  11.634  0.00  0.00    +0.000 OA
ATOM     28  C   UNL     1      42.248  -6.945  12.939  0.00  0.00    +0.000 C 
ENDBRANCH  23  24
ENDBRANCH  20  23
ENDBRANCH  16  17
ENDBRANCH   2  16
TORSDOF 5
ENDMDL
