MODEL 1
REMARK VINA RESULT:    -9.180      0.000      0.000
REMARK INTER + INTRA:         -13.872
REMARK INTER:                 -13.205
REMARK INTRA:                  -0.667
REMARK UNBOUND:                -0.667
REMARK  Name = 
REMARK  9 active torsions:
REMARK  status: ('A' for Active; 'I' for Inactive)
REMARK    1  A    between atoms: C_1  and  C_2
REMARK    2  A    between atoms: C_2  and  N_3
REMARK    3  A    between atoms: C_2  and  C_21
REMARK    4  A    between atoms: N_3  and  C_4
REMARK    5  A    between atoms: C_4  and  C_5
REMARK    6  A    between atoms: C_8  and  C_9
REMARK    7  A    between atoms: C_9  and  O_10
REMARK    8  A    between atoms: C_9  and  C_11
REMARK    9  A    between atoms: C_11  and  N_12
REMARK                            x       y       z     vdW  Elec       q    Type
REMARK                         _______ _______ _______ _____ _____    ______ ____
ROOT
ATOM      1  C   UNL     1      46.805   5.287  13.627  0.00  0.00    +0.000 A 
ATOM      2  C   UNL     1      46.587   6.169  12.579  0.00  0.00    +0.000 A 
ATOM      3  C   UNL     1      45.588   5.881  11.655  0.00  0.00    +0.000 A 
ATOM      4  C   UNL     1      44.820   4.718  11.780  0.00  0.00    +0.000 A 
ATOM      5  C   UNL     1      45.111   3.895  12.863  0.00  0.00    +0.000 A 
ATOM      6  N   UNL     1      46.068   4.158  13.783  0.00  0.00    +0.000 NA
ENDROOT
BRANCH   1   7
ATOM      7  C   UNL     1      47.854   5.607  14.675  0.00  0.00    +0.000 C 
BRANCH   7   8
ATOM      8  N   UNL     1      48.209   4.450  15.500  0.00  0.00    +0.000 NA
ATOM      9  H   UNL     1      49.186   4.211  15.344  0.00  0.00    +0.000 HD
BRANCH   8  11
ATOM     10  C   UNL     1      46.966   3.659  17.510  0.00  0.00    +0.000 C 
ATOM     11  C   UNL     1      47.977   4.662  16.932  0.00  0.00    +0.000 C 
BRANCH  11  12
ATOM     12  C   UNL     1      49.324   4.521  17.617  0.00  0.00    +0.000 A 
ATOM     13  C   UNL     1      49.870   5.494  18.438  0.00  0.00    +0.000 A 
ATOM     14  S   UNL     1      51.422   5.106  19.025  0.00  0.00    +0.000 S 
ATOM     15  C   UNL     1      51.413   3.609  18.216  0.00  0.00    +0.000 A 
ATOM     16  N   UNL     1      52.482   2.770  18.289  0.00  0.00    +0.000 NA
ATOM     17  C   UNL     1      52.336   1.669  17.629  0.00  0.00    +0.000 A 
ATOM     18  N   UNL     1      51.218   1.327  16.912  0.00  0.00    +0.000 N 
ATOM     19  C   UNL     1      50.105   2.133  16.823  0.00  0.00    +0.000 A 
ATOM     20  O   UNL     1      49.107   1.775  16.206  0.00  0.00    +0.000 OA
ATOM     21  C   UNL     1      50.233   3.400  17.524  0.00  0.00    +0.000 A 
ATOM     22  H   UNL     1      51.166   0.439  16.437  0.00  0.00    +0.000 HD
ENDBRANCH  11  12
ENDBRANCH   8  11
ENDBRANCH   7   8
ENDBRANCH   1   7
BRANCH   4  23
ATOM     23  C   UNL     1      43.728   4.320  10.810  0.00  0.00    +0.000 C 
BRANCH  23  24
ATOM     24  O   UNL     1      43.263   5.491  10.121  0.00  0.00    +0.000 OA
ATOM     25  H   UNL     1      42.564   5.204   9.507  0.00  0.00    +0.000 HD
ENDBRANCH  23  24
BRANCH  23  26
ATOM     26  C   UNL     1      44.180   3.278   9.766  0.00  0.00    +0.000 C 
BRANCH  26  27
ATOM     27  N   UNL     1      44.821   3.902   8.606  0.00  0.00    +0.000 N 
ATOM     28  C   UNL     1      45.731   3.030   7.975  0.00  0.00    +0.000 A 
ATOM     29  C   UNL     1      46.435   3.491   6.869  0.00  0.00    +0.000 A 
ATOM     30  C   UNL     1      47.315   2.632   6.212  0.00  0.00    +0.000 A 
ATOM     31  C   UNL     1      47.472   1.334   6.675  0.00  0.00    +0.000 A 
ATOM     32  C   UNL     1      46.730   0.948   7.773  0.00  0.00    +0.000 A 
ATOM     33  N   UNL     1      45.869   1.759   8.419  0.00  0.00    +0.000 NA
ATOM     34  H   UNL     1      45.294   4.766   8.867  0.00  0.00    +0.000 HD
ENDBRANCH  26  27
ENDBRANCH  23  26
ENDBRANCH   4  23
TORSDOF 8
ENDMDL
MODEL 2
REMARK VINA RESULT:    -9.044      2.134      2.904
REMARK INTER + INTRA:         -13.676
REMARK INTER:                 -12.613
REMARK INTRA:                  -1.063
REMARK UNBOUND:                -0.667
REMARK  Name = 
REMARK  9 active torsions:
REMARK  status: ('A' for Active; 'I' for Inactive)
REMARK    1  A    between atoms: C_1  and  C_2
REMARK    2  A    between atoms: C_2  and  N_3
REMARK    3  A    between atoms: C_2  and  C_21
REMARK    4  A    between atoms: N_3  and  C_4
REMARK    5  A    between atoms: C_4  and  C_5
REMARK    6  A    between atoms: C_8  and  C_9
REMARK    7  A    between atoms: C_9  and  O_10
REMARK    8  A    between atoms: C_9  and  C_11
REMARK    9  A    between atoms: C_11  and  N_12
REMARK                            x       y       z     vdW  Elec       q    Type
REMARK                         _______ _______ _______ _____ _____    ______ ____
ROOT
ATOM      1  C   UNL     1      45.839   6.813  12.499  0.00  0.00    +0.000 A 
ATOM      2  C   UNL     1      46.284   6.293  11.292  0.00  0.00    +0.000 A 
ATOM      3  C   UNL     1      45.702   5.126  10.807  0.00  0.00    +0.000 A 
ATOM      4  C   UNL     1      44.687   4.487  11.529  0.00  0.00    +0.000 A 
ATOM      5  C   UNL     1      44.307   5.083  12.726  0.00  0.00    +0.000 A 
ATOM      6  N   UNL     1      44.848   6.224  13.215  0.00  0.00    +0.000 NA
ENDROOT
BRANCH   1   7
ATOM      7  C   UNL     1      46.423   8.112  13.020  0.00  0.00    +0.000 C 
BRANCH   7   8
ATOM      8  N   UNL     1      47.211   7.935  14.242  0.00  0.00    +0.000 NA
ATOM      9  H   UNL     1      46.588   7.717  15.018  0.00  0.00    +0.000 HD
BRANCH   8  11
ATOM     10  C   UNL     1      49.473   7.383  13.354  0.00  0.00    +0.000 C 
ATOM     11  C   UNL     1      48.238   6.895  14.129  0.00  0.00    +0.000 C 
BRANCH  11  12
ATOM     12  C   UNL     1      48.615   6.499  15.544  0.00  0.00    +0.000 A 
ATOM     13  C   UNL     1      49.415   7.275  16.368  0.00  0.00    +0.000 A 
ATOM     14  S   UNL     1      49.734   6.564  17.883  0.00  0.00    +0.000 S 
ATOM     15  C   UNL     1      48.797   5.196  17.499  0.00  0.00    +0.000 A 
ATOM     16  N   UNL     1      48.668   4.169  18.382  0.00  0.00    +0.000 NA
ATOM     17  C   UNL     1      47.927   3.199  17.961  0.00  0.00    +0.000 A 
ATOM     18  N   UNL     1      47.296   3.166  16.743  0.00  0.00    +0.000 N 
ATOM     19  C   UNL     1      47.381   4.188  15.823  0.00  0.00    +0.000 A 
ATOM     20  O   UNL     1      46.769   4.142  14.761  0.00  0.00    +0.000 OA
ATOM     21  C   UNL     1      48.232   5.291  16.240  0.00  0.00    +0.000 A 
ATOM     22  H   UNL     1      46.714   2.383  16.488  0.00  0.00    +0.000 HD
ENDBRANCH  11  12
ENDBRANCH   8  11
ENDBRANCH   7   8
ENDBRANCH   1   7
BRANCH   4  23
ATOM     23  C   UNL     1      44.014   3.206  11.084  0.00  0.00    +0.000 C 
BRANCH  23  24
ATOM     24  O   UNL     1      42.620   3.267  11.425  0.00  0.00    +0.000 OA
ATOM     25  H   UNL     1      42.534   2.949  12.341  0.00  0.00    +0.000 HD
ENDBRANCH  23  24
BRANCH  23  26
ATOM     26  C   UNL     1      44.141   2.936   9.571  0.00  0.00    +0.000 C 
BRANCH  26  27
ATOM     27  N   UNL     1      45.039   1.815   9.284  0.00  0.00    +0.000 N 
ATOM     28  C   UNL     1      45.864   2.072   8.170  0.00  0.00    +0.000 A 
ATOM     29  C   UNL     1      46.756   1.087   7.763  0.00  0.00    +0.000 A 
ATOM     30  C   UNL     1      47.602   1.336   6.682  0.00  0.00    +0.000 A 
ATOM     31  C   UNL     1      47.536   2.561   6.034  0.00  0.00    +0.000 A 
ATOM     32  C   UNL     1      46.630   3.491   6.505  0.00  0.00    +0.000 A 
ATOM     33  N   UNL     1      45.808   3.274   7.550  0.00  0.00    +0.000 NA
ATOM     34  H   UNL     1      44.517   0.952   9.137  0.00  0.00    +0.000 HD
ENDBRANCH  26  27
ENDBRANCH  23  26
ENDBRANCH   4  23
TORSDOF 8
ENDMDL
MODEL 3
REMARK VINA RESULT:    -8.522      2.049      2.809
REMARK INTER + INTRA:         -12.926
REMARK INTER:                 -11.876
REMARK INTRA:                  -1.050
REMARK UNBOUND:                -0.667
REMARK  Name = 
REMARK  9 active torsions:
REMARK  status: ('A' for Active; 'I' for Inactive)
REMARK    1  A    between atoms: C_1  and  C_2
REMARK    2  A    between atoms: C_2  and  N_3
REMARK    3  A    between atoms: C_2  and  C_21
REMARK    4  A    between atoms: N_3  and  C_4
REMARK    5  A    between atoms: C_4  and  C_5
REMARK    6  A    between atoms: C_8  and  C_9
REMARK    7  A    between atoms: C_9  and  O_10
REMARK    8  A    between atoms: C_9  and  C_11
REMARK    9  A    between atoms: C_11  and  N_12
REMARK                            x       y       z     vdW  Elec       q    Type
REMARK                         _______ _______ _______ _____ _____    ______ ____
ROOT
ATOM      1  C   UNL     1      47.102   5.968  13.019  0.00  0.00    +0.000 A 
ATOM      2  C   UNL     1      46.610   6.332  11.773  0.00  0.00    +0.000 A 
ATOM      3  C   UNL     1      45.585   5.579  11.209  0.00  0.00    +0.000 A 
ATOM      4  C   UNL     1      45.063   4.472  11.887  0.00  0.00    +0.000 A 
ATOM      5  C   UNL     1      45.617   4.186  13.130  0.00  0.00    +0.000 A 
ATOM      6  N   UNL     1      46.606   4.908  13.707  0.00  0.00    +0.000 NA
ENDROOT
BRANCH   1   7
ATOM      7  C   UNL     1      48.183   6.804  13.675  0.00  0.00    +0.000 C 
BRANCH   7   8
ATOM      8  N   UNL     1      48.840   6.118  14.790  0.00  0.00    +0.000 NA
ATOM      9  H   UNL     1      49.381   5.333  14.432  0.00  0.00    +0.000 HD
BRANCH   8  11
ATOM     10  C   UNL     1      49.826   8.399  14.975  0.00  0.00    +0.000 C 
ATOM     11  C   UNL     1      49.707   6.993  15.584  0.00  0.00    +0.000 C 
BRANCH  11  12
ATOM     12  C   UNL     1      49.101   7.060  16.974  0.00  0.00    +0.000 A 
ATOM     13  C   UNL     1      48.525   8.204  17.502  0.00  0.00    +0.000 A 
ATOM     14  S   UNL     1      47.981   8.021  19.107  0.00  0.00    +0.000 S 
ATOM     15  C   UNL     1      48.482   6.395  19.148  0.00  0.00    +0.000 A 
ATOM     16  N   UNL     1      48.321   5.643  20.271  0.00  0.00    +0.000 NA
ATOM     17  C   UNL     1      48.742   4.428  20.160  0.00  0.00    +0.000 A 
ATOM     18  N   UNL     1      49.302   3.893  19.027  0.00  0.00    +0.000 N 
ATOM     19  C   UNL     1      49.470   4.607  17.860  0.00  0.00    +0.000 A 
ATOM     20  O   UNL     1      49.935   4.083  16.854  0.00  0.00    +0.000 OA
ATOM     21  C   UNL     1      49.038   5.992  17.947  0.00  0.00    +0.000 A 
ATOM     22  H   UNL     1      49.591   2.927  19.005  0.00  0.00    +0.000 HD
ENDBRANCH  11  12
ENDBRANCH   8  11
ENDBRANCH   7   8
ENDBRANCH   1   7
BRANCH   4  23
ATOM     23  C   UNL     1      43.961   3.589  11.339  0.00  0.00    +0.000 C 
BRANCH  23  24
ATOM     24  O   UNL     1      42.691   4.205  11.605  0.00  0.00    +0.000 OA
ATOM     25  H   UNL     1      42.315   3.763  12.387  0.00  0.00    +0.000 HD
ENDBRANCH  23  24
BRANCH  23  26
ATOM     26  C   UNL     1      44.076   3.329   9.823  0.00  0.00    +0.000 C 
BRANCH  26  27
ATOM     27  N   UNL     1      44.794   2.086   9.530  0.00  0.00    +0.000 N 
ATOM     28  C   UNL     1      45.714   2.246   8.473  0.00  0.00    +0.000 A 
ATOM     29  C   UNL     1      46.456   1.144   8.066  0.00  0.00    +0.000 A 
ATOM     30  C   UNL     1      47.393   1.291   7.044  0.00  0.00    +0.000 A 
ATOM     31  C   UNL     1      47.568   2.534   6.454  0.00  0.00    +0.000 A 
ATOM     32  C   UNL     1      46.800   3.583   6.922  0.00  0.00    +0.000 A 
ATOM     33  N   UNL     1      45.893   3.464   7.911  0.00  0.00    +0.000 NA
ATOM     34  H   UNL     1      44.147   1.329   9.314  0.00  0.00    +0.000 HD
ENDBRANCH  26  27
ENDBRANCH  23  26
ENDBRANCH   4  23
TORSDOF 8
ENDMDL
MODEL 4
REMARK VINA RESULT:    -8.448      1.587      2.187
REMARK INTER + INTRA:         -12.819
REMARK INTER:                 -12.109
REMARK INTRA:                  -0.710
REMARK UNBOUND:                -0.667
REMARK  Name = 
REMARK  9 active torsions:
REMARK  status: ('A' for Active; 'I' for Inactive)
REMARK    1  A    between atoms: C_1  and  C_2
REMARK    2  A    between atoms: C_2  and  N_3
REMARK    3  A    between atoms: C_2  and  C_21
REMARK    4  A    between atoms: N_3  and  C_4
REMARK    5  A    between atoms: C_4  and  C_5
REMARK    6  A    between atoms: C_8  and  C_9
REMARK    7  A    between atoms: C_9  and  O_10
REMARK    8  A    between atoms: C_9  and  C_11
REMARK    9  A    between atoms: C_11  and  N_12
REMARK                            x       y       z     vdW  Elec       q    Type
REMARK                         _______ _______ _______ _____ _____    ______ ____
ROOT
ATOM      1  C   UNL     1      46.554   4.770  13.779  0.00  0.00    +0.000 A 
ATOM      2  C   UNL     1      46.143   5.970  13.216  0.00  0.00    +0.000 A 
ATOM      3  C   UNL     1      45.182   5.947  12.211  0.00  0.00    +0.000 A 
ATOM      4  C   UNL     1      44.642   4.733  11.774  0.00  0.00    +0.000 A 
ATOM      5  C   UNL     1      45.114   3.583  12.397  0.00  0.00    +0.000 A 
ATOM      6  N   UNL     1      46.040   3.577  13.385  0.00  0.00    +0.000 NA
ENDROOT
BRANCH   1   7
ATOM      7  C   UNL     1      47.563   4.775  14.911  0.00  0.00    +0.000 C 
BRANCH   7   8
ATOM      8  N   UNL     1      47.679   3.478  15.580  0.00  0.00    +0.000 NA
ATOM      9  H   UNL     1      48.429   2.941  15.148  0.00  0.00    +0.000 HD
BRANCH   8  11
ATOM     10  C   UNL     1      47.066   2.587  17.825  0.00  0.00    +0.000 C 
ATOM     11  C   UNL     1      47.916   3.584  17.022  0.00  0.00    +0.000 C 
BRANCH  11  12
ATOM     12  C   UNL     1      49.396   3.326  17.241  0.00  0.00    +0.000 A 
ATOM     13  C   UNL     1      49.976   2.072  17.139  0.00  0.00    +0.000 A 
ATOM     14  S   UNL     1      51.641   2.054  17.497  0.00  0.00    +0.000 S 
ATOM     15  C   UNL     1      51.652   3.732  17.785  0.00  0.00    +0.000 A 
ATOM     16  N   UNL     1      52.795   4.368  18.161  0.00  0.00    +0.000 NA
ATOM     17  C   UNL     1      52.658   5.639  18.342  0.00  0.00    +0.000 A 
ATOM     18  N   UNL     1      51.487   6.333  18.173  0.00  0.00    +0.000 N 
ATOM     19  C   UNL     1      50.309   5.738  17.777  0.00  0.00    +0.000 A 
ATOM     20  O   UNL     1      49.291   6.398  17.595  0.00  0.00    +0.000 OA
ATOM     21  C   UNL     1      50.405   4.300  17.590  0.00  0.00    +0.000 A 
ATOM     22  H   UNL     1      51.458   7.332  18.313  0.00  0.00    +0.000 HD
ENDBRANCH  11  12
ENDBRANCH   8  11
ENDBRANCH   7   8
ENDBRANCH   1   7
BRANCH   4  23
ATOM     23  C   UNL     1      43.607   4.616  10.675  0.00  0.00    +0.000 C 
BRANCH  23  24
ATOM     24  O   UNL     1      42.940   5.879  10.523  0.00  0.00    +0.000 OA
ATOM     25  H   UNL     1      43.628   6.552  10.376  0.00  0.00    +0.000 HD
ENDBRANCH  23  24
BRANCH  23  26
ATOM     26  C   UNL     1      44.198   4.203   9.311  0.00  0.00    +0.000 C 
BRANCH  26  27
ATOM     27  N   UNL     1      44.526   2.776   9.261  0.00  0.00    +0.000 N 
ATOM     28  C   UNL     1      45.601   2.513   8.388  0.00  0.00    +0.000 A 
ATOM     29  C   UNL     1      46.012   1.196   8.219  0.00  0.00    +0.000 A 
ATOM     30  C   UNL     1      47.094   0.920   7.384  0.00  0.00    +0.000 A 
ATOM     31  C   UNL     1      47.739   1.964   6.737  0.00  0.00    +0.000 A 
ATOM     32  C   UNL     1      47.276   3.245   6.964  0.00  0.00    +0.000 A 
ATOM     33  N   UNL     1      46.237   3.535   7.771  0.00  0.00    +0.000 NA
ATOM     34  H   UNL     1      43.715   2.221   8.990  0.00  0.00    +0.000 HD
ENDBRANCH  26  27
ENDBRANCH  23  26
ENDBRANCH   4  23
TORSDOF 8
ENDMDL
MODEL 5
REMARK VINA RESULT:    -7.716      2.543      3.463
REMARK INTER + INTRA:         -11.766
REMARK INTER:                 -11.344
REMARK INTRA:                  -0.422
REMARK UNBOUND:                -0.667
REMARK  Name = 
REMARK  9 active torsions:
REMARK  status: ('A' for Active; 'I' for Inactive)
REMARK    1  A    between atoms: C_1  and  C_2
REMARK    2  A    between atoms: C_2  and  N_3
REMARK    3  A    between atoms: C_2  and  C_21
REMARK    4  A    between atoms: N_3  and  C_4
REMARK    5  A    between atoms: C_4  and  C_5
REMARK    6  A    between atoms: C_8  and  C_9
REMARK    7  A    between atoms: C_9  and  O_10
REMARK    8  A    between atoms: C_9  and  C_11
REMARK    9  A    between atoms: C_11  and  N_12
REMARK                            x       y       z     vdW  Elec       q    Type
REMARK                         _______ _______ _______ _____ _____    ______ ____
ROOT
ATOM      1  C   UNL     1      46.407   4.199  13.804  0.00  0.00    +0.000 A 
ATOM      2  C   UNL     1      45.926   5.467  13.512  0.00  0.00    +0.000 A 
ATOM      3  C   UNL     1      45.009   5.616  12.477  0.00  0.00    +0.000 A 
ATOM      4  C   UNL     1      44.583   4.504  11.741  0.00  0.00    +0.000 A 
ATOM      5  C   UNL     1      45.120   3.274  12.108  0.00  0.00    +0.000 A 
ATOM      6  N   UNL     1      46.004   3.099  13.118  0.00  0.00    +0.000 NA
ENDROOT
BRANCH   1   7
ATOM      7  C   UNL     1      47.368   4.007  14.962  0.00  0.00    +0.000 C 
BRANCH   7   8
ATOM      8  N   UNL     1      47.842   5.271  15.528  0.00  0.00    +0.000 NA
ATOM      9  H   UNL     1      47.133   5.989  15.394  0.00  0.00    +0.000 HD
BRANCH   8  11
ATOM     10  C   UNL     1      48.936   3.879  17.281  0.00  0.00    +0.000 C 
ATOM     11  C   UNL     1      48.189   5.180  16.949  0.00  0.00    +0.000 C 
BRANCH  11  12
ATOM     12  C   UNL     1      49.052   6.389  17.265  0.00  0.00    +0.000 A 
ATOM     13  C   UNL     1      50.029   6.874  16.412  0.00  0.00    +0.000 A 
ATOM     14  S   UNL     1      50.893   8.201  17.041  0.00  0.00    +0.000 S 
ATOM     15  C   UNL     1      49.976   8.188  18.475  0.00  0.00    +0.000 A 
ATOM     16  N   UNL     1      50.224   9.081  19.471  0.00  0.00    +0.000 NA
ATOM     17  C   UNL     1      49.451   8.957  20.498  0.00  0.00    +0.000 A 
ATOM     18  N   UNL     1      48.447   8.029  20.616  0.00  0.00    +0.000 N 
ATOM     19  C   UNL     1      48.145   7.117  19.629  0.00  0.00    +0.000 A 
ATOM     20  O   UNL     1      47.212   6.330  19.753  0.00  0.00    +0.000 OA
ATOM     21  C   UNL     1      49.010   7.196  18.464  0.00  0.00    +0.000 A 
ATOM     22  H   UNL     1      47.867   8.004  21.441  0.00  0.00    +0.000 HD
ENDBRANCH  11  12
ENDBRANCH   8  11
ENDBRANCH   7   8
ENDBRANCH   1   7
BRANCH   4  23
ATOM     23  C   UNL     1      43.604   4.578  10.589  0.00  0.00    +0.000 C 
BRANCH  23  24
ATOM     24  O   UNL     1      43.091   5.917  10.496  0.00  0.00    +0.000 OA
ATOM     25  H   UNL     1      42.340   5.895   9.876  0.00  0.00    +0.000 HD
ENDBRANCH  23  24
BRANCH  23  26
ATOM     26  C   UNL     1      44.219   4.189   9.230  0.00  0.00    +0.000 C 
BRANCH  26  27
ATOM     27  N   UNL     1      44.553   2.764   9.163  0.00  0.00    +0.000 N 
ATOM     28  C   UNL     1      45.648   2.519   8.310  0.00  0.00    +0.000 A 
ATOM     29  C   UNL     1      46.068   1.206   8.129  0.00  0.00    +0.000 A 
ATOM     30  C   UNL     1      47.170   0.947   7.315  0.00  0.00    +0.000 A 
ATOM     31  C   UNL     1      47.827   2.004   6.702  0.00  0.00    +0.000 A 
ATOM     32  C   UNL     1      47.355   3.281   6.940  0.00  0.00    +0.000 A 
ATOM     33  N   UNL     1      46.296   3.553   7.727  0.00  0.00    +0.000 NA
ATOM     34  H   UNL     1      43.750   2.212   8.863  0.00  0.00    +0.000 HD
ENDBRANCH  26  27
ENDBRANCH  23  26
ENDBRANCH   4  23
TORSDOF 8
ENDMDL
MODEL 6
REMARK VINA RESULT:    -7.678      2.345      2.978
REMARK INTER + INTRA:         -11.712
REMARK INTER:                 -11.051
REMARK INTRA:                  -0.660
REMARK UNBOUND:                -0.667
REMARK  Name = 
REMARK  9 active torsions:
REMARK  status: ('A' for Active; 'I' for Inactive)
REMARK    1  A    between atoms: C_1  and  C_2
REMARK    2  A    between atoms: C_2  and  N_3
REMARK    3  A    between atoms: C_2  and  C_21
REMARK    4  A    between atoms: N_3  and  C_4
REMARK    5  A    between atoms: C_4  and  C_5
REMARK    6  A    between atoms: C_8  and  C_9
REMARK    7  A    between atoms: C_9  and  O_10
REMARK    8  A    between atoms: C_9  and  C_11
REMARK    9  A    between atoms: C_11  and  N_12
REMARK                            x       y       z     vdW  Elec       q    Type
REMARK                         _______ _______ _______ _____ _____    ______ ____
ROOT
ATOM      1  C   UNL     1      47.269   6.759  13.032  0.00  0.00    +0.000 A 
ATOM      2  C   UNL     1      47.279   5.375  13.127  0.00  0.00    +0.000 A 
ATOM      3  C   UNL     1      46.076   4.684  13.019  0.00  0.00    +0.000 A 
ATOM      4  C   UNL     1      44.876   5.377  12.823  0.00  0.00    +0.000 A 
ATOM      5  C   UNL     1      44.966   6.763  12.738  0.00  0.00    +0.000 A 
ATOM      6  N   UNL     1      46.123   7.458  12.828  0.00  0.00    +0.000 NA
ENDROOT
BRANCH   1   7
ATOM      7  C   UNL     1      48.574   7.528  13.095  0.00  0.00    +0.000 C 
BRANCH   7   8
ATOM      8  N   UNL     1      49.572   6.892  13.958  0.00  0.00    +0.000 NA
ATOM      9  H   UNL     1      50.198   6.325  13.390  0.00  0.00    +0.000 HD
BRANCH   8  11
ATOM     10  C   UNL     1      49.458   8.845  15.501  0.00  0.00    +0.000 C 
ATOM     11  C   UNL     1      50.353   7.848  14.749  0.00  0.00    +0.000 C 
BRANCH  11  12
ATOM     12  C   UNL     1      51.183   7.032  15.723  0.00  0.00    +0.000 A 
ATOM     13  C   UNL     1      52.554   7.172  15.863  0.00  0.00    +0.000 A 
ATOM     14  S   UNL     1      53.245   6.086  16.980  0.00  0.00    +0.000 S 
ATOM     15  C   UNL     1      51.728   5.399  17.332  0.00  0.00    +0.000 A 
ATOM     16  N   UNL     1      51.615   4.375  18.221  0.00  0.00    +0.000 NA
ATOM     17  C   UNL     1      50.407   3.954  18.394  0.00  0.00    +0.000 A 
ATOM     18  N   UNL     1      49.301   4.469  17.766  0.00  0.00    +0.000 N 
ATOM     19  C   UNL     1      49.360   5.516  16.873  0.00  0.00    +0.000 A 
ATOM     20  O   UNL     1      48.345   5.978  16.363  0.00  0.00    +0.000 OA
ATOM     21  C   UNL     1      50.707   6.004  16.621  0.00  0.00    +0.000 A 
ATOM     22  H   UNL     1      48.382   4.103  17.965  0.00  0.00    +0.000 HD
ENDBRANCH  11  12
ENDBRANCH   8  11
ENDBRANCH   7   8
ENDBRANCH   1   7
BRANCH   4  23
ATOM     23  C   UNL     1      43.523   4.707  12.713  0.00  0.00    +0.000 C 
BRANCH  23  24
ATOM     24  O   UNL     1      42.548   5.504  13.405  0.00  0.00    +0.000 OA
ATOM     25  H   UNL     1      42.327   5.036  14.229  0.00  0.00    +0.000 HD
ENDBRANCH  23  24
BRANCH  23  26
ATOM     26  C   UNL     1      43.052   4.502  11.259  0.00  0.00    +0.000 C 
BRANCH  26  27
ATOM     27  N   UNL     1      43.975   5.098  10.290  0.00  0.00    +0.000 N 
ATOM     28  C   UNL     1      44.653   4.118   9.537  0.00  0.00    +0.000 A 
ATOM     29  C   UNL     1      45.581   4.533   8.589  0.00  0.00    +0.000 A 
ATOM     30  C   UNL     1      46.238   3.579   7.812  0.00  0.00    +0.000 A 
ATOM     31  C   UNL     1      45.952   2.235   7.999  0.00  0.00    +0.000 A 
ATOM     32  C   UNL     1      45.010   1.903   8.953  0.00  0.00    +0.000 A 
ATOM     33  N   UNL     1      44.360   2.808   9.711  0.00  0.00    +0.000 NA
ATOM     34  H   UNL     1      44.649   5.708  10.751  0.00  0.00    +0.000 HD
ENDBRANCH  26  27
ENDBRANCH  23  26
ENDBRANCH   4  23
TORSDOF 8
ENDMDL
MODEL 7
REMARK VINA RESULT:    -7.398      2.819      3.963
REMARK INTER + INTRA:         -11.308
REMARK INTER:                 -10.811
REMARK INTRA:                  -0.498
REMARK UNBOUND:                -0.667
REMARK  Name = 
REMARK  9 active torsions:
REMARK  status: ('A' for Active; 'I' for Inactive)
REMARK    1  A    between atoms: C_1  and  C_2
REMARK    2  A    between atoms: C_2  and  N_3
REMARK    3  A    between atoms: C_2  and  C_21
REMARK    4  A    between atoms: N_3  and  C_4
REMARK    5  A    between atoms: C_4  and  C_5
REMARK    6  A    between atoms: C_8  and  C_9
REMARK    7  A    between atoms: C_9  and  O_10
REMARK    8  A    between atoms: C_9  and  C_11
REMARK    9  A    between atoms: C_11  and  N_12
REMARK                            x       y       z     vdW  Elec       q    Type
REMARK                         _______ _______ _______ _____ _____    ______ ____
ROOT
ATOM      1  C   UNL     1      46.581   4.529  13.924  0.00  0.00    +0.000 A 
ATOM      2  C   UNL     1      46.151   5.757  13.441  0.00  0.00    +0.000 A 
ATOM      3  C   UNL     1      45.202   5.784  12.423  0.00  0.00    +0.000 A 
ATOM      4  C   UNL     1      44.695   4.591  11.895  0.00  0.00    +0.000 A 
ATOM      5  C   UNL     1      45.185   3.410  12.444  0.00  0.00    +0.000 A 
ATOM      6  N   UNL     1      46.098   3.356  13.441  0.00  0.00    +0.000 NA
ENDROOT
BRANCH   1   7
ATOM      7  C   UNL     1      47.575   4.477  15.068  0.00  0.00    +0.000 C 
BRANCH   7   8
ATOM      8  N   UNL     1      47.709   5.755  15.769  0.00  0.00    +0.000 NA
ATOM      9  H   UNL     1      46.800   6.212  15.816  0.00  0.00    +0.000 HD
BRANCH   8  11
ATOM     10  C   UNL     1      49.682   5.029  17.107  0.00  0.00    +0.000 C 
ATOM     11  C   UNL     1      48.265   5.625  17.119  0.00  0.00    +0.000 C 
BRANCH  11  12
ATOM     12  C   UNL     1      48.274   7.017  17.723  0.00  0.00    +0.000 A 
ATOM     13  C   UNL     1      47.749   7.313  18.970  0.00  0.00    +0.000 A 
ATOM     14  S   UNL     1      47.832   8.966  19.375  0.00  0.00    +0.000 S 
ATOM     15  C   UNL     1      48.592   9.346  17.901  0.00  0.00    +0.000 A 
ATOM     16  N   UNL     1      48.927  10.629  17.598  0.00  0.00    +0.000 NA
ATOM     17  C   UNL     1      49.499  10.770  16.449  0.00  0.00    +0.000 A 
ATOM     18  N   UNL     1      49.776   9.745  15.580  0.00  0.00    +0.000 N 
ATOM     19  C   UNL     1      49.473   8.428  15.848  0.00  0.00    +0.000 A 
ATOM     20  O   UNL     1      49.774   7.533  15.065  0.00  0.00    +0.000 OA
ATOM     21  C   UNL     1      48.798   8.222  17.119  0.00  0.00    +0.000 A 
ATOM     22  H   UNL     1      50.245   9.927  14.706  0.00  0.00    +0.000 HD
ENDBRANCH  11  12
ENDBRANCH   8  11
ENDBRANCH   7   8
ENDBRANCH   1   7
BRANCH   4  23
ATOM     23  C   UNL     1      43.677   4.529  10.777  0.00  0.00    +0.000 C 
BRANCH  23  24
ATOM     24  O   UNL     1      43.027   5.806  10.663  0.00  0.00    +0.000 OA
ATOM     25  H   UNL     1      42.197   5.752  11.168  0.00  0.00    +0.000 HD
ENDBRANCH  23  24
BRANCH  23  26
ATOM     26  C   UNL     1      44.285   4.161   9.408  0.00  0.00    +0.000 C 
BRANCH  26  27
ATOM     27  N   UNL     1      44.639   2.742   9.325  0.00  0.00    +0.000 N 
ATOM     28  C   UNL     1      45.679   2.511   8.402  0.00  0.00    +0.000 A 
ATOM     29  C   UNL     1      46.110   1.205   8.199  0.00  0.00    +0.000 A 
ATOM     30  C   UNL     1      47.159   0.962   7.314  0.00  0.00    +0.000 A 
ATOM     31  C   UNL     1      47.753   2.027   6.653  0.00  0.00    +0.000 A 
ATOM     32  C   UNL     1      47.276   3.295   6.916  0.00  0.00    +0.000 A 
ATOM     33  N   UNL     1      46.267   3.554   7.771  0.00  0.00    +0.000 NA
ATOM     34  H   UNL     1      43.828   2.173   9.083  0.00  0.00    +0.000 HD
ENDBRANCH  26  27
ENDBRANCH  23  26
ENDBRANCH   4  23
TORSDOF 8
ENDMDL
MODEL 8
REMARK VINA RESULT:    -7.196      2.767      3.741
REMARK INTER + INTRA:         -11.018
REMARK INTER:                 -10.517
REMARK INTRA:                  -0.500
REMARK UNBOUND:                -0.667
REMARK  Name = 
REMARK  9 active torsions:
REMARK  status: ('A' for Active; 'I' for Inactive)
REMARK    1  A    between atoms: C_1  and  C_2
REMARK    2  A    between atoms: C_2  and  N_3
REMARK    3  A    between atoms: C_2  and  C_21
REMARK    4  A    between atoms: N_3  and  C_4
REMARK    5  A    between atoms: C_4  and  C_5
REMARK    6  A    between atoms: C_8  and  C_9
REMARK    7  A    between atoms: C_9  and  O_10
REMARK    8  A    between atoms: C_9  and  C_11
REMARK    9  A    between atoms: C_11  and  N_12
REMARK                            x       y       z     vdW  Elec       q    Type
REMARK                         _______ _______ _______ _____ _____    ______ ____
ROOT
ATOM      1  C   UNL     1      47.726   6.584  13.248  0.00  0.00    +0.000 A 
ATOM      2  C   UNL     1      46.699   7.473  12.962  0.00  0.00    +0.000 A 
ATOM      3  C   UNL     1      45.413   6.978  12.775  0.00  0.00    +0.000 A 
ATOM      4  C   UNL     1      45.161   5.604  12.872  0.00  0.00    +0.000 A 
ATOM      5  C   UNL     1      46.252   4.792  13.164  0.00  0.00    +0.000 A 
ATOM      6  N   UNL     1      47.511   5.249  13.362  0.00  0.00    +0.000 NA
ENDROOT
BRANCH   1   7
ATOM      7  C   UNL     1      49.125   7.108  13.506  0.00  0.00    +0.000 C 
BRANCH   7   8
ATOM      8  N   UNL     1      49.263   7.751  14.815  0.00  0.00    +0.000 NA
ATOM      9  H   UNL     1      48.484   7.477  15.410  0.00  0.00    +0.000 HD
BRANCH   8  11
ATOM     10  C   UNL     1      51.256   8.707  15.967  0.00  0.00    +0.000 C 
ATOM     11  C   UNL     1      50.530   7.441  15.486  0.00  0.00    +0.000 C 
BRANCH  11  12
ATOM     12  C   UNL     1      50.191   6.538  16.658  0.00  0.00    +0.000 A 
ATOM     13  C   UNL     1      50.850   5.348  16.922  0.00  0.00    +0.000 A 
ATOM     14  S   UNL     1      50.227   4.500  18.262  0.00  0.00    +0.000 S 
ATOM     15  C   UNL     1      49.061   5.706  18.551  0.00  0.00    +0.000 A 
ATOM     16  N   UNL     1      48.168   5.583  19.571  0.00  0.00    +0.000 NA
ATOM     17  C   UNL     1      47.344   6.573  19.675  0.00  0.00    +0.000 A 
ATOM     18  N   UNL     1      47.337   7.676  18.860  0.00  0.00    +0.000 N 
ATOM     19  C   UNL     1      48.231   7.855  17.826  0.00  0.00    +0.000 A 
ATOM     20  O   UNL     1      48.221   8.874  17.145  0.00  0.00    +0.000 OA
ATOM     21  C   UNL     1      49.160   6.751  17.649  0.00  0.00    +0.000 A 
ATOM     22  H   UNL     1      46.676   8.422  19.013  0.00  0.00    +0.000 HD
ENDBRANCH  11  12
ENDBRANCH   8  11
ENDBRANCH   7   8
ENDBRANCH   1   7
BRANCH   4  23
ATOM     23  C   UNL     1      43.798   4.980  12.665  0.00  0.00    +0.000 C 
BRANCH  23  24
ATOM     24  O   UNL     1      42.857   5.605  13.552  0.00  0.00    +0.000 OA
ATOM     25  H   UNL     1      42.076   5.844  13.021  0.00  0.00    +0.000 HD
ENDBRANCH  23  24
BRANCH  23  26
ATOM     26  C   UNL     1      43.274   5.105  11.220  0.00  0.00    +0.000 C 
BRANCH  26  27
ATOM     27  N   UNL     1      44.325   5.516  10.286  0.00  0.00    +0.000 N 
ATOM     28  C   UNL     1      44.832   4.426   9.550  0.00  0.00    +0.000 A 
ATOM     29  C   UNL     1      45.853   4.659   8.637  0.00  0.00    +0.000 A 
ATOM     30  C   UNL     1      46.345   3.598   7.877  0.00  0.00    +0.000 A 
ATOM     31  C   UNL     1      45.807   2.331   8.047  0.00  0.00    +0.000 A 
ATOM     32  C   UNL     1      44.787   2.183   8.967  0.00  0.00    +0.000 A 
ATOM     33  N   UNL     1      44.293   3.194   9.707  0.00  0.00    +0.000 NA
ATOM     34  H   UNL     1      45.085   5.990  10.772  0.00  0.00    +0.000 HD
ENDBRANCH  26  27
ENDBRANCH  23  26
ENDBRANCH   4  23
TORSDOF 8
ENDMDL
MODEL 9
REMARK VINA RESULT:    -7.027      2.929      9.405
REMARK INTER + INTRA:         -10.775
REMARK INTER:                  -9.907
REMARK INTRA:                  -0.867
REMARK UNBOUND:                -0.667
REMARK  Name = 
REMARK  9 active torsions:
REMARK  status: ('A' for Active; 'I' for Inactive)
REMARK    1  A    between atoms: C_1  and  C_2
REMARK    2  A    between atoms: C_2  and  N_3
REMARK    3  A    between atoms: C_2  and  C_21
REMARK    4  A    between atoms: N_3  and  C_4
REMARK    5  A    between atoms: C_4  and  C_5
REMARK    6  A    between atoms: C_8  and  C_9
REMARK    7  A    between atoms: C_9  and  O_10
REMARK    8  A    between atoms: C_9  and  C_11
REMARK    9  A    between atoms: C_11  and  N_12
REMARK                            x       y       z     vdW  Elec       q    Type
REMARK                         _______ _______ _______ _____ _____    ______ ____
ROOT
ATOM      1  C   UNL     1      47.600   5.082  14.981  0.00  0.00    +0.000 A 
ATOM      2  C   UNL     1      47.221   3.957  15.700  0.00  0.00    +0.000 A 
ATOM      3  C   UNL     1      47.798   3.729  16.945  0.00  0.00    +0.000 A 
ATOM      4  C   UNL     1      48.748   4.619  17.460  0.00  0.00    +0.000 A 
ATOM      5  C   UNL     1      49.063   5.718  16.668  0.00  0.00    +0.000 A 
ATOM      6  N   UNL     1      48.509   5.970  15.459  0.00  0.00    +0.000 NA
ENDROOT
BRANCH   1   7
ATOM      7  C   UNL     1      46.947   5.377  13.645  0.00  0.00    +0.000 C 
BRANCH   7   8
ATOM      8  N   UNL     1      45.484   5.399  13.716  0.00  0.00    +0.000 NA
ATOM      9  H   UNL     1      45.195   5.731  14.634  0.00  0.00    +0.000 HD
BRANCH   8  11
ATOM     10  C   UNL     1      45.413   7.658  12.666  0.00  0.00    +0.000 C 
ATOM     11  C   UNL     1      44.862   6.224  12.675  0.00  0.00    +0.000 C 
BRANCH  11  12
ATOM     12  C   UNL     1      45.137   5.535  11.352  0.00  0.00    +0.000 A 
ATOM     13  C   UNL     1      45.838   6.126  10.313  0.00  0.00    +0.000 A 
ATOM     14  S   UNL     1      45.947   5.155   8.917  0.00  0.00    +0.000 S 
ATOM     15  C   UNL     1      45.074   3.896   9.659  0.00  0.00    +0.000 A 
ATOM     16  N   UNL     1      44.793   2.749   8.983  0.00  0.00    +0.000 NA
ATOM     17  C   UNL     1      44.127   1.880   9.669  0.00  0.00    +0.000 A 
ATOM     18  N   UNL     1      43.725   2.049  10.969  0.00  0.00    +0.000 N 
ATOM     19  C   UNL     1      44.001   3.184  11.702  0.00  0.00    +0.000 A 
ATOM     20  O   UNL     1      43.662   3.282  12.876  0.00  0.00    +0.000 OA
ATOM     21  C   UNL     1      44.722   4.206  10.961  0.00  0.00    +0.000 A 
ATOM     22  H   UNL     1      43.225   1.317  11.451  0.00  0.00    +0.000 HD
ENDBRANCH  11  12
ENDBRANCH   8  11
ENDBRANCH   7   8
ENDBRANCH   1   7
BRANCH   4  23
ATOM     23  C   UNL     1      49.438   4.437  18.795  0.00  0.00    +0.000 C 
BRANCH  23  24
ATOM     24  O   UNL     1      48.704   3.480  19.576  0.00  0.00    +0.000 OA
ATOM     25  H   UNL     1      47.988   3.138  19.012  0.00  0.00    +0.000 HD
ENDBRANCH  23  24
BRANCH  23  26
ATOM     26  C   UNL     1      50.899   3.960  18.675  0.00  0.00    +0.000 C 
BRANCH  26  27
ATOM     27  N   UNL     1      51.011   2.708  17.924  0.00  0.00    +0.000 N 
ATOM     28  C   UNL     1      52.293   2.133  18.046  0.00  0.00    +0.000 A 
ATOM     29  C   UNL     1      52.557   0.949  17.368  0.00  0.00    +0.000 A 
ATOM     30  C   UNL     1      53.808   0.349  17.502  0.00  0.00    +0.000 A 
ATOM     31  C   UNL     1      54.766   0.945  18.310  0.00  0.00    +0.000 A 
ATOM     32  C   UNL     1      54.423   2.115  18.958  0.00  0.00    +0.000 A 
ATOM     33  N   UNL     1      53.219   2.709  18.847  0.00  0.00    +0.000 NA
ATOM     34  H   UNL     1      50.787   2.848  16.940  0.00  0.00    +0.000 HD
ENDBRANCH  26  27
ENDBRANCH  23  26
ENDBRANCH   4  23
TORSDOF 8
ENDMDL
