MODEL 1
REMARK VINA RESULT:    -7.495      0.000      0.000
REMARK INTER + INTRA:         -10.161
REMARK INTER:                  -9.466
REMARK INTRA:                  -0.695
REMARK UNBOUND:                -0.695
REMARK  Name = 
REMARK  5 active torsions:
REMARK  status: ('A' for Active; 'I' for Inactive)
REMARK    1  A    between atoms: N_1  and  C_2
REMARK    2  A    between atoms: C_2  and  C_3
REMARK    3  A    between atoms: C_6  and  C_7
REMARK    4  A    between atoms: C_7  and  O_8
REMARK    5  A    between atoms: O_8  and  C_9
REMARK                            x       y       z     vdW  Elec       q    Type
REMARK                         _______ _______ _______ _____ _____    ______ ____
ROOT
ATOM      1  C   UNL     1      46.672   2.302   7.603  0.00  0.00    +0.000 A 
ATOM      2  C   UNL     1      46.524   3.691   7.488  0.00  0.00    +0.000 A 
ATOM      3  C   UNL     1      45.551   4.369   8.229  0.00  0.00    +0.000 A 
ATOM      4  C   UNL     1      44.712   3.670   9.104  0.00  0.00    +0.000 A 
ATOM      5  C   UNL     1      44.827   2.275   9.183  0.00  0.00    +0.000 A 
ATOM      6  C   UNL     1      45.800   1.599   8.445  0.00  0.00    +0.000 A 
ENDROOT
BRANCH   1   7
ATOM      7  C   UNL     1      47.737   1.577   6.821  0.00  0.00    +0.000 C 
BRANCH   7   8
ATOM      8  N   UNL     1      48.646   2.505   6.155  0.00  0.00    +0.000 NA
ATOM      9  H   UNL     1      48.158   3.380   5.980  0.00  0.00    +0.000 HD
ATOM     10  H   UNL     1      48.892   2.122   5.243  0.00  0.00    +0.000 HD
ENDBRANCH   7   8
ENDBRANCH   1   7
BRANCH   4  11
ATOM     11  C   UNL     1      43.726   4.404   9.976  0.00  0.00    +0.000 C 
BRANCH  11  12
ATOM     12  O   UNL     1      43.870   4.010  11.339  0.00  0.00    +0.000 OA
BRANCH  12  13
ATOM     13  C   UNL     1      44.917   4.576  12.020  0.00  0.00    +0.000 A 
ATOM     14  C   UNL     1      45.312   5.918  11.939  0.00  0.00    +0.000 A 
ATOM     15  C   UNL     1      46.393   6.385  12.693  0.00  0.00    +0.000 A 
ATOM     16  C   UNL     1      47.078   5.508  13.525  0.00  0.00    +0.000 A 
ATOM     17  F   UNL     1      48.109   5.965  14.250  0.00  0.00    +0.000 F 
ATOM     18  C   UNL     1      46.697   4.177  13.604  0.00  0.00    +0.000 A 
ATOM     19  F   UNL     1      47.361   3.334  14.407  0.00  0.00    +0.000 F 
ATOM     20  C   UNL     1      45.623   3.704  12.854  0.00  0.00    +0.000 A 
ENDBRANCH  12  13
ENDBRANCH  11  12
ENDBRANCH   4  11
TORSDOF 5
ENDMDL
MODEL 2
REMARK VINA RESULT:    -7.383      3.638      6.034
REMARK INTER + INTRA:         -10.020
REMARK INTER:                  -9.454
REMARK INTRA:                  -0.565
REMARK UNBOUND:                -0.695
REMARK  Name = 
REMARK  5 active torsions:
REMARK  status: ('A' for Active; 'I' for Inactive)
REMARK    1  A    between atoms: N_1  and  C_2
REMARK    2  A    between atoms: C_2  and  C_3
REMARK    3  A    between atoms: C_6  and  C_7
REMARK    4  A    between atoms: C_7  and  O_8
REMARK    5  A    between atoms: O_8  and  C_9
REMARK                            x       y       z     vdW  Elec       q    Type
REMARK                         _______ _______ _______ _____ _____    ______ ____
ROOT
ATOM      1  C   UNL     1      46.831   5.825  13.025  0.00  0.00    +0.000 A 
ATOM      2  C   UNL     1      46.029   4.702  13.270  0.00  0.00    +0.000 A 
ATOM      3  C   UNL     1      45.056   4.305  12.347  0.00  0.00    +0.000 A 
ATOM      4  C   UNL     1      44.873   5.021  11.158  0.00  0.00    +0.000 A 
ATOM      5  C   UNL     1      45.641   6.171  10.935  0.00  0.00    +0.000 A 
ATOM      6  C   UNL     1      46.615   6.566  11.856  0.00  0.00    +0.000 A 
ENDROOT
BRANCH   1   7
ATOM      7  C   UNL     1      47.895   6.237  14.010  0.00  0.00    +0.000 C 
BRANCH   7   8
ATOM      8  N   UNL     1      47.834   5.445  15.235  0.00  0.00    +0.000 NA
ATOM      9  H   UNL     1      47.944   4.461  15.001  0.00  0.00    +0.000 HD
ATOM     10  H   UNL     1      46.904   5.544  15.641  0.00  0.00    +0.000 HD
ENDBRANCH   7   8
ENDBRANCH   1   7
BRANCH   4  11
ATOM     11  C   UNL     1      43.893   4.545  10.117  0.00  0.00    +0.000 C 
BRANCH  11  12
ATOM     12  O   UNL     1      44.117   3.170   9.808  0.00  0.00    +0.000 OA
BRANCH  12  13
ATOM     13  C   UNL     1      45.057   2.917   8.842  0.00  0.00    +0.000 A 
ATOM     14  C   UNL     1      45.594   3.863   7.959  0.00  0.00    +0.000 A 
ATOM     15  C   UNL     1      46.558   3.487   7.019  0.00  0.00    +0.000 A 
ATOM     16  C   UNL     1      46.982   2.165   6.963  0.00  0.00    +0.000 A 
ATOM     17  F   UNL     1      47.912   1.814   6.063  0.00  0.00    +0.000 F 
ATOM     18  C   UNL     1      46.449   1.222   7.829  0.00  0.00    +0.000 A 
ATOM     19  F   UNL     1      46.860  -0.052   7.771  0.00  0.00    +0.000 F 
ATOM     20  C   UNL     1      45.486   1.588   8.766  0.00  0.00    +0.000 A 
ENDBRANCH  12  13
ENDBRANCH  11  12
ENDBRANCH   4  11
TORSDOF 5
ENDMDL
MODEL 3
REMARK VINA RESULT:    -6.117      3.829      6.289
REMARK INTER + INTRA:          -8.421
REMARK INTER:                  -7.874
REMARK INTRA:                  -0.547
REMARK UNBOUND:                -0.695
REMARK  Name = 
REMARK  5 active torsions:
REMARK  status: ('A' for Active; 'I' for Inactive)
REMARK    1  A    between atoms: N_1  and  C_2
REMARK    2  A    between atoms: C_2  and  C_3
REMARK    3  A    between atoms: C_6  and  C_7
REMARK    4  A    between atoms: C_7  and  O_8
REMARK    5  A    between atoms: O_8  and  C_9
REMARK                            x       y       z     vdW  Elec       q    Type
REMARK                         _______ _______ _______ _____ _____    ______ ____
ROOT
ATOM      1  C   UNL     1      46.279   7.998  12.126  0.00  0.00    +0.000 A 
ATOM      2  C   UNL     1      44.917   8.191  11.859  0.00  0.00    +0.000 A 
ATOM      3  C   UNL     1      44.113   7.127  11.441  0.00  0.00    +0.000 A 
ATOM      4  C   UNL     1      44.657   5.846  11.287  0.00  0.00    +0.000 A 
ATOM      5  C   UNL     1      46.028   5.662  11.507  0.00  0.00    +0.000 A 
ATOM      6  C   UNL     1      46.830   6.725  11.927  0.00  0.00    +0.000 A 
ENDROOT
BRANCH   1   7
ATOM      7  C   UNL     1      47.138   9.142  12.600  0.00  0.00    +0.000 C 
BRANCH   7   8
ATOM      8  N   UNL     1      46.525  10.435  12.311  0.00  0.00    +0.000 NA
ATOM      9  H   UNL     1      46.781  11.095  13.042  0.00  0.00    +0.000 HD
ATOM     10  H   UNL     1      45.512  10.332  12.354  0.00  0.00    +0.000 HD
ENDBRANCH   7   8
ENDBRANCH   1   7
BRANCH   4  11
ATOM     11  C   UNL     1      43.778   4.675  10.928  0.00  0.00    +0.000 C 
BRANCH  11  12
ATOM     12  O   UNL     1      43.694   4.527   9.512  0.00  0.00    +0.000 OA
BRANCH  12  13
ATOM     13  C   UNL     1      44.560   3.625   8.950  0.00  0.00    +0.000 A 
ATOM     14  C   UNL     1      44.710   2.287   9.338  0.00  0.00    +0.000 A 
ATOM     15  C   UNL     1      45.622   1.457   8.681  0.00  0.00    +0.000 A 
ATOM     16  C   UNL     1      46.384   1.966   7.636  0.00  0.00    +0.000 A 
ATOM     17  F   UNL     1      47.251   1.161   7.005  0.00  0.00    +0.000 F 
ATOM     18  C   UNL     1      46.246   3.291   7.251  0.00  0.00    +0.000 A 
ATOM     19  F   UNL     1      46.982   3.780   6.244  0.00  0.00    +0.000 F 
ATOM     20  C   UNL     1      45.341   4.126   7.904  0.00  0.00    +0.000 A 
ENDBRANCH  12  13
ENDBRANCH  11  12
ENDBRANCH   4  11
TORSDOF 5
ENDMDL
MODEL 4
REMARK VINA RESULT:    -5.973      3.753      6.263
REMARK INTER + INTRA:          -8.239
REMARK INTER:                  -7.714
REMARK INTRA:                  -0.524
REMARK UNBOUND:                -0.695
REMARK  Name = 
REMARK  5 active torsions:
REMARK  status: ('A' for Active; 'I' for Inactive)
REMARK    1  A    between atoms: N_1  and  C_2
REMARK    2  A    between atoms: C_2  and  C_3
REMARK    3  A    between atoms: C_6  and  C_7
REMARK    4  A    between atoms: C_7  and  O_8
REMARK    5  A    between atoms: O_8  and  C_9
REMARK                            x       y       z     vdW  Elec       q    Type
REMARK                         _______ _______ _______ _____ _____    ______ ____
ROOT
ATOM      1  C   UNL     1      48.128   6.877  12.816  0.00  0.00    +0.000 A 
ATOM      2  C   UNL     1      47.688   5.797  13.594  0.00  0.00    +0.000 A 
ATOM      3  C   UNL     1      46.530   5.093  13.249  0.00  0.00    +0.000 A 
ATOM      4  C   UNL     1      45.794   5.453  12.113  0.00  0.00    +0.000 A 
ATOM      5  C   UNL     1      46.206   6.562  11.363  0.00  0.00    +0.000 A 
ATOM      6  C   UNL     1      47.364   7.263  11.707  0.00  0.00    +0.000 A 
ENDROOT
BRANCH   1   7
ATOM      7  C   UNL     1      49.389   7.619  13.177  0.00  0.00    +0.000 C 
BRANCH   7   8
ATOM      8  N   UNL     1      49.167   8.570  14.261  0.00  0.00    +0.000 NA
ATOM      9  H   UNL     1      49.041   8.059  15.132  0.00  0.00    +0.000 HD
ATOM     10  H   UNL     1      48.292   9.065  14.086  0.00  0.00    +0.000 HD
ENDBRANCH   7   8
ENDBRANCH   1   7
BRANCH   4  11
ATOM     11  C   UNL     1      44.600   4.641  11.682  0.00  0.00    +0.000 C 
BRANCH  11  12
ATOM     12  O   UNL     1      44.361   4.804  10.285  0.00  0.00    +0.000 OA
BRANCH  12  13
ATOM     13  C   UNL     1      44.945   3.875   9.463  0.00  0.00    +0.000 A 
ATOM     14  C   UNL     1      44.941   2.489   9.667  0.00  0.00    +0.000 A 
ATOM     15  C   UNL     1      45.564   1.636   8.750  0.00  0.00    +0.000 A 
ATOM     16  C   UNL     1      46.190   2.172   7.632  0.00  0.00    +0.000 A 
ATOM     17  F   UNL     1      46.779   1.348   6.754  0.00  0.00    +0.000 F 
ATOM     18  C   UNL     1      46.205   3.544   7.428  0.00  0.00    +0.000 A 
ATOM     19  F   UNL     1      46.811   4.057   6.349  0.00  0.00    +0.000 F 
ATOM     20  C   UNL     1      45.589   4.400   8.338  0.00  0.00    +0.000 A 
ENDBRANCH  12  13
ENDBRANCH  11  12
ENDBRANCH   4  11
TORSDOF 5
ENDMDL
MODEL 5
REMARK VINA RESULT:    -5.694      3.885      6.452
REMARK INTER + INTRA:          -7.887
REMARK INTER:                  -7.403
REMARK INTRA:                  -0.484
REMARK UNBOUND:                -0.695
REMARK  Name = 
REMARK  5 active torsions:
REMARK  status: ('A' for Active; 'I' for Inactive)
REMARK    1  A    between atoms: N_1  and  C_2
REMARK    2  A    between atoms: C_2  and  C_3
REMARK    3  A    between atoms: C_6  and  C_7
REMARK    4  A    between atoms: C_7  and  O_8
REMARK    5  A    between atoms: O_8  and  C_9
REMARK                            x       y       z     vdW  Elec       q    Type
REMARK                         _______ _______ _______ _____ _____    ______ ____
ROOT
ATOM      1  C   UNL     1      47.577   8.672  12.611  0.00  0.00    +0.000 A 
ATOM      2  C   UNL     1      46.273   8.549  13.110  0.00  0.00    +0.000 A 
ATOM      3  C   UNL     1      45.495   7.428  12.804  0.00  0.00    +0.000 A 
ATOM      4  C   UNL     1      46.010   6.406  11.997  0.00  0.00    +0.000 A 
ATOM      5  C   UNL     1      47.295   6.552  11.459  0.00  0.00    +0.000 A 
ATOM      6  C   UNL     1      48.073   7.670  11.768  0.00  0.00    +0.000 A 
ENDROOT
BRANCH   1   7
ATOM      7  C   UNL     1      48.422   9.870  12.963  0.00  0.00    +0.000 C 
BRANCH   7   8
ATOM      8  N   UNL     1      47.608  11.060  13.187  0.00  0.00    +0.000 NA
ATOM      9  H   UNL     1      46.648  10.863  12.911  0.00  0.00    +0.000 HD
ATOM     10  H   UNL     1      47.940  11.802  12.572  0.00  0.00    +0.000 HD
ENDBRANCH   7   8
ENDBRANCH   1   7
BRANCH   4  11
ATOM     11  C   UNL     1      45.213   5.153  11.740  0.00  0.00    +0.000 C 
BRANCH  11  12
ATOM     12  O   UNL     1      44.602   5.203  10.452  0.00  0.00    +0.000 OA
BRANCH  12  13
ATOM     13  C   UNL     1      45.149   4.387   9.496  0.00  0.00    +0.000 A 
ATOM     14  C   UNL     1      45.969   4.806   8.439  0.00  0.00    +0.000 A 
ATOM     15  C   UNL     1      46.478   3.878   7.527  0.00  0.00    +0.000 A 
ATOM     16  C   UNL     1      46.166   2.531   7.673  0.00  0.00    +0.000 A 
ATOM     17  F   UNL     1      46.665   1.646   6.798  0.00  0.00    +0.000 F 
ATOM     18  C   UNL     1      45.349   2.111   8.711  0.00  0.00    +0.000 A 
ATOM     19  F   UNL     1      45.049   0.812   8.848  0.00  0.00    +0.000 F 
ATOM     20  C   UNL     1      44.835   3.031   9.622  0.00  0.00    +0.000 A 
ENDBRANCH  12  13
ENDBRANCH  11  12
ENDBRANCH   4  11
TORSDOF 5
ENDMDL
MODEL 6
REMARK VINA RESULT:    -5.611      1.759      2.672
REMARK INTER + INTRA:          -7.782
REMARK INTER:                  -7.152
REMARK INTRA:                  -0.629
REMARK UNBOUND:                -0.695
REMARK  Name = 
REMARK  5 active torsions:
REMARK  status: ('A' for Active; 'I' for Inactive)
REMARK    1  A    between atoms: N_1  and  C_2
REMARK    2  A    between atoms: C_2  and  C_3
REMARK    3  A    between atoms: C_6  and  C_7
REMARK    4  A    between atoms: C_7  and  O_8
REMARK    5  A    between atoms: O_8  and  C_9
REMARK                            x       y       z     vdW  Elec       q    Type
REMARK                         _______ _______ _______ _____ _____    ______ ____
ROOT
ATOM      1  C   UNL     1      45.566   2.639   8.363  0.00  0.00    +0.000 A 
ATOM      2  C   UNL     1      44.696   2.078   9.307  0.00  0.00    +0.000 A 
ATOM      3  C   UNL     1      44.068   2.880  10.265  0.00  0.00    +0.000 A 
ATOM      4  C   UNL     1      44.294   4.262  10.290  0.00  0.00    +0.000 A 
ATOM      5  C   UNL     1      45.202   4.816   9.378  0.00  0.00    +0.000 A 
ATOM      6  C   UNL     1      45.827   4.014   8.420  0.00  0.00    +0.000 A 
ENDROOT
BRANCH   1   7
ATOM      7  C   UNL     1      46.223   1.774   7.317  0.00  0.00    +0.000 C 
BRANCH   7   8
ATOM      8  N   UNL     1      47.277   0.942   7.887  0.00  0.00    +0.000 NA
ATOM      9  H   UNL     1      48.000   1.541   8.279  0.00  0.00    +0.000 HD
ATOM     10  H   UNL     1      47.717   0.412   7.134  0.00  0.00    +0.000 HD
ENDBRANCH   7   8
ENDBRANCH   1   7
BRANCH   4  11
ATOM     11  C   UNL     1      43.550   5.146  11.257  0.00  0.00    +0.000 C 
BRANCH  11  12
ATOM     12  O   UNL     1      44.044   4.967  12.583  0.00  0.00    +0.000 OA
BRANCH  12  13
ATOM     13  C   UNL     1      45.186   5.659  12.898  0.00  0.00    +0.000 A 
ATOM     14  C   UNL     1      46.375   5.094  13.377  0.00  0.00    +0.000 A 
ATOM     15  C   UNL     1      47.482   5.902  13.654  0.00  0.00    +0.000 A 
ATOM     16  C   UNL     1      47.396   7.274  13.452  0.00  0.00    +0.000 A 
ATOM     17  F   UNL     1      48.464   8.041  13.713  0.00  0.00    +0.000 F 
ATOM     18  C   UNL     1      46.219   7.841  12.985  0.00  0.00    +0.000 A 
ATOM     19  F   UNL     1      46.140   9.164  12.793  0.00  0.00    +0.000 F 
ATOM     20  C   UNL     1      45.112   7.042  12.710  0.00  0.00    +0.000 A 
ENDBRANCH  12  13
ENDBRANCH  11  12
ENDBRANCH   4  11
TORSDOF 5
ENDMDL
MODEL 7
REMARK VINA RESULT:    -5.551      4.968      7.598
REMARK INTER + INTRA:          -7.706
REMARK INTER:                  -7.229
REMARK INTRA:                  -0.476
REMARK UNBOUND:                -0.695
REMARK  Name = 
REMARK  5 active torsions:
REMARK  status: ('A' for Active; 'I' for Inactive)
REMARK    1  A    between atoms: N_1  and  C_2
REMARK    2  A    between atoms: C_2  and  C_3
REMARK    3  A    between atoms: C_6  and  C_7
REMARK    4  A    between atoms: C_7  and  O_8
REMARK    5  A    between atoms: O_8  and  C_9
REMARK                            x       y       z     vdW  Elec       q    Type
REMARK                         _______ _______ _______ _____ _____    ______ ____
ROOT
ATOM      1  C   UNL     1      51.041   2.381  17.415  0.00  0.00    +0.000 A 
ATOM      2  C   UNL     1      49.923   1.749  16.854  0.00  0.00    +0.000 A 
ATOM      3  C   UNL     1      48.745   2.463  16.613  0.00  0.00    +0.000 A 
ATOM      4  C   UNL     1      48.667   3.826  16.923  0.00  0.00    +0.000 A 
ATOM      5  C   UNL     1      49.768   4.447  17.528  0.00  0.00    +0.000 A 
ATOM      6  C   UNL     1      50.945   3.733  17.766  0.00  0.00    +0.000 A 
ENDROOT
BRANCH   1   7
ATOM      7  C   UNL     1      52.317   1.614  17.650  0.00  0.00    +0.000 C 
BRANCH   7   8
ATOM      8  N   UNL     1      52.057   0.279  18.178  0.00  0.00    +0.000 NA
ATOM      9  H   UNL     1      51.918   0.339  19.184  0.00  0.00    +0.000 HD
ATOM     10  H   UNL     1      52.886  -0.297  18.034  0.00  0.00    +0.000 HD
ENDBRANCH   7   8
ENDBRANCH   1   7
BRANCH   4  11
ATOM     11  C   UNL     1      47.435   4.624  16.580  0.00  0.00    +0.000 C 
BRANCH  11  12
ATOM     12  O   UNL     1      46.711   3.998  15.522  0.00  0.00    +0.000 OA
BRANCH  12  13
ATOM     13  C   UNL     1      46.656   4.689  14.340  0.00  0.00    +0.000 A 
ATOM     14  C   UNL     1      47.466   5.780  13.995  0.00  0.00    +0.000 A 
ATOM     15  C   UNL     1      47.325   6.401  12.750  0.00  0.00    +0.000 A 
ATOM     16  C   UNL     1      46.373   5.931  11.853  0.00  0.00    +0.000 A 
ATOM     17  F   UNL     1      46.249   6.527  10.659  0.00  0.00    +0.000 F 
ATOM     18  C   UNL     1      45.563   4.857  12.191  0.00  0.00    +0.000 A 
ATOM     19  F   UNL     1      44.646   4.408  11.325  0.00  0.00    +0.000 F 
ATOM     20  C   UNL     1      45.696   4.235  13.431  0.00  0.00    +0.000 A 
ENDBRANCH  12  13
ENDBRANCH  11  12
ENDBRANCH   4  11
TORSDOF 5
ENDMDL
MODEL 8
REMARK VINA RESULT:    -5.474      4.854      7.737
REMARK INTER + INTRA:          -7.609
REMARK INTER:                  -7.283
REMARK INTRA:                  -0.325
REMARK UNBOUND:                -0.695
REMARK  Name = 
REMARK  5 active torsions:
REMARK  status: ('A' for Active; 'I' for Inactive)
REMARK    1  A    between atoms: N_1  and  C_2
REMARK    2  A    between atoms: C_2  and  C_3
REMARK    3  A    between atoms: C_6  and  C_7
REMARK    4  A    between atoms: C_7  and  O_8
REMARK    5  A    between atoms: O_8  and  C_9
REMARK                            x       y       z     vdW  Elec       q    Type
REMARK                         _______ _______ _______ _____ _____    ______ ____
ROOT
ATOM      1  C   UNL     1      48.632   4.625  18.244  0.00  0.00    +0.000 A 
ATOM      2  C   UNL     1      47.738   3.712  17.668  0.00  0.00    +0.000 A 
ATOM      3  C   UNL     1      47.253   3.909  16.371  0.00  0.00    +0.000 A 
ATOM      4  C   UNL     1      47.659   5.021  15.624  0.00  0.00    +0.000 A 
ATOM      5  C   UNL     1      48.515   5.959  16.217  0.00  0.00    +0.000 A 
ATOM      6  C   UNL     1      49.001   5.760  17.511  0.00  0.00    +0.000 A 
ENDROOT
BRANCH   1   7
ATOM      7  C   UNL     1      49.172   4.397  19.633  0.00  0.00    +0.000 C 
BRANCH   7   8
ATOM      8  N   UNL     1      48.345   3.461  20.388  0.00  0.00    +0.000 NA
ATOM      9  H   UNL     1      47.483   3.925  20.664  0.00  0.00    +0.000 HD
ATOM     10  H   UNL     1      48.833   3.218  21.250  0.00  0.00    +0.000 HD
ENDBRANCH   7   8
ENDBRANCH   1   7
BRANCH   4  11
ATOM     11  C   UNL     1      47.216   5.190  14.194  0.00  0.00    +0.000 C 
BRANCH  11  12
ATOM     12  O   UNL     1      46.018   4.456  13.950  0.00  0.00    +0.000 OA
BRANCH  12  13
ATOM     13  C   UNL     1      45.535   4.503  12.667  0.00  0.00    +0.000 A 
ATOM     14  C   UNL     1      45.664   5.584  11.786  0.00  0.00    +0.000 A 
ATOM     15  C   UNL     1      45.137   5.512  10.493  0.00  0.00    +0.000 A 
ATOM     16  C   UNL     1      44.481   4.358  10.084  0.00  0.00    +0.000 A 
ATOM     17  F   UNL     1      43.985   4.294   8.841  0.00  0.00    +0.000 F 
ATOM     18  C   UNL     1      44.342   3.286  10.954  0.00  0.00    +0.000 A 
ATOM     19  F   UNL     1      43.707   2.176  10.556  0.00  0.00    +0.000 F 
ATOM     20  C   UNL     1      44.862   3.353  12.244  0.00  0.00    +0.000 A 
ENDBRANCH  12  13
ENDBRANCH  11  12
ENDBRANCH   4  11
TORSDOF 5
ENDMDL
MODEL 9
REMARK VINA RESULT:    -5.469      4.044      6.801
REMARK INTER + INTRA:          -7.602
REMARK INTER:                  -7.178
REMARK INTRA:                  -0.424
REMARK UNBOUND:                -0.695
REMARK  Name = 
REMARK  5 active torsions:
REMARK  status: ('A' for Active; 'I' for Inactive)
REMARK    1  A    between atoms: N_1  and  C_2
REMARK    2  A    between atoms: C_2  and  C_3
REMARK    3  A    between atoms: C_6  and  C_7
REMARK    4  A    between atoms: C_7  and  O_8
REMARK    5  A    between atoms: O_8  and  C_9
REMARK                            x       y       z     vdW  Elec       q    Type
REMARK                         _______ _______ _______ _____ _____    ______ ____
ROOT
ATOM      1  C   UNL     1      48.183   5.145  16.419  0.00  0.00    +0.000 A 
ATOM      2  C   UNL     1      48.753   6.286  15.838  0.00  0.00    +0.000 A 
ATOM      3  C   UNL     1      48.411   6.674  14.539  0.00  0.00    +0.000 A 
ATOM      4  C   UNL     1      47.485   5.929  13.798  0.00  0.00    +0.000 A 
ATOM      5  C   UNL     1      46.951   4.761  14.360  0.00  0.00    +0.000 A 
ATOM      6  C   UNL     1      47.292   4.377  15.659  0.00  0.00    +0.000 A 
ENDROOT
BRANCH   1   7
ATOM      7  C   UNL     1      48.535   4.744  17.828  0.00  0.00    +0.000 C 
BRANCH   7   8
ATOM      8  N   UNL     1      47.547   3.832  18.395  0.00  0.00    +0.000 NA
ATOM      9  H   UNL     1      47.245   3.179  17.674  0.00  0.00    +0.000 HD
ATOM     10  H   UNL     1      46.723   4.369  18.662  0.00  0.00    +0.000 HD
ENDBRANCH   7   8
ENDBRANCH   1   7
BRANCH   4  11
ATOM     11  C   UNL     1      47.040   6.392  12.435  0.00  0.00    +0.000 C 
BRANCH  11  12
ATOM     12  O   UNL     1      45.640   6.177  12.264  0.00  0.00    +0.000 OA
BRANCH  12  13
ATOM     13  C   UNL     1      45.283   5.301  11.272  0.00  0.00    +0.000 A 
ATOM     14  C   UNL     1      45.661   5.395   9.926  0.00  0.00    +0.000 A 
ATOM     15  C   UNL     1      45.242   4.432   9.003  0.00  0.00    +0.000 A 
ATOM     16  C   UNL     1      44.445   3.376   9.429  0.00  0.00    +0.000 A 
ATOM     17  F   UNL     1      44.054   2.453   8.539  0.00  0.00    +0.000 F 
ATOM     18  C   UNL     1      44.060   3.281  10.758  0.00  0.00    +0.000 A 
ATOM     19  F   UNL     1      43.290   2.263  11.164  0.00  0.00    +0.000 F 
ATOM     20  C   UNL     1      44.472   4.239  11.682  0.00  0.00    +0.000 A 
ENDBRANCH  12  13
ENDBRANCH  11  12
ENDBRANCH   4  11
TORSDOF 5
ENDMDL
