MODEL 1
REMARK VINA RESULT:    -7.635      0.000      0.000
REMARK INTER + INTRA:          -9.352
REMARK INTER:                  -8.974
REMARK INTRA:                  -0.377
REMARK UNBOUND:                -0.377
REMARK  Name = 
REMARK  3 active torsions:
REMARK  status: ('A' for Active; 'I' for Inactive)
REMARK    1  A    between atoms: C_2  and  C_4
REMARK    2  A    between atoms: N_8  and  C_9
REMARK    3  A    between atoms: C_9  and  C_10
REMARK                            x       y       z     vdW  Elec       q    Type
REMARK                         _______ _______ _______ _____ _____    ______ ____
ROOT
ATOM      1  C   UNL     1      46.225   2.036   7.868  0.00  0.00    +0.000 A 
ATOM      2  C   UNL     1      46.147   3.305   7.303  0.00  0.00    +0.000 A 
ATOM      3  C   UNL     1      45.368   4.279   7.928  0.00  0.00    +0.000 A 
ATOM      4  C   UNL     1      44.692   3.972   9.112  0.00  0.00    +0.000 A 
ATOM      5  N   UNL     1      43.929   4.987   9.710  0.00  0.00    +0.000 N 
ATOM      6  N   UNL     1      44.733   2.734   9.643  0.00  0.00    +0.000 NA
ATOM      7  C   UNL     1      45.485   1.794   9.013  0.00  0.00    +0.000 A 
ATOM      8  H   UNL     1      44.492   5.827   9.792  0.00  0.00    +0.000 HD
ENDROOT
BRANCH   1  10
ATOM      9  N   UNL     1      46.713  -0.330   7.654  0.00  0.00    +0.000 N 
ATOM     10  C   UNL     1      47.048   0.949   7.301  0.00  0.00    +0.000 C 
ATOM     11  O   UNL     1      47.957   1.174   6.515  0.00  0.00    +0.000 OA
ATOM     12  H   UNL     1      47.203  -1.070   7.167  0.00  0.00    +0.000 HD
ATOM     13  H   UNL     1      45.826  -0.560   8.078  0.00  0.00    +0.000 HD
ENDBRANCH   1  10
BRANCH   5  14
ATOM     14  C   UNL     1      43.292   4.613  10.972  0.00  0.00    +0.000 C 
BRANCH  14  15
ATOM     15  C   UNL     1      44.046   5.250  12.153  0.00  0.00    +0.000 C 
ATOM     16  C   UNL     1      44.696   6.574  11.723  0.00  0.00    +0.000 C 
ATOM     17  C   UNL     1      45.559   7.150  12.839  0.00  0.00    +0.000 C 
ATOM     18  O   UNL     1      46.537   6.204  13.263  0.00  0.00    +0.000 OA
ATOM     19  C   UNL     1      45.945   5.020  13.793  0.00  0.00    +0.000 C 
ATOM     20  C   UNL     1      45.114   4.312  12.732  0.00  0.00    +0.000 C 
ENDBRANCH  14  15
ENDBRANCH   5  14
TORSDOF 3
ENDMDL
MODEL 2
REMARK VINA RESULT:    -7.378      1.357      1.696
REMARK INTER + INTRA:          -9.050
REMARK INTER:                  -8.744
REMARK INTRA:                  -0.305
REMARK UNBOUND:                -0.377
REMARK  Name = 
REMARK  3 active torsions:
REMARK  status: ('A' for Active; 'I' for Inactive)
REMARK    1  A    between atoms: C_2  and  C_4
REMARK    2  A    between atoms: N_8  and  C_9
REMARK    3  A    between atoms: C_9  and  C_10
REMARK                            x       y       z     vdW  Elec       q    Type
REMARK                         _______ _______ _______ _____ _____    ______ ____
ROOT
ATOM      1  C   UNL     1      46.560   2.596   7.392  0.00  0.00    +0.000 A 
ATOM      2  C   UNL     1      46.025   1.568   8.162  0.00  0.00    +0.000 A 
ATOM      3  C   UNL     1      45.128   1.882   9.184  0.00  0.00    +0.000 A 
ATOM      4  C   UNL     1      44.774   3.214   9.410  0.00  0.00    +0.000 A 
ATOM      5  N   UNL     1      43.861   3.481  10.442  0.00  0.00    +0.000 N 
ATOM      6  N   UNL     1      45.319   4.217   8.693  0.00  0.00    +0.000 NA
ATOM      7  C   UNL     1      46.200   3.895   7.712  0.00  0.00    +0.000 A 
ATOM      8  H   UNL     1      43.053   2.877  10.340  0.00  0.00    +0.000 HD
ENDROOT
BRANCH   1  10
ATOM      9  N   UNL     1      47.378   3.199   5.190  0.00  0.00    +0.000 N 
ATOM     10  C   UNL     1      47.489   2.364   6.269  0.00  0.00    +0.000 C 
ATOM     11  O   UNL     1      48.351   1.499   6.316  0.00  0.00    +0.000 OA
ATOM     12  H   UNL     1      48.095   3.110   4.480  0.00  0.00    +0.000 HD
ATOM     13  H   UNL     1      46.868   4.069   5.229  0.00  0.00    +0.000 HD
ENDBRANCH   1  10
BRANCH   5  14
ATOM     14  C   UNL     1      43.495   4.888  10.590  0.00  0.00    +0.000 C 
BRANCH  14  15
ATOM     15  C   UNL     1      44.202   5.491  11.817  0.00  0.00    +0.000 C 
ATOM     16  C   UNL     1      45.104   6.661  11.397  0.00  0.00    +0.000 C 
ATOM     17  C   UNL     1      45.915   7.182  12.577  0.00  0.00    +0.000 C 
ATOM     18  O   UNL     1      46.672   6.132  13.175  0.00  0.00    +0.000 OA
ATOM     19  C   UNL     1      45.838   5.098  13.693  0.00  0.00    +0.000 C 
ATOM     20  C   UNL     1      45.031   4.447  12.580  0.00  0.00    +0.000 C 
ENDBRANCH  14  15
ENDBRANCH   5  14
TORSDOF 3
ENDMDL
MODEL 3
REMARK VINA RESULT:    -7.073      2.360      6.181
REMARK INTER + INTRA:          -8.691
REMARK INTER:                  -8.316
REMARK INTRA:                  -0.375
REMARK UNBOUND:                -0.377
REMARK  Name = 
REMARK  3 active torsions:
REMARK  status: ('A' for Active; 'I' for Inactive)
REMARK    1  A    between atoms: C_2  and  C_4
REMARK    2  A    between atoms: N_8  and  C_9
REMARK    3  A    between atoms: C_9  and  C_10
REMARK                            x       y       z     vdW  Elec       q    Type
REMARK                         _______ _______ _______ _____ _____    ______ ____
ROOT
ATOM      1  C   UNL     1      46.681   4.915  13.868  0.00  0.00    +0.000 A 
ATOM      2  C   UNL     1      46.925   6.072  13.135  0.00  0.00    +0.000 A 
ATOM      3  C   UNL     1      46.359   6.204  11.867  0.00  0.00    +0.000 A 
ATOM      4  C   UNL     1      45.549   5.184  11.360  0.00  0.00    +0.000 A 
ATOM      5  N   UNL     1      44.993   5.366  10.084  0.00  0.00    +0.000 N 
ATOM      6  N   UNL     1      45.340   4.045  12.049  0.00  0.00    +0.000 NA
ATOM      7  C   UNL     1      45.911   3.927  13.275  0.00  0.00    +0.000 A 
ATOM      8  H   UNL     1      44.545   6.275  10.039  0.00  0.00    +0.000 HD
ENDROOT
BRANCH   1  10
ATOM      9  N   UNL     1      47.914   5.722  15.794  0.00  0.00    +0.000 N 
ATOM     10  C   UNL     1      47.207   4.695  15.230  0.00  0.00    +0.000 C 
ATOM     11  O   UNL     1      46.982   3.664  15.847  0.00  0.00    +0.000 OA
ATOM     12  H   UNL     1      48.165   5.609  16.769  0.00  0.00    +0.000 HD
ATOM     13  H   UNL     1      47.891   6.662  15.426  0.00  0.00    +0.000 HD
ENDBRANCH   1  10
BRANCH   5  14
ATOM     14  C   UNL     1      44.115   4.285   9.637  0.00  0.00    +0.000 C 
BRANCH  14  15
ATOM     15  C   UNL     1      44.807   3.468   8.532  0.00  0.00    +0.000 C 
ATOM     16  C   UNL     1      45.301   2.123   9.087  0.00  0.00    +0.000 C 
ATOM     17  C   UNL     1      46.107   1.360   8.044  0.00  0.00    +0.000 C 
ATOM     18  O   UNL     1      47.190   2.152   7.560  0.00  0.00    +0.000 OA
ATOM     19  C   UNL     1      46.739   3.342   6.919  0.00  0.00    +0.000 C 
ATOM     20  C   UNL     1      45.980   4.228   7.897  0.00  0.00    +0.000 C 
ENDBRANCH  14  15
ENDBRANCH   5  14
TORSDOF 3
ENDMDL
MODEL 4
REMARK VINA RESULT:    -6.965      1.895      6.486
REMARK INTER + INTRA:          -8.564
REMARK INTER:                  -8.231
REMARK INTRA:                  -0.333
REMARK UNBOUND:                -0.377
REMARK  Name = 
REMARK  3 active torsions:
REMARK  status: ('A' for Active; 'I' for Inactive)
REMARK    1  A    between atoms: C_2  and  C_4
REMARK    2  A    between atoms: N_8  and  C_9
REMARK    3  A    between atoms: C_9  and  C_10
REMARK                            x       y       z     vdW  Elec       q    Type
REMARK                         _______ _______ _______ _____ _____    ______ ____
ROOT
ATOM      1  C   UNL     1      46.465   5.905  12.651  0.00  0.00    +0.000 A 
ATOM      2  C   UNL     1      45.869   4.708  13.031  0.00  0.00    +0.000 A 
ATOM      3  C   UNL     1      45.272   3.907  12.057  0.00  0.00    +0.000 A 
ATOM      4  C   UNL     1      45.294   4.311  10.719  0.00  0.00    +0.000 A 
ATOM      5  N   UNL     1      44.690   3.469   9.773  0.00  0.00    +0.000 N 
ATOM      6  N   UNL     1      45.836   5.489  10.351  0.00  0.00    +0.000 NA
ATOM      7  C   UNL     1      46.400   6.262  11.314  0.00  0.00    +0.000 A 
ATOM      8  H   UNL     1      45.034   2.523   9.897  0.00  0.00    +0.000 HD
ENDROOT
BRANCH   1  10
ATOM      9  N   UNL     1      46.692   8.091  13.678  0.00  0.00    +0.000 N 
ATOM     10  C   UNL     1      47.151   6.804  13.601  0.00  0.00    +0.000 C 
ATOM     11  O   UNL     1      48.055   6.407  14.322  0.00  0.00    +0.000 OA
ATOM     12  H   UNL     1      47.086   8.662  14.416  0.00  0.00    +0.000 HD
ATOM     13  H   UNL     1      45.798   8.371  13.301  0.00  0.00    +0.000 HD
ENDBRANCH   1  10
BRANCH   5  14
ATOM     14  C   UNL     1      44.794   3.927   8.388  0.00  0.00    +0.000 C 
BRANCH  14  15
ATOM     15  C   UNL     1      45.553   2.886   7.545  0.00  0.00    +0.000 C 
ATOM     16  C   UNL     1      45.964   1.687   8.413  0.00  0.00    +0.000 C 
ATOM     17  C   UNL     1      46.833   0.712   7.629  0.00  0.00    +0.000 C 
ATOM     18  O   UNL     1      47.972   1.374   7.082  0.00  0.00    +0.000 OA
ATOM     19  C   UNL     1      47.605   2.403   6.166  0.00  0.00    +0.000 C 
ATOM     20  C   UNL     1      46.793   3.484   6.865  0.00  0.00    +0.000 C 
ENDBRANCH  14  15
ENDBRANCH   5  14
TORSDOF 3
ENDMDL
MODEL 5
REMARK VINA RESULT:    -6.521      2.381      6.322
REMARK INTER + INTRA:          -8.042
REMARK INTER:                  -7.651
REMARK INTRA:                  -0.392
REMARK UNBOUND:                -0.377
REMARK  Name = 
REMARK  3 active torsions:
REMARK  status: ('A' for Active; 'I' for Inactive)
REMARK    1  A    between atoms: C_2  and  C_4
REMARK    2  A    between atoms: N_8  and  C_9
REMARK    3  A    between atoms: C_9  and  C_10
REMARK                            x       y       z     vdW  Elec       q    Type
REMARK                         _______ _______ _______ _____ _____    ______ ____
ROOT
ATOM      1  C   UNL     1      47.281   6.098  13.366  0.00  0.00    +0.000 A 
ATOM      2  C   UNL     1      46.793   4.908  13.896  0.00  0.00    +0.000 A 
ATOM      3  C   UNL     1      45.821   4.199  13.190  0.00  0.00    +0.000 A 
ATOM      4  C   UNL     1      45.365   4.684  11.961  0.00  0.00    +0.000 A 
ATOM      5  N   UNL     1      44.394   3.931  11.282  0.00  0.00    +0.000 N 
ATOM      6  N   UNL     1      45.806   5.855  11.461  0.00  0.00    +0.000 NA
ATOM      7  C   UNL     1      46.741   6.540  12.169  0.00  0.00    +0.000 A 
ATOM      8  H   UNL     1      44.696   2.964  11.229  0.00  0.00    +0.000 HD
ENDROOT
BRANCH   1  10
ATOM      9  N   UNL     1      47.940   7.715  15.049  0.00  0.00    +0.000 N 
ATOM     10  C   UNL     1      48.332   6.902  14.020  0.00  0.00    +0.000 C 
ATOM     11  O   UNL     1      49.507   6.813  13.693  0.00  0.00    +0.000 OA
ATOM     12  H   UNL     1      48.683   8.168  15.568  0.00  0.00    +0.000 HD
ATOM     13  H   UNL     1      47.046   7.615  15.508  0.00  0.00    +0.000 HD
ENDBRANCH   1  10
BRANCH   5  14
ATOM     14  C   UNL     1      44.000   4.469   9.981  0.00  0.00    +0.000 C 
BRANCH  14  15
ATOM     15  C   UNL     1      44.604   3.614   8.852  0.00  0.00    +0.000 C 
ATOM     16  C   UNL     1      45.076   2.258   9.399  0.00  0.00    +0.000 C 
ATOM     17  C   UNL     1      45.799   1.453   8.326  0.00  0.00    +0.000 C 
ATOM     18  O   UNL     1      46.883   2.199   7.778  0.00  0.00    +0.000 OA
ATOM     19  C   UNL     1      46.444   3.398   7.145  0.00  0.00    +0.000 C 
ATOM     20  C   UNL     1      45.770   4.322   8.148  0.00  0.00    +0.000 C 
ENDBRANCH  14  15
ENDBRANCH   5  14
TORSDOF 3
ENDMDL
MODEL 6
REMARK VINA RESULT:    -6.059      4.159      6.028
REMARK INTER + INTRA:          -7.498
REMARK INTER:                  -7.180
REMARK INTRA:                  -0.318
REMARK UNBOUND:                -0.377
REMARK  Name = 
REMARK  3 active torsions:
REMARK  status: ('A' for Active; 'I' for Inactive)
REMARK    1  A    between atoms: C_2  and  C_4
REMARK    2  A    between atoms: N_8  and  C_9
REMARK    3  A    between atoms: C_9  and  C_10
REMARK                            x       y       z     vdW  Elec       q    Type
REMARK                         _______ _______ _______ _____ _____    ______ ____
ROOT
ATOM      1  C   UNL     1      45.504   4.938  11.626  0.00  0.00    +0.000 A 
ATOM      2  C   UNL     1      46.363   5.989  11.927  0.00  0.00    +0.000 A 
ATOM      3  C   UNL     1      46.964   6.035  13.185  0.00  0.00    +0.000 A 
ATOM      4  C   UNL     1      46.707   5.024  14.114  0.00  0.00    +0.000 A 
ATOM      5  N   UNL     1      47.342   5.107  15.363  0.00  0.00    +0.000 N 
ATOM      6  N   UNL     1      45.845   4.023  13.841  0.00  0.00    +0.000 NA
ATOM      7  C   UNL     1      45.258   4.002  12.618  0.00  0.00    +0.000 A 
ATOM      8  H   UNL     1      48.335   5.262  15.225  0.00  0.00    +0.000 HD
ENDROOT
BRANCH   1  10
ATOM      9  N   UNL     1      45.549   5.199   9.215  0.00  0.00    +0.000 N 
ATOM     10  C   UNL     1      44.846   4.783  10.313  0.00  0.00    +0.000 C 
ATOM     11  O   UNL     1      43.746   4.262  10.203  0.00  0.00    +0.000 OA
ATOM     12  H   UNL     1      45.142   4.978   8.314  0.00  0.00    +0.000 HD
ATOM     13  H   UNL     1      46.541   5.383   9.244  0.00  0.00    +0.000 HD
ENDBRANCH   1  10
BRANCH   5  14
ATOM     14  C   UNL     1      47.068   3.990  16.266  0.00  0.00    +0.000 C 
BRANCH  14  15
ATOM     15  C   UNL     1      48.332   3.643  17.074  0.00  0.00    +0.000 C 
ATOM     16  C   UNL     1      49.346   4.795  17.005  0.00  0.00    +0.000 C 
ATOM     17  C   UNL     1      50.656   4.416  17.684  0.00  0.00    +0.000 C 
ATOM     18  O   UNL     1      51.190   3.219  17.122  0.00  0.00    +0.000 OA
ATOM     19  C   UNL     1      50.316   2.107  17.300  0.00  0.00    +0.000 C 
ATOM     20  C   UNL     1      48.991   2.344  16.589  0.00  0.00    +0.000 C 
ENDBRANCH  14  15
ENDBRANCH   5  14
TORSDOF 3
ENDMDL
MODEL 7
REMARK VINA RESULT:    -6.003      3.865      5.373
REMARK INTER + INTRA:          -7.433
REMARK INTER:                  -7.197
REMARK INTRA:                  -0.236
REMARK UNBOUND:                -0.377
REMARK  Name = 
REMARK  3 active torsions:
REMARK  status: ('A' for Active; 'I' for Inactive)
REMARK    1  A    between atoms: C_2  and  C_4
REMARK    2  A    between atoms: N_8  and  C_9
REMARK    3  A    between atoms: C_9  and  C_10
REMARK                            x       y       z     vdW  Elec       q    Type
REMARK                         _______ _______ _______ _____ _____    ______ ____
ROOT
ATOM      1  C   UNL     1      44.950   4.034  11.079  0.00  0.00    +0.000 A 
ATOM      2  C   UNL     1      45.320   5.360  11.273  0.00  0.00    +0.000 A 
ATOM      3  C   UNL     1      45.962   5.719  12.459  0.00  0.00    +0.000 A 
ATOM      4  C   UNL     1      46.233   4.745  13.423  0.00  0.00    +0.000 A 
ATOM      5  N   UNL     1      46.890   5.151  14.595  0.00  0.00    +0.000 N 
ATOM      6  N   UNL     1      45.842   3.465  13.257  0.00  0.00    +0.000 NA
ATOM      7  C   UNL     1      45.206   3.137  12.103  0.00  0.00    +0.000 A 
ATOM      8  H   UNL     1      47.711   5.692  14.350  0.00  0.00    +0.000 HD
ENDROOT
BRANCH   1  10
ATOM      9  N   UNL     1      44.080   4.470   8.857  0.00  0.00    +0.000 N 
ATOM     10  C   UNL     1      44.297   3.549   9.847  0.00  0.00    +0.000 C 
ATOM     11  O   UNL     1      44.007   2.372   9.693  0.00  0.00    +0.000 OA
ATOM     12  H   UNL     1      43.745   4.105   7.974  0.00  0.00    +0.000 HD
ATOM     13  H   UNL     1      44.537   5.370   8.845  0.00  0.00    +0.000 HD
ENDBRANCH   1  10
BRANCH   5  14
ATOM     14  C   UNL     1      47.188   4.072  15.536  0.00  0.00    +0.000 C 
BRANCH  14  15
ATOM     15  C   UNL     1      47.659   4.660  16.879  0.00  0.00    +0.000 C 
ATOM     16  C   UNL     1      48.816   5.646  16.657  0.00  0.00    +0.000 C 
ATOM     17  C   UNL     1      49.385   6.133  17.984  0.00  0.00    +0.000 C 
ATOM     18  O   UNL     1      49.788   5.033  18.797  0.00  0.00    +0.000 OA
ATOM     19  C   UNL     1      48.694   4.180  19.125  0.00  0.00    +0.000 C 
ATOM     20  C   UNL     1      48.091   3.568  17.869  0.00  0.00    +0.000 C 
ENDBRANCH  14  15
ENDBRANCH   5  14
TORSDOF 3
ENDMDL
MODEL 8
REMARK VINA RESULT:    -5.601      4.438      7.497
REMARK INTER + INTRA:          -6.961
REMARK INTER:                  -6.661
REMARK INTRA:                  -0.300
REMARK UNBOUND:                -0.377
REMARK  Name = 
REMARK  3 active torsions:
REMARK  status: ('A' for Active; 'I' for Inactive)
REMARK    1  A    between atoms: C_2  and  C_4
REMARK    2  A    between atoms: N_8  and  C_9
REMARK    3  A    between atoms: C_9  and  C_10
REMARK                            x       y       z     vdW  Elec       q    Type
REMARK                         _______ _______ _______ _____ _____    ______ ____
ROOT
ATOM      1  C   UNL     1      48.504   4.263  17.184  0.00  0.00    +0.000 A 
ATOM      2  C   UNL     1      48.385   5.505  16.569  0.00  0.00    +0.000 A 
ATOM      3  C   UNL     1      47.752   5.590  15.329  0.00  0.00    +0.000 A 
ATOM      4  C   UNL     1      47.239   4.435  14.731  0.00  0.00    +0.000 A 
ATOM      5  N   UNL     1      46.602   4.571  13.488  0.00  0.00    +0.000 N 
ATOM      6  N   UNL     1      47.387   3.224  15.304  0.00  0.00    +0.000 NA
ATOM      7  C   UNL     1      48.018   3.158  16.504  0.00  0.00    +0.000 A 
ATOM      8  H   UNL     1      45.916   5.316  13.542  0.00  0.00    +0.000 HD
ENDROOT
BRANCH   1  10
ATOM      9  N   UNL     1      48.467   3.267  19.395  0.00  0.00    +0.000 N 
ATOM     10  C   UNL     1      49.127   4.075  18.509  0.00  0.00    +0.000 C 
ATOM     11  O   UNL     1      50.206   4.576  18.790  0.00  0.00    +0.000 OA
ATOM     12  H   UNL     1      48.959   3.047  20.252  0.00  0.00    +0.000 HD
ATOM     13  H   UNL     1      47.729   2.640  19.109  0.00  0.00    +0.000 HD
ENDBRANCH   1  10
BRANCH   5  14
ATOM     14  C   UNL     1      46.044   3.333  12.946  0.00  0.00    +0.000 C 
BRANCH  14  15
ATOM     15  C   UNL     1      44.721   3.626  12.217  0.00  0.00    +0.000 C 
ATOM     16  C   UNL     1      44.987   4.015  10.755  0.00  0.00    +0.000 C 
ATOM     17  C   UNL     1      43.702   4.440  10.056  0.00  0.00    +0.000 C 
ATOM     18  O   UNL     1      43.063   5.498  10.768  0.00  0.00    +0.000 OA
ATOM     19  C   UNL     1      42.686   5.107  12.086  0.00  0.00    +0.000 C 
ATOM     20  C   UNL     1      43.911   4.732  12.909  0.00  0.00    +0.000 C 
ENDBRANCH  14  15
ENDBRANCH   5  14
TORSDOF 3
ENDMDL
MODEL 9
REMARK VINA RESULT:    -5.535      5.117      8.268
REMARK INTER + INTRA:          -6.883
REMARK INTER:                  -6.636
REMARK INTRA:                  -0.247
REMARK UNBOUND:                -0.377
REMARK  Name = 
REMARK  3 active torsions:
REMARK  status: ('A' for Active; 'I' for Inactive)
REMARK    1  A    between atoms: C_2  and  C_4
REMARK    2  A    between atoms: N_8  and  C_9
REMARK    3  A    between atoms: C_9  and  C_10
REMARK                            x       y       z     vdW  Elec       q    Type
REMARK                         _______ _______ _______ _____ _____    ______ ____
ROOT
ATOM      1  C   UNL     1      49.090   4.578  18.046  0.00  0.00    +0.000 A 
ATOM      2  C   UNL     1      48.094   3.606  18.050  0.00  0.00    +0.000 A 
ATOM      3  C   UNL     1      47.240   3.505  16.952  0.00  0.00    +0.000 A 
ATOM      4  C   UNL     1      47.404   4.367  15.865  0.00  0.00    +0.000 A 
ATOM      5  N   UNL     1      46.527   4.222  14.778  0.00  0.00    +0.000 N 
ATOM      6  N   UNL     1      48.342   5.335  15.872  0.00  0.00    +0.000 NA
ATOM      7  C   UNL     1      49.155   5.429  16.955  0.00  0.00    +0.000 A 
ATOM      8  H   UNL     1      46.497   3.247  14.499  0.00  0.00    +0.000 HD
ENDROOT
BRANCH   1  10
ATOM      9  N   UNL     1      51.215   4.008  19.066  0.00  0.00    +0.000 N 
ATOM     10  C   UNL     1      50.063   4.742  19.144  0.00  0.00    +0.000 C 
ATOM     11  O   UNL     1      49.873   5.532  20.058  0.00  0.00    +0.000 OA
ATOM     12  H   UNL     1      51.926   4.218  19.757  0.00  0.00    +0.000 HD
ATOM     13  H   UNL     1      51.515   3.559  18.213  0.00  0.00    +0.000 HD
ENDBRANCH   1  10
BRANCH   5  14
ATOM     14  C   UNL     1      46.788   5.120  13.655  0.00  0.00    +0.000 C 
BRANCH  14  15
ATOM     15  C   UNL     1      45.744   4.895  12.546  0.00  0.00    +0.000 C 
ATOM     16  C   UNL     1      44.479   5.722  12.823  0.00  0.00    +0.000 C 
ATOM     17  C   UNL     1      43.384   5.408  11.812  0.00  0.00    +0.000 C 
ATOM     18  O   UNL     1      43.098   4.011  11.792  0.00  0.00    +0.000 OA
ATOM     19  C   UNL     1      44.230   3.238  11.403  0.00  0.00    +0.000 C 
ATOM     20  C   UNL     1      45.370   3.413  12.395  0.00  0.00    +0.000 C 
ENDBRANCH  14  15
ENDBRANCH   5  14
TORSDOF 3
ENDMDL
