MODEL 1
REMARK VINA RESULT:    -8.905      0.000      0.000
REMARK INTER + INTRA:         -12.634
REMARK INTER:                 -11.508
REMARK INTRA:                  -1.126
REMARK UNBOUND:                -1.126
REMARK  Name = 
REMARK  5 active torsions:
REMARK  status: ('A' for Active; 'I' for Inactive)
REMARK    1  A    between atoms: C_2  and  C_4
REMARK    2  A    between atoms: C_7  and  N_8
REMARK    3  A    between atoms: N_8  and  C_9
REMARK    4  A    between atoms: C_9  and  C_10
REMARK    5  A    between atoms: C_14  and  C_15
REMARK                            x       y       z     vdW  Elec       q    Type
REMARK                         _______ _______ _______ _____ _____    ______ ____
ROOT
ATOM      1  C   UNL     1      43.564   4.684  11.318  0.00  0.00    +0.000 C 
ENDROOT
BRANCH   1   2
ATOM      2  C   UNL     1      44.839   5.024  12.050  0.00  0.00    +0.000 A 
ATOM      3  C   UNL     1      45.405   4.111  12.946  0.00  0.00    +0.000 A 
ATOM      4  C   UNL     1      46.604   4.412  13.583  0.00  0.00    +0.000 A 
ATOM      5  C   UNL     1      47.251   5.624  13.326  0.00  0.00    +0.000 A 
ATOM      6  C   UNL     1      46.728   6.561  12.415  0.00  0.00    +0.000 A 
ATOM      7  C   UNL     1      45.507   6.236  11.794  0.00  0.00    +0.000 A 
BRANCH   6   8
ATOM      8  C   UNL     1      47.446   7.820  12.105  0.00  0.00    +0.000 A 
ATOM      9  C   UNL     1      48.800   7.827  11.713  0.00  0.00    +0.000 A 
ATOM     10  C   UNL     1      49.481   9.019  11.438  0.00  0.00    +0.000 A 
ATOM     11  C   UNL     1      48.817  10.237  11.537  0.00  0.00    +0.000 A 
ATOM     12  C   UNL     1      47.485  10.250  11.917  0.00  0.00    +0.000 A 
ATOM     13  F   UNL     1      46.839  11.419  12.016  0.00  0.00    +0.000 F 
ATOM     14  C   UNL     1      46.805   9.068  12.205  0.00  0.00    +0.000 A 
ENDBRANCH   6   8
ENDBRANCH   1   2
BRANCH   1  15
ATOM     15  N   UNL     1      43.734   4.850   9.883  0.00  0.00    +0.000 N 
ATOM     16  H   UNL     1      42.881   5.102   9.390  0.00  0.00    +0.000 HD
BRANCH  15  20
ATOM     17  C   UNL     1      46.368   2.272   7.818  0.00  0.00    +0.000 A 
ATOM     18  C   UNL     1      45.426   1.734   8.695  0.00  0.00    +0.000 A 
ATOM     19  C   UNL     1      44.534   2.576   9.370  0.00  0.00    +0.000 A 
ATOM     20  C   UNL     1      44.542   3.962   9.166  0.00  0.00    +0.000 A 
ATOM     21  C   UNL     1      45.507   4.486   8.295  0.00  0.00    +0.000 A 
ATOM     22  C   UNL     1      46.416   3.656   7.630  0.00  0.00    +0.000 A 
BRANCH  17  24
ATOM     23  N   UNL     1      48.428   2.040   6.544  0.00  0.00    +0.000 N 
ATOM     24  C   UNL     1      47.355   1.414   7.119  0.00  0.00    +0.000 C 
ATOM     25  O   UNL     1      47.241   0.195   7.080  0.00  0.00    +0.000 OA
ATOM     26  H   UNL     1      49.143   1.436   6.156  0.00  0.00    +0.000 HD
ATOM     27  H   UNL     1      48.685   2.991   6.766  0.00  0.00    +0.000 HD
ENDBRANCH  17  24
ENDBRANCH  15  20
ENDBRANCH   1  15
TORSDOF 5
ENDMDL
MODEL 2
REMARK VINA RESULT:    -8.897      0.916      1.340
REMARK INTER + INTRA:         -12.623
REMARK INTER:                 -11.497
REMARK INTRA:                  -1.127
REMARK UNBOUND:                -1.126
REMARK  Name = 
REMARK  5 active torsions:
REMARK  status: ('A' for Active; 'I' for Inactive)
REMARK    1  A    between atoms: C_2  and  C_4
REMARK    2  A    between atoms: C_7  and  N_8
REMARK    3  A    between atoms: N_8  and  C_9
REMARK    4  A    between atoms: C_9  and  C_10
REMARK    5  A    between atoms: C_14  and  C_15
REMARK                            x       y       z     vdW  Elec       q    Type
REMARK                         _______ _______ _______ _____ _____    ______ ____
ROOT
ATOM      1  C   UNL     1      43.641   4.608  11.439  0.00  0.00    +0.000 C 
ENDROOT
BRANCH   1   2
ATOM      2  C   UNL     1      44.923   5.004  12.128  0.00  0.00    +0.000 A 
ATOM      3  C   UNL     1      45.574   4.108  12.980  0.00  0.00    +0.000 A 
ATOM      4  C   UNL     1      46.779   4.462  13.576  0.00  0.00    +0.000 A 
ATOM      5  C   UNL     1      47.348   5.713  13.321  0.00  0.00    +0.000 A 
ATOM      6  C   UNL     1      46.738   6.637  12.452  0.00  0.00    +0.000 A 
ATOM      7  C   UNL     1      45.513   6.257  11.871  0.00  0.00    +0.000 A 
BRANCH   6   8
ATOM      8  C   UNL     1      47.372   7.940  12.141  0.00  0.00    +0.000 A 
ATOM      9  C   UNL     1      46.658   9.153  12.224  0.00  0.00    +0.000 A 
ATOM     10  C   UNL     1      47.255  10.381  11.913  0.00  0.00    +0.000 A 
ATOM     11  C   UNL     1      48.589  10.426  11.519  0.00  0.00    +0.000 A 
ATOM     12  C   UNL     1      49.306   9.244  11.435  0.00  0.00    +0.000 A 
ATOM     13  F   UNL     1      50.591   9.279  11.056  0.00  0.00    +0.000 F 
ATOM     14  C   UNL     1      48.715   8.018  11.731  0.00  0.00    +0.000 A 
ENDBRANCH   6   8
ENDBRANCH   1   2
BRANCH   1  15
ATOM     15  N   UNL     1      43.753   4.784   9.999  0.00  0.00    +0.000 N 
ATOM     16  H   UNL     1      42.878   5.026   9.540  0.00  0.00    +0.000 HD
BRANCH  15  20
ATOM     17  C   UNL     1      46.342   2.256   7.819  0.00  0.00    +0.000 A 
ATOM     18  C   UNL     1      45.444   1.700   8.730  0.00  0.00    +0.000 A 
ATOM     19  C   UNL     1      44.567   2.525   9.444  0.00  0.00    +0.000 A 
ATOM     20  C   UNL     1      44.545   3.912   9.246  0.00  0.00    +0.000 A 
ATOM     21  C   UNL     1      45.466   4.454   8.340  0.00  0.00    +0.000 A 
ATOM     22  C   UNL     1      46.361   3.641   7.635  0.00  0.00    +0.000 A 
BRANCH  17  24
ATOM     23  N   UNL     1      48.424   2.042   6.578  0.00  0.00    +0.000 N 
ATOM     24  C   UNL     1      47.314   1.416   7.077  0.00  0.00    +0.000 C 
ATOM     25  O   UNL     1      47.155   0.210   6.940  0.00  0.00    +0.000 OA
ATOM     26  H   UNL     1      49.126   1.442   6.160  0.00  0.00    +0.000 HD
ATOM     27  H   UNL     1      48.711   2.961   6.880  0.00  0.00    +0.000 HD
ENDBRANCH  17  24
ENDBRANCH  15  20
ENDBRANCH   1  15
TORSDOF 5
ENDMDL
MODEL 3
REMARK VINA RESULT:    -8.840      2.735      4.059
REMARK INTER + INTRA:         -12.550
REMARK INTER:                 -11.727
REMARK INTRA:                  -0.822
REMARK UNBOUND:                -1.126
REMARK  Name = 
REMARK  5 active torsions:
REMARK  status: ('A' for Active; 'I' for Inactive)
REMARK    1  A    between atoms: C_2  and  C_4
REMARK    2  A    between atoms: C_7  and  N_8
REMARK    3  A    between atoms: N_8  and  C_9
REMARK    4  A    between atoms: C_9  and  C_10
REMARK    5  A    between atoms: C_14  and  C_15
REMARK                            x       y       z     vdW  Elec       q    Type
REMARK                         _______ _______ _______ _____ _____    ______ ____
ROOT
ATOM      1  C   UNL     1      43.947   4.714  11.502  0.00  0.00    +0.000 C 
ENDROOT
BRANCH   1   2
ATOM      2  C   UNL     1      45.244   5.314  11.987  0.00  0.00    +0.000 A 
ATOM      3  C   UNL     1      45.880   6.314  11.245  0.00  0.00    +0.000 A 
ATOM      4  C   UNL     1      47.050   6.896  11.720  0.00  0.00    +0.000 A 
ATOM      5  C   UNL     1      47.592   6.489  12.942  0.00  0.00    +0.000 A 
ATOM      6  C   UNL     1      46.971   5.502  13.731  0.00  0.00    +0.000 A 
ATOM      7  C   UNL     1      45.795   4.922  13.222  0.00  0.00    +0.000 A 
BRANCH   6   8
ATOM      8  C   UNL     1      47.519   5.113  15.053  0.00  0.00    +0.000 A 
ATOM      9  C   UNL     1      48.504   5.882  15.705  0.00  0.00    +0.000 A 
ATOM     10  C   UNL     1      49.032   5.503  16.945  0.00  0.00    +0.000 A 
ATOM     11  C   UNL     1      48.577   4.347  17.570  0.00  0.00    +0.000 A 
ATOM     12  C   UNL     1      47.606   3.581  16.946  0.00  0.00    +0.000 A 
ATOM     13  F   UNL     1      47.163   2.465  17.541  0.00  0.00    +0.000 F 
ATOM     14  C   UNL     1      47.085   3.946  15.706  0.00  0.00    +0.000 A 
ENDBRANCH   6   8
ENDBRANCH   1   2
BRANCH   1  15
ATOM     15  N   UNL     1      43.861   4.776  10.051  0.00  0.00    +0.000 N 
ATOM     16  H   UNL     1      42.918   4.914   9.696  0.00  0.00    +0.000 HD
BRANCH  15  20
ATOM     17  C   UNL     1      46.357   2.258   7.754  0.00  0.00    +0.000 A 
ATOM     18  C   UNL     1      45.551   1.705   8.750  0.00  0.00    +0.000 A 
ATOM     19  C   UNL     1      44.704   2.526   9.504  0.00  0.00    +0.000 A 
ATOM     20  C   UNL     1      44.621   3.904   9.266  0.00  0.00    +0.000 A 
ATOM     21  C   UNL     1      45.451   4.444   8.274  0.00  0.00    +0.000 A 
ATOM     22  C   UNL     1      46.316   3.636   7.527  0.00  0.00    +0.000 A 
BRANCH  17  24
ATOM     23  N   UNL     1      48.445   2.025   6.528  0.00  0.00    +0.000 N 
ATOM     24  C   UNL     1      47.296   1.424   6.965  0.00  0.00    +0.000 C 
ATOM     25  O   UNL     1      47.077   0.241   6.737  0.00  0.00    +0.000 OA
ATOM     26  H   UNL     1      49.122   1.421   6.076  0.00  0.00    +0.000 HD
ATOM     27  H   UNL     1      48.775   2.903   6.901  0.00  0.00    +0.000 HD
ENDBRANCH  17  24
ENDBRANCH  15  20
ENDBRANCH   1  15
TORSDOF 5
ENDMDL
MODEL 4
REMARK VINA RESULT:    -8.338      1.765      2.203
REMARK INTER + INTRA:         -11.901
REMARK INTER:                 -10.827
REMARK INTRA:                  -1.075
REMARK UNBOUND:                -1.126
REMARK  Name = 
REMARK  5 active torsions:
REMARK  status: ('A' for Active; 'I' for Inactive)
REMARK    1  A    between atoms: C_2  and  C_4
REMARK    2  A    between atoms: C_7  and  N_8
REMARK    3  A    between atoms: N_8  and  C_9
REMARK    4  A    between atoms: C_9  and  C_10
REMARK    5  A    between atoms: C_14  and  C_15
REMARK                            x       y       z     vdW  Elec       q    Type
REMARK                         _______ _______ _______ _____ _____    ______ ____
ROOT
ATOM      1  C   UNL     1      44.016   3.712  12.017  0.00  0.00    +0.000 C 
ENDROOT
BRANCH   1   2
ATOM      2  C   UNL     1      44.943   4.836  12.408  0.00  0.00    +0.000 A 
ATOM      3  C   UNL     1      46.121   4.569  13.113  0.00  0.00    +0.000 A 
ATOM      4  C   UNL     1      46.994   5.603  13.430  0.00  0.00    +0.000 A 
ATOM      5  C   UNL     1      46.702   6.913  13.040  0.00  0.00    +0.000 A 
ATOM      6  C   UNL     1      45.540   7.223  12.309  0.00  0.00    +0.000 A 
ATOM      7  C   UNL     1      44.668   6.159  12.012  0.00  0.00    +0.000 A 
BRANCH   6   8
ATOM      8  C   UNL     1      45.262   8.605  11.849  0.00  0.00    +0.000 A 
ATOM      9  C   UNL     1      46.103   9.685  12.190  0.00  0.00    +0.000 A 
ATOM     10  C   UNL     1      45.829  10.992  11.769  0.00  0.00    +0.000 A 
ATOM     11  C   UNL     1      44.709  11.249  10.984  0.00  0.00    +0.000 A 
ATOM     12  C   UNL     1      43.874  10.200  10.637  0.00  0.00    +0.000 A 
ATOM     13  F   UNL     1      42.793  10.440   9.883  0.00  0.00    +0.000 F 
ATOM     14  C   UNL     1      44.134   8.899  11.063  0.00  0.00    +0.000 A 
ENDBRANCH   6   8
ENDBRANCH   1   2
BRANCH   1  15
ATOM     15  N   UNL     1      43.613   3.837  10.625  0.00  0.00    +0.000 N 
ATOM     16  H   UNL     1      42.640   3.597  10.450  0.00  0.00    +0.000 HD
BRANCH  15  20
ATOM     17  C   UNL     1      46.388   2.691   7.653  0.00  0.00    +0.000 A 
ATOM     18  C   UNL     1      45.790   1.714   8.448  0.00  0.00    +0.000 A 
ATOM     19  C   UNL     1      44.854   2.079   9.423  0.00  0.00    +0.000 A 
ATOM     20  C   UNL     1      44.473   3.414   9.606  0.00  0.00    +0.000 A 
ATOM     21  C   UNL     1      45.098   4.384   8.811  0.00  0.00    +0.000 A 
ATOM     22  C   UNL     1      46.050   4.033   7.847  0.00  0.00    +0.000 A 
BRANCH  17  24
ATOM     23  N   UNL     1      47.400   3.055   5.470  0.00  0.00    +0.000 N 
ATOM     24  C   UNL     1      47.415   2.345   6.640  0.00  0.00    +0.000 C 
ATOM     25  O   UNL     1      48.263   1.486   6.845  0.00  0.00    +0.000 OA
ATOM     26  H   UNL     1      48.165   2.878   4.829  0.00  0.00    +0.000 HD
ATOM     27  H   UNL     1      46.892   3.922   5.367  0.00  0.00    +0.000 HD
ENDBRANCH  17  24
ENDBRANCH  15  20
ENDBRANCH   1  15
TORSDOF 5
ENDMDL
MODEL 5
REMARK VINA RESULT:    -8.213      3.913      7.034
REMARK INTER + INTRA:         -11.740
REMARK INTER:                 -10.736
REMARK INTRA:                  -1.004
REMARK UNBOUND:                -1.126
REMARK  Name = 
REMARK  5 active torsions:
REMARK  status: ('A' for Active; 'I' for Inactive)
REMARK    1  A    between atoms: C_2  and  C_4
REMARK    2  A    between atoms: C_7  and  N_8
REMARK    3  A    between atoms: N_8  and  C_9
REMARK    4  A    between atoms: C_9  and  C_10
REMARK    5  A    between atoms: C_14  and  C_15
REMARK                            x       y       z     vdW  Elec       q    Type
REMARK                         _______ _______ _______ _____ _____    ______ ____
ROOT
ATOM      1  C   UNL     1      43.884   6.731  11.385  0.00  0.00    +0.000 C 
ENDROOT
BRANCH   1   2
ATOM      2  C   UNL     1      43.964   5.248  11.123  0.00  0.00    +0.000 A 
ATOM      3  C   UNL     1      43.211   4.353  11.889  0.00  0.00    +0.000 A 
ATOM      4  C   UNL     1      43.254   2.991  11.613  0.00  0.00    +0.000 A 
ATOM      5  C   UNL     1      44.045   2.511  10.566  0.00  0.00    +0.000 A 
ATOM      6  C   UNL     1      44.801   3.379   9.755  0.00  0.00    +0.000 A 
ATOM      7  C   UNL     1      44.748   4.751  10.064  0.00  0.00    +0.000 A 
BRANCH   6   8
ATOM      8  C   UNL     1      45.595   2.871   8.611  0.00  0.00    +0.000 A 
ATOM      9  C   UNL     1      46.030   3.720   7.573  0.00  0.00    +0.000 A 
ATOM     10  C   UNL     1      46.765   3.235   6.485  0.00  0.00    +0.000 A 
ATOM     11  C   UNL     1      47.092   1.884   6.413  0.00  0.00    +0.000 A 
ATOM     12  C   UNL     1      46.675   1.036   7.425  0.00  0.00    +0.000 A 
ATOM     13  F   UNL     1      46.985  -0.266   7.364  0.00  0.00    +0.000 F 
ATOM     14  C   UNL     1      45.933   1.510   8.505  0.00  0.00    +0.000 A 
ENDBRANCH   6   8
ENDBRANCH   1   2
BRANCH   1  15
ATOM     15  N   UNL     1      44.580   7.076  12.615  0.00  0.00    +0.000 N 
ATOM     16  H   UNL     1      44.064   7.711  13.220  0.00  0.00    +0.000 HD
BRANCH  15  20
ATOM     17  C   UNL     1      48.754   7.680  12.380  0.00  0.00    +0.000 A 
ATOM     18  C   UNL     1      47.889   8.737  12.094  0.00  0.00    +0.000 A 
ATOM     19  C   UNL     1      46.504   8.555  12.188  0.00  0.00    +0.000 A 
ATOM     20  C   UNL     1      45.954   7.333  12.594  0.00  0.00    +0.000 A 
ATOM     21  C   UNL     1      46.838   6.277  12.859  0.00  0.00    +0.000 A 
ATOM     22  C   UNL     1      48.223   6.442  12.750  0.00  0.00    +0.000 A 
BRANCH  17  24
ATOM     23  N   UNL     1      50.950   7.875  13.409  0.00  0.00    +0.000 N 
ATOM     24  C   UNL     1      50.224   7.825  12.249  0.00  0.00    +0.000 C 
ATOM     25  O   UNL     1      50.777   7.866  11.157  0.00  0.00    +0.000 OA
ATOM     26  H   UNL     1      51.959   7.875  13.305  0.00  0.00    +0.000 HD
ATOM     27  H   UNL     1      50.570   7.596  14.301  0.00  0.00    +0.000 HD
ENDBRANCH  17  24
ENDBRANCH  15  20
ENDBRANCH   1  15
TORSDOF 5
ENDMDL
MODEL 6
REMARK VINA RESULT:    -7.720      4.199      7.528
REMARK INTER + INTRA:         -11.103
REMARK INTER:                 -10.403
REMARK INTRA:                  -0.701
REMARK UNBOUND:                -1.126
REMARK  Name = 
REMARK  5 active torsions:
REMARK  status: ('A' for Active; 'I' for Inactive)
REMARK    1  A    between atoms: C_2  and  C_4
REMARK    2  A    between atoms: C_7  and  N_8
REMARK    3  A    between atoms: N_8  and  C_9
REMARK    4  A    between atoms: C_9  and  C_10
REMARK    5  A    between atoms: C_14  and  C_15
REMARK                            x       y       z     vdW  Elec       q    Type
REMARK                         _______ _______ _______ _____ _____    ______ ____
ROOT
ATOM      1  C   UNL     1      45.950   7.381  11.777  0.00  0.00    +0.000 C 
ENDROOT
BRANCH   1   2
ATOM      2  C   UNL     1      45.190   6.222  11.182  0.00  0.00    +0.000 A 
ATOM      3  C   UNL     1      43.849   6.009  11.518  0.00  0.00    +0.000 A 
ATOM      4  C   UNL     1      43.141   4.966  10.931  0.00  0.00    +0.000 A 
ATOM      5  C   UNL     1      43.764   4.131   9.999  0.00  0.00    +0.000 A 
ATOM      6  C   UNL     1      45.104   4.324   9.615  0.00  0.00    +0.000 A 
ATOM      7  C   UNL     1      45.801   5.379  10.234  0.00  0.00    +0.000 A 
BRANCH   6   8
ATOM      8  C   UNL     1      45.744   3.471   8.585  0.00  0.00    +0.000 A 
ATOM      9  C   UNL     1      46.307   4.016   7.414  0.00  0.00    +0.000 A 
ATOM     10  C   UNL     1      46.895   3.206   6.435  0.00  0.00    +0.000 A 
ATOM     11  C   UNL     1      46.942   1.826   6.610  0.00  0.00    +0.000 A 
ATOM     12  C   UNL     1      46.396   1.274   7.757  0.00  0.00    +0.000 A 
ATOM     13  F   UNL     1      46.436  -0.054   7.932  0.00  0.00    +0.000 F 
ATOM     14  C   UNL     1      45.799   2.073   8.729  0.00  0.00    +0.000 A 
ENDBRANCH   6   8
ENDBRANCH   1   2
BRANCH   1  15
ATOM     15  N   UNL     1      47.273   6.961  12.213  0.00  0.00    +0.000 N 
ATOM     16  H   UNL     1      47.824   6.506  11.489  0.00  0.00    +0.000 HD
BRANCH  15  20
ATOM     17  C   UNL     1      47.880   5.025  15.918  0.00  0.00    +0.000 A 
ATOM     18  C   UNL     1      48.531   6.230  15.657  0.00  0.00    +0.000 A 
ATOM     19  C   UNL     1      48.323   6.892  14.442  0.00  0.00    +0.000 A 
ATOM     20  C   UNL     1      47.444   6.385  13.476  0.00  0.00    +0.000 A 
ATOM     21  C   UNL     1      46.813   5.164  13.747  0.00  0.00    +0.000 A 
ATOM     22  C   UNL     1      47.029   4.483  14.951  0.00  0.00    +0.000 A 
BRANCH  17  24
ATOM     23  N   UNL     1      47.151   4.378  18.147  0.00  0.00    +0.000 N 
ATOM     24  C   UNL     1      48.110   4.275  17.177  0.00  0.00    +0.000 C 
ATOM     25  O   UNL     1      49.097   3.568  17.339  0.00  0.00    +0.000 OA
ATOM     26  H   UNL     1      47.271   3.785  18.960  0.00  0.00    +0.000 HD
ATOM     27  H   UNL     1      46.226   4.736  17.961  0.00  0.00    +0.000 HD
ENDBRANCH  17  24
ENDBRANCH  15  20
ENDBRANCH   1  15
TORSDOF 5
ENDMDL
MODEL 7
REMARK VINA RESULT:    -7.656      2.444      3.062
REMARK INTER + INTRA:         -11.019
REMARK INTER:                 -10.139
REMARK INTRA:                  -0.880
REMARK UNBOUND:                -1.126
REMARK  Name = 
REMARK  5 active torsions:
REMARK  status: ('A' for Active; 'I' for Inactive)
REMARK    1  A    between atoms: C_2  and  C_4
REMARK    2  A    between atoms: C_7  and  N_8
REMARK    3  A    between atoms: N_8  and  C_9
REMARK    4  A    between atoms: C_9  and  C_10
REMARK    5  A    between atoms: C_14  and  C_15
REMARK                            x       y       z     vdW  Elec       q    Type
REMARK                         _______ _______ _______ _____ _____    ______ ____
ROOT
ATOM      1  C   UNL     1      44.660   4.057  11.942  0.00  0.00    +0.000 C 
ENDROOT
BRANCH   1   2
ATOM      2  C   UNL     1      45.245   5.415  12.241  0.00  0.00    +0.000 A 
ATOM      3  C   UNL     1      44.581   6.576  11.833  0.00  0.00    +0.000 A 
ATOM      4  C   UNL     1      45.103   7.825  12.152  0.00  0.00    +0.000 A 
ATOM      5  C   UNL     1      46.289   7.926  12.884  0.00  0.00    +0.000 A 
ATOM      6  C   UNL     1      46.977   6.783  13.333  0.00  0.00    +0.000 A 
ATOM      7  C   UNL     1      46.433   5.532  12.987  0.00  0.00    +0.000 A 
BRANCH   6   8
ATOM      8  C   UNL     1      48.205   6.895  14.157  0.00  0.00    +0.000 A 
ATOM      9  C   UNL     1      49.320   7.644  13.731  0.00  0.00    +0.000 A 
ATOM     10  C   UNL     1      50.485   7.733  14.503  0.00  0.00    +0.000 A 
ATOM     11  C   UNL     1      50.557   7.082  15.731  0.00  0.00    +0.000 A 
ATOM     12  C   UNL     1      49.469   6.344  16.167  0.00  0.00    +0.000 A 
ATOM     13  F   UNL     1      49.531   5.713  17.347  0.00  0.00    +0.000 F 
ATOM     14  C   UNL     1      48.311   6.241  15.398  0.00  0.00    +0.000 A 
ENDBRANCH   6   8
ENDBRANCH   1   2
BRANCH   1  15
ATOM     15  N   UNL     1      44.110   4.017  10.596  0.00  0.00    +0.000 N 
ATOM     16  H   UNL     1      43.140   3.713  10.551  0.00  0.00    +0.000 HD
BRANCH  15  20
ATOM     17  C   UNL     1      46.642   2.682   7.489  0.00  0.00    +0.000 A 
ATOM     18  C   UNL     1      46.033   1.750   8.329  0.00  0.00    +0.000 A 
ATOM     19  C   UNL     1      45.176   2.178   9.349  0.00  0.00    +0.000 A 
ATOM     20  C   UNL     1      44.885   3.535   9.537  0.00  0.00    +0.000 A 
ATOM     21  C   UNL     1      45.521   4.459   8.696  0.00  0.00    +0.000 A 
ATOM     22  C   UNL     1      46.395   4.043   7.685  0.00  0.00    +0.000 A 
BRANCH  17  24
ATOM     23  N   UNL     1      47.799   3.148   5.400  0.00  0.00    +0.000 N 
ATOM     24  C   UNL     1      47.588   2.267   6.426  0.00  0.00    +0.000 C 
ATOM     25  O   UNL     1      48.184   1.198   6.470  0.00  0.00    +0.000 OA
ATOM     26  H   UNL     1      48.520   2.895   4.734  0.00  0.00    +0.000 HD
ATOM     27  H   UNL     1      47.530   4.120   5.455  0.00  0.00    +0.000 HD
ENDBRANCH  17  24
ENDBRANCH  15  20
ENDBRANCH   1  15
TORSDOF 5
ENDMDL
MODEL 8
REMARK VINA RESULT:    -7.534      3.683      7.162
REMARK INTER + INTRA:         -10.862
REMARK INTER:                 -10.216
REMARK INTRA:                  -0.646
REMARK UNBOUND:                -1.126
REMARK  Name = 
REMARK  5 active torsions:
REMARK  status: ('A' for Active; 'I' for Inactive)
REMARK    1  A    between atoms: C_2  and  C_4
REMARK    2  A    between atoms: C_7  and  N_8
REMARK    3  A    between atoms: N_8  and  C_9
REMARK    4  A    between atoms: C_9  and  C_10
REMARK    5  A    between atoms: C_14  and  C_15
REMARK                            x       y       z     vdW  Elec       q    Type
REMARK                         _______ _______ _______ _____ _____    ______ ____
ROOT
ATOM      1  C   UNL     1      43.709   6.344  11.215  0.00  0.00    +0.000 C 
ENDROOT
BRANCH   1   2
ATOM      2  C   UNL     1      43.879   4.875  10.920  0.00  0.00    +0.000 A 
ATOM      3  C   UNL     1      43.179   3.919  11.664  0.00  0.00    +0.000 A 
ATOM      4  C   UNL     1      43.305   2.569  11.357  0.00  0.00    +0.000 A 
ATOM      5  C   UNL     1      44.126   2.161  10.302  0.00  0.00    +0.000 A 
ATOM      6  C   UNL     1      44.829   3.091   9.514  0.00  0.00    +0.000 A 
ATOM      7  C   UNL     1      44.693   4.450   9.853  0.00  0.00    +0.000 A 
BRANCH   6   8
ATOM      8  C   UNL     1      45.655   2.657   8.361  0.00  0.00    +0.000 A 
ATOM      9  C   UNL     1      46.245   1.378   8.309  0.00  0.00    +0.000 A 
ATOM     10  C   UNL     1      47.038   0.978   7.227  0.00  0.00    +0.000 A 
ATOM     11  C   UNL     1      47.252   1.848   6.162  0.00  0.00    +0.000 A 
ATOM     12  C   UNL     1      46.677   3.108   6.195  0.00  0.00    +0.000 A 
ATOM     13  F   UNL     1      46.879   3.952   5.175  0.00  0.00    +0.000 F 
ATOM     14  C   UNL     1      45.897   3.517   7.274  0.00  0.00    +0.000 A 
ENDBRANCH   6   8
ENDBRANCH   1   2
BRANCH   1  15
ATOM     15  N   UNL     1      44.964   7.056  11.028  0.00  0.00    +0.000 N 
ATOM     16  H   UNL     1      45.387   6.920  10.113  0.00  0.00    +0.000 HD
BRANCH  15  20
ATOM     17  C   UNL     1      47.913   7.017  14.052  0.00  0.00    +0.000 A 
ATOM     18  C   UNL     1      47.746   8.159  13.270  0.00  0.00    +0.000 A 
ATOM     19  C   UNL     1      46.759   8.192  12.278  0.00  0.00    +0.000 A 
ATOM     20  C   UNL     1      45.902   7.105  12.064  0.00  0.00    +0.000 A 
ATOM     21  C   UNL     1      46.097   5.959  12.847  0.00  0.00    +0.000 A 
ATOM     22  C   UNL     1      47.094   5.907  13.828  0.00  0.00    +0.000 A 
BRANCH  17  24
ATOM     23  N   UNL     1      48.573   6.777  16.382  0.00  0.00    +0.000 N 
ATOM     24  C   UNL     1      48.976   6.931  15.083  0.00  0.00    +0.000 C 
ATOM     25  O   UNL     1      50.165   6.965  14.791  0.00  0.00    +0.000 OA
ATOM     26  H   UNL     1      49.308   6.621  17.063  0.00  0.00    +0.000 HD
ATOM     27  H   UNL     1      47.636   6.496  16.631  0.00  0.00    +0.000 HD
ENDBRANCH  17  24
ENDBRANCH  15  20
ENDBRANCH   1  15
TORSDOF 5
ENDMDL
MODEL 9
REMARK VINA RESULT:    -6.579      4.551      7.751
REMARK INTER + INTRA:          -9.628
REMARK INTER:                  -8.859
REMARK INTRA:                  -0.769
REMARK UNBOUND:                -1.126
REMARK  Name = 
REMARK  5 active torsions:
REMARK  status: ('A' for Active; 'I' for Inactive)
REMARK    1  A    between atoms: C_2  and  C_4
REMARK    2  A    between atoms: C_7  and  N_8
REMARK    3  A    between atoms: N_8  and  C_9
REMARK    4  A    between atoms: C_9  and  C_10
REMARK    5  A    between atoms: C_14  and  C_15
REMARK                            x       y       z     vdW  Elec       q    Type
REMARK                         _______ _______ _______ _____ _____    ______ ____
ROOT
ATOM      1  C   UNL     1      48.666   7.524  13.162  0.00  0.00    +0.000 C 
ENDROOT
BRANCH   1   2
ATOM      2  C   UNL     1      47.277   7.422  12.583  0.00  0.00    +0.000 A 
ATOM      3  C   UNL     1      46.370   8.476  12.730  0.00  0.00    +0.000 A 
ATOM      4  C   UNL     1      45.107   8.394  12.155  0.00  0.00    +0.000 A 
ATOM      5  C   UNL     1      44.740   7.262  11.423  0.00  0.00    +0.000 A 
ATOM      6  C   UNL     1      45.630   6.188  11.230  0.00  0.00    +0.000 A 
ATOM      7  C   UNL     1      46.897   6.292  11.833  0.00  0.00    +0.000 A 
BRANCH   6   8
ATOM      8  C   UNL     1      45.257   5.014  10.406  0.00  0.00    +0.000 A 
ATOM      9  C   UNL     1      44.510   3.942  10.935  0.00  0.00    +0.000 A 
ATOM     10  C   UNL     1      44.174   2.826  10.159  0.00  0.00    +0.000 A 
ATOM     11  C   UNL     1      44.569   2.761   8.826  0.00  0.00    +0.000 A 
ATOM     12  C   UNL     1      45.300   3.807   8.289  0.00  0.00    +0.000 A 
ATOM     13  F   UNL     1      45.686   3.752   7.007  0.00  0.00    +0.000 F 
ATOM     14  C   UNL     1      45.649   4.915   9.059  0.00  0.00    +0.000 A 
ENDBRANCH   6   8
ENDBRANCH   1   2
BRANCH   1  15
ATOM     15  N   UNL     1      48.610   7.786  14.592  0.00  0.00    +0.000 N 
ATOM     16  H   UNL     1      49.104   8.628  14.880  0.00  0.00    +0.000 HD
BRANCH  15  20
ATOM     17  C   UNL     1      49.030   4.452  17.153  0.00  0.00    +0.000 A 
ATOM     18  C   UNL     1      49.969   5.482  17.204  0.00  0.00    +0.000 A 
ATOM     19  C   UNL     1      49.831   6.601  16.375  0.00  0.00    +0.000 A 
ATOM     20  C   UNL     1      48.744   6.733  15.502  0.00  0.00    +0.000 A 
ATOM     21  C   UNL     1      47.819   5.681  15.451  0.00  0.00    +0.000 A 
ATOM     22  C   UNL     1      47.958   4.548  16.261  0.00  0.00    +0.000 A 
BRANCH  17  24
ATOM     23  N   UNL     1      48.457   3.193  19.154  0.00  0.00    +0.000 N 
ATOM     24  C   UNL     1      49.168   3.233  17.986  0.00  0.00    +0.000 C 
ATOM     25  O   UNL     1      49.861   2.286  17.636  0.00  0.00    +0.000 OA
ATOM     26  H   UNL     1      48.483   2.317  19.664  0.00  0.00    +0.000 HD
ATOM     27  H   UNL     1      47.696   3.827  19.350  0.00  0.00    +0.000 HD
ENDBRANCH  17  24
ENDBRANCH  15  20
ENDBRANCH   1  15
TORSDOF 5
ENDMDL
