MODEL 1
REMARK VINA RESULT:    -7.712      0.000      0.000
REMARK INTER + INTRA:          -9.829
REMARK INTER:                  -9.741
REMARK INTRA:                  -0.088
REMARK UNBOUND:                -0.088
REMARK  Name = 
REMARK  5 active torsions:
REMARK  status: ('A' for Active; 'I' for Inactive)
REMARK    1  A    between atoms: N_1  and  C_2
REMARK    2  A    between atoms: C_2  and  C_3
REMARK    3  A    between atoms: C_5  and  C_6
REMARK    4  A    between atoms: C_6  and  N_7
REMARK    5  A    between atoms: C_14  and  C_15
REMARK                            x       y       z     vdW  Elec       q    Type
REMARK                         _______ _______ _______ _____ _____    ______ ____
ROOT
ATOM      1  N   UNL     1      44.465   4.111  10.595  0.00  0.00    +0.000 N 
ATOM      2  C   UNL     1      43.868   3.126  11.343  0.00  0.00    +0.000 A 
ATOM      3  C   UNL     1      44.325   3.228  12.633  0.00  0.00    +0.000 A 
ATOM      4  C   UNL     1      45.245   4.306  12.677  0.00  0.00    +0.000 A 
ATOM      5  C   UNL     1      46.015   4.868  13.711  0.00  0.00    +0.000 A 
ATOM      6  C   UNL     1      46.856   5.942  13.428  0.00  0.00    +0.000 A 
ATOM      7  F   UNL     1      47.582   6.437  14.447  0.00  0.00    +0.000 F 
ATOM      8  C   UNL     1      46.949   6.481  12.146  0.00  0.00    +0.000 A 
ATOM      9  C   UNL     1      46.172   5.940  11.102  0.00  0.00    +0.000 A 
ATOM     10  C   UNL     1      45.328   4.848  11.388  0.00  0.00    +0.000 A 
ENDROOT
BRANCH   8  11
ATOM     11  C   UNL     1      47.858   7.620  11.833  0.00  0.00    +0.000 C 
ATOM     12  N   UNL     1      47.406   8.893  12.065  0.00  0.00    +0.000 N 
ATOM     13  O   UNL     1      48.983   7.435  11.387  0.00  0.00    +0.000 OA
ATOM     14  H   UNL     1      46.483   9.093  12.433  0.00  0.00    +0.000 HD
ATOM     15  H   UNL     1      48.029   9.665  11.864  0.00  0.00    +0.000 HD
ENDBRANCH   8  11
BRANCH   1  16
ATOM     16  C   UNL     1      44.141   4.355   9.195  0.00  0.00    +0.000 C 
BRANCH  16  19
ATOM     17  C   UNL     1      46.579   2.469   7.037  0.00  0.00    +0.000 C 
ATOM     18  C   UNL     1      45.943   3.789   7.450  0.00  0.00    +0.000 C 
ATOM     19  C   UNL     1      44.730   3.326   8.232  0.00  0.00    +0.000 C 
ATOM     20  C   UNL     1      45.300   2.115   8.956  0.00  0.00    +0.000 C 
ATOM     21  O   UNL     1      46.264   1.517   8.076  0.00  0.00    +0.000 OA
BRANCH  17  22
ATOM     22  C   UNL     1      48.096   2.536   6.801  0.00  0.00    +0.000 C 
BRANCH  22  23
ATOM     23  N   UNL     1      48.533   1.741   5.648  0.00  0.00    +0.000 NA
ATOM     24  H   UNL     1      49.548   1.647   5.672  0.00  0.00    +0.000 HD
ATOM     25  H   UNL     1      48.318   2.280   4.806  0.00  0.00    +0.000 HD
ENDBRANCH  22  23
ENDBRANCH  17  22
ENDBRANCH  16  19
ENDBRANCH   1  16
TORSDOF 5
ENDMDL
MODEL 2
REMARK VINA RESULT:    -7.211      2.621      6.009
REMARK INTER + INTRA:          -9.197
REMARK INTER:                  -8.565
REMARK INTRA:                  -0.632
REMARK UNBOUND:                -0.088
REMARK  Name = 
REMARK  5 active torsions:
REMARK  status: ('A' for Active; 'I' for Inactive)
REMARK    1  A    between atoms: N_1  and  C_2
REMARK    2  A    between atoms: C_2  and  C_3
REMARK    3  A    between atoms: C_5  and  C_6
REMARK    4  A    between atoms: C_6  and  N_7
REMARK    5  A    between atoms: C_14  and  C_15
REMARK                            x       y       z     vdW  Elec       q    Type
REMARK                         _______ _______ _______ _____ _____    ______ ____
ROOT
ATOM      1  N   UNL     1      44.165   5.094  10.861  0.00  0.00    +0.000 N 
ATOM      2  C   UNL     1      43.366   4.400  11.738  0.00  0.00    +0.000 A 
ATOM      3  C   UNL     1      43.425   3.068  11.413  0.00  0.00    +0.000 A 
ATOM      4  C   UNL     1      44.280   2.940  10.289  0.00  0.00    +0.000 A 
ATOM      5  C   UNL     1      44.708   1.835   9.531  0.00  0.00    +0.000 A 
ATOM      6  C   UNL     1      45.562   2.040   8.449  0.00  0.00    +0.000 A 
ATOM      7  F   UNL     1      45.934   0.954   7.748  0.00  0.00    +0.000 F 
ATOM      8  C   UNL     1      46.010   3.313   8.101  0.00  0.00    +0.000 A 
ATOM      9  C   UNL     1      45.603   4.428   8.860  0.00  0.00    +0.000 A 
ATOM     10  C   UNL     1      44.732   4.221   9.949  0.00  0.00    +0.000 A 
ENDROOT
BRANCH   8  11
ATOM     11  C   UNL     1      46.910   3.541   6.936  0.00  0.00    +0.000 C 
ATOM     12  N   UNL     1      48.117   2.891   6.912  0.00  0.00    +0.000 N 
ATOM     13  O   UNL     1      46.589   4.280   6.015  0.00  0.00    +0.000 OA
ATOM     14  H   UNL     1      48.424   2.269   7.651  0.00  0.00    +0.000 HD
ATOM     15  H   UNL     1      48.723   3.036   6.114  0.00  0.00    +0.000 HD
ENDBRANCH   8  11
BRANCH   1  16
ATOM     16  C   UNL     1      44.409   6.526  10.969  0.00  0.00    +0.000 C 
BRANCH  16  19
ATOM     17  C   UNL     1      47.151   7.487  13.359  0.00  0.00    +0.000 C 
ATOM     18  C   UNL     1      46.598   6.524  12.317  0.00  0.00    +0.000 C 
ATOM     19  C   UNL     1      45.142   6.938  12.243  0.00  0.00    +0.000 C 
ATOM     20  C   UNL     1      45.266   8.449  12.376  0.00  0.00    +0.000 C 
ATOM     21  O   UNL     1      46.380   8.703  13.247  0.00  0.00    +0.000 OA
BRANCH  17  22
ATOM     22  C   UNL     1      48.654   7.781  13.223  0.00  0.00    +0.000 C 
BRANCH  22  23
ATOM     23  N   UNL     1      49.436   6.601  12.835  0.00  0.00    +0.000 NA
ATOM     24  H   UNL     1      48.810   5.802  12.739  0.00  0.00    +0.000 HD
ATOM     25  H   UNL     1      50.062   6.379  13.612  0.00  0.00    +0.000 HD
ENDBRANCH  22  23
ENDBRANCH  17  22
ENDBRANCH  16  19
ENDBRANCH   1  16
TORSDOF 5
ENDMDL
MODEL 3
REMARK VINA RESULT:    -7.077      1.760      2.034
REMARK INTER + INTRA:          -9.027
REMARK INTER:                  -8.296
REMARK INTRA:                  -0.731
REMARK UNBOUND:                -0.088
REMARK  Name = 
REMARK  5 active torsions:
REMARK  status: ('A' for Active; 'I' for Inactive)
REMARK    1  A    between atoms: N_1  and  C_2
REMARK    2  A    between atoms: C_2  and  C_3
REMARK    3  A    between atoms: C_5  and  C_6
REMARK    4  A    between atoms: C_6  and  N_7
REMARK    5  A    between atoms: C_14  and  C_15
REMARK                            x       y       z     vdW  Elec       q    Type
REMARK                         _______ _______ _______ _____ _____    ______ ____
ROOT
ATOM      1  N   UNL     1      44.527   4.603  11.100  0.00  0.00    +0.000 N 
ATOM      2  C   UNL     1      43.289   5.126  10.812  0.00  0.00    +0.000 A 
ATOM      3  C   UNL     1      43.261   6.428  11.242  0.00  0.00    +0.000 A 
ATOM      4  C   UNL     1      44.520   6.713  11.827  0.00  0.00    +0.000 A 
ATOM      5  C   UNL     1      45.060   7.865  12.427  0.00  0.00    +0.000 A 
ATOM      6  C   UNL     1      46.358   7.826  12.932  0.00  0.00    +0.000 A 
ATOM      7  F   UNL     1      46.826   8.949  13.507  0.00  0.00    +0.000 F 
ATOM      8  C   UNL     1      47.140   6.675  12.852  0.00  0.00    +0.000 A 
ATOM      9  C   UNL     1      46.620   5.518  12.239  0.00  0.00    +0.000 A 
ATOM     10  C   UNL     1      45.303   5.556  11.737  0.00  0.00    +0.000 A 
ENDROOT
BRANCH   8  11
ATOM     11  C   UNL     1      48.524   6.621  13.404  0.00  0.00    +0.000 C 
ATOM     12  N   UNL     1      49.563   6.975  12.584  0.00  0.00    +0.000 N 
ATOM     13  O   UNL     1      48.737   6.280  14.560  0.00  0.00    +0.000 OA
ATOM     14  H   UNL     1      49.433   7.265  11.621  0.00  0.00    +0.000 HD
ATOM     15  H   UNL     1      50.501   6.951  12.963  0.00  0.00    +0.000 HD
ENDBRANCH   8  11
BRANCH   1  16
ATOM     16  C   UNL     1      44.939   3.264  10.700  0.00  0.00    +0.000 C 
BRANCH  16  19
ATOM     17  C   UNL     1      45.985   3.209   7.086  0.00  0.00    +0.000 C 
ATOM     18  C   UNL     1      45.783   3.985   8.381  0.00  0.00    +0.000 C 
ATOM     19  C   UNL     1      44.925   3.033   9.191  0.00  0.00    +0.000 C 
ATOM     20  C   UNL     1      45.538   1.695   8.804  0.00  0.00    +0.000 C 
ATOM     21  O   UNL     1      45.965   1.808   7.438  0.00  0.00    +0.000 OA
BRANCH  17  22
ATOM     22  C   UNL     1      47.273   3.561   6.325  0.00  0.00    +0.000 C 
BRANCH  22  23
ATOM     23  N   UNL     1      48.345   2.578   6.526  0.00  0.00    +0.000 NA
ATOM     24  H   UNL     1      49.026   2.956   7.184  0.00  0.00    +0.000 HD
ATOM     25  H   UNL     1      48.837   2.476   5.636  0.00  0.00    +0.000 HD
ENDBRANCH  22  23
ENDBRANCH  17  22
ENDBRANCH  16  19
ENDBRANCH   1  16
TORSDOF 5
ENDMDL
MODEL 4
REMARK VINA RESULT:    -6.991      1.885      2.250
REMARK INTER + INTRA:          -8.918
REMARK INTER:                  -8.579
REMARK INTRA:                  -0.340
REMARK UNBOUND:                -0.088
REMARK  Name = 
REMARK  5 active torsions:
REMARK  status: ('A' for Active; 'I' for Inactive)
REMARK    1  A    between atoms: N_1  and  C_2
REMARK    2  A    between atoms: C_2  and  C_3
REMARK    3  A    between atoms: C_5  and  C_6
REMARK    4  A    between atoms: C_6  and  N_7
REMARK    5  A    between atoms: C_14  and  C_15
REMARK                            x       y       z     vdW  Elec       q    Type
REMARK                         _______ _______ _______ _____ _____    ______ ____
ROOT
ATOM      1  N   UNL     1      44.888   4.575  12.072  0.00  0.00    +0.000 N 
ATOM      2  C   UNL     1      45.585   3.519  12.608  0.00  0.00    +0.000 A 
ATOM      3  C   UNL     1      46.647   4.019  13.319  0.00  0.00    +0.000 A 
ATOM      4  C   UNL     1      46.609   5.432  13.206  0.00  0.00    +0.000 A 
ATOM      5  C   UNL     1      47.428   6.456  13.714  0.00  0.00    +0.000 A 
ATOM      6  C   UNL     1      47.130   7.783  13.408  0.00  0.00    +0.000 A 
ATOM      7  F   UNL     1      47.949   8.726  13.907  0.00  0.00    +0.000 F 
ATOM      8  C   UNL     1      46.035   8.123  12.615  0.00  0.00    +0.000 A 
ATOM      9  C   UNL     1      45.195   7.109  12.111  0.00  0.00    +0.000 A 
ATOM     10  C   UNL     1      45.503   5.767  12.414  0.00  0.00    +0.000 A 
ENDROOT
BRANCH   8  11
ATOM     11  C   UNL     1      45.719   9.538  12.270  0.00  0.00    +0.000 C 
ATOM     12  N   UNL     1      44.471  10.016  12.575  0.00  0.00    +0.000 N 
ATOM     13  O   UNL     1      46.546  10.265  11.737  0.00  0.00    +0.000 OA
ATOM     14  H   UNL     1      43.756   9.451  13.017  0.00  0.00    +0.000 HD
ATOM     15  H   UNL     1      44.262  10.981  12.352  0.00  0.00    +0.000 HD
ENDBRANCH   8  11
BRANCH   1  16
ATOM     16  C   UNL     1      43.645   4.415  11.329  0.00  0.00    +0.000 C 
BRANCH  16  19
ATOM     17  C   UNL     1      45.225   3.309   8.098  0.00  0.00    +0.000 C 
ATOM     18  C   UNL     1      44.983   4.399   9.134  0.00  0.00    +0.000 C 
ATOM     19  C   UNL     1      43.827   3.829   9.931  0.00  0.00    +0.000 C 
ATOM     20  C   UNL     1      44.201   2.354   9.965  0.00  0.00    +0.000 C 
ATOM     21  O   UNL     1      44.857   2.059   8.722  0.00  0.00    +0.000 OA
BRANCH  17  22
ATOM     22  C   UNL     1      46.663   3.246   7.560  0.00  0.00    +0.000 C 
BRANCH  22  23
ATOM     23  N   UNL     1      46.897   4.164   6.439  0.00  0.00    +0.000 NA
ATOM     24  H   UNL     1      47.828   4.571   6.528  0.00  0.00    +0.000 HD
ATOM     25  H   UNL     1      46.238   4.941   6.538  0.00  0.00    +0.000 HD
ENDBRANCH  22  23
ENDBRANCH  17  22
ENDBRANCH  16  19
ENDBRANCH   1  16
TORSDOF 5
ENDMDL
MODEL 5
REMARK VINA RESULT:    -6.965      2.510      6.255
REMARK INTER + INTRA:          -8.886
REMARK INTER:                  -8.563
REMARK INTRA:                  -0.323
REMARK UNBOUND:                -0.088
REMARK  Name = 
REMARK  5 active torsions:
REMARK  status: ('A' for Active; 'I' for Inactive)
REMARK    1  A    between atoms: N_1  and  C_2
REMARK    2  A    between atoms: C_2  and  C_3
REMARK    3  A    between atoms: C_5  and  C_6
REMARK    4  A    between atoms: C_6  and  N_7
REMARK    5  A    between atoms: C_14  and  C_15
REMARK                            x       y       z     vdW  Elec       q    Type
REMARK                         _______ _______ _______ _____ _____    ______ ____
ROOT
ATOM      1  N   UNL     1      44.527   5.600  11.331  0.00  0.00    +0.000 N 
ATOM      2  C   UNL     1      43.648   5.170  12.297  0.00  0.00    +0.000 A 
ATOM      3  C   UNL     1      43.356   3.851  12.058  0.00  0.00    +0.000 A 
ATOM      4  C   UNL     1      44.071   3.458  10.898  0.00  0.00    +0.000 A 
ATOM      5  C   UNL     1      44.160   2.245  10.192  0.00  0.00    +0.000 A 
ATOM      6  C   UNL     1      44.958   2.177   9.051  0.00  0.00    +0.000 A 
ATOM      7  F   UNL     1      45.002   0.999   8.403  0.00  0.00    +0.000 F 
ATOM      8  C   UNL     1      45.677   3.280   8.594  0.00  0.00    +0.000 A 
ATOM      9  C   UNL     1      45.611   4.499   9.299  0.00  0.00    +0.000 A 
ATOM     10  C   UNL     1      44.797   4.569  10.448  0.00  0.00    +0.000 A 
ENDROOT
BRANCH   8  11
ATOM     11  C   UNL     1      46.520   3.220   7.366  0.00  0.00    +0.000 C 
ATOM     12  N   UNL     1      47.432   2.203   7.256  0.00  0.00    +0.000 N 
ATOM     13  O   UNL     1      46.404   4.045   6.471  0.00  0.00    +0.000 OA
ATOM     14  H   UNL     1      47.562   1.497   7.972  0.00  0.00    +0.000 HD
ATOM     15  H   UNL     1      47.995   2.154   6.417  0.00  0.00    +0.000 HD
ENDBRANCH   8  11
BRANCH   1  16
ATOM     16  C   UNL     1      45.120   6.930  11.330  0.00  0.00    +0.000 C 
BRANCH  16  19
ATOM     17  C   UNL     1      48.265   7.860  13.173  0.00  0.00    +0.000 C 
ATOM     18  C   UNL     1      47.047   8.283  12.363  0.00  0.00    +0.000 C 
ATOM     19  C   UNL     1      46.577   6.962  11.786  0.00  0.00    +0.000 C 
ATOM     20  C   UNL     1      46.838   6.027  12.957  0.00  0.00    +0.000 C 
ATOM     21  O   UNL     1      48.011   6.513  13.628  0.00  0.00    +0.000 OA
BRANCH  17  22
ATOM     22  C   UNL     1      48.595   8.782  14.359  0.00  0.00    +0.000 C 
BRANCH  22  23
ATOM     23  N   UNL     1      47.429   9.071  15.202  0.00  0.00    +0.000 NA
ATOM     24  H   UNL     1      47.420  10.065  15.431  0.00  0.00    +0.000 HD
ATOM     25  H   UNL     1      47.561   8.577  16.087  0.00  0.00    +0.000 HD
ENDBRANCH  22  23
ENDBRANCH  17  22
ENDBRANCH  16  19
ENDBRANCH   1  16
TORSDOF 5
ENDMDL
MODEL 6
REMARK VINA RESULT:    -6.905      4.339      7.928
REMARK INTER + INTRA:          -8.810
REMARK INTER:                  -8.356
REMARK INTRA:                  -0.454
REMARK UNBOUND:                -0.088
REMARK  Name = 
REMARK  5 active torsions:
REMARK  status: ('A' for Active; 'I' for Inactive)
REMARK    1  A    between atoms: N_1  and  C_2
REMARK    2  A    between atoms: C_2  and  C_3
REMARK    3  A    between atoms: C_5  and  C_6
REMARK    4  A    between atoms: C_6  and  N_7
REMARK    5  A    between atoms: C_14  and  C_15
REMARK                            x       y       z     vdW  Elec       q    Type
REMARK                         _______ _______ _______ _____ _____    ______ ____
ROOT
ATOM      1  N   UNL     1      47.157   5.157  14.312  0.00  0.00    +0.000 N 
ATOM      2  C   UNL     1      47.891   6.315  14.221  0.00  0.00    +0.000 A 
ATOM      3  C   UNL     1      47.645   6.886  12.998  0.00  0.00    +0.000 A 
ATOM      4  C   UNL     1      46.738   6.042  12.306  0.00  0.00    +0.000 A 
ATOM      5  C   UNL     1      46.141   6.115  11.036  0.00  0.00    +0.000 A 
ATOM      6  C   UNL     1      45.281   5.097  10.628  0.00  0.00    +0.000 A 
ATOM      7  F   UNL     1      44.742   5.204   9.400  0.00  0.00    +0.000 F 
ATOM      8  C   UNL     1      44.990   4.010  11.451  0.00  0.00    +0.000 A 
ATOM      9  C   UNL     1      45.569   3.931  12.734  0.00  0.00    +0.000 A 
ATOM     10  C   UNL     1      46.446   4.957  13.142  0.00  0.00    +0.000 A 
ENDROOT
BRANCH   8  11
ATOM     11  C   UNL     1      44.084   2.910  11.016  0.00  0.00    +0.000 C 
ATOM     12  N   UNL     1      44.483   2.118   9.971  0.00  0.00    +0.000 N 
ATOM     13  O   UNL     1      43.014   2.706  11.573  0.00  0.00    +0.000 OA
ATOM     14  H   UNL     1      45.360   2.250   9.480  0.00  0.00    +0.000 HD
ATOM     15  H   UNL     1      43.872   1.363   9.683  0.00  0.00    +0.000 HD
ENDBRANCH   8  11
BRANCH   1  16
ATOM     16  C   UNL     1      47.108   4.338  15.516  0.00  0.00    +0.000 C 
BRANCH  16  19
ATOM     17  C   UNL     1      49.105   4.918  18.651  0.00  0.00    +0.000 C 
ATOM     18  C   UNL     1      47.959   5.323  17.733  0.00  0.00    +0.000 C 
ATOM     19  C   UNL     1      48.283   4.556  16.466  0.00  0.00    +0.000 C 
ATOM     20  C   UNL     1      48.808   3.251  17.046  0.00  0.00    +0.000 C 
ATOM     21  O   UNL     1      49.487   3.579  18.269  0.00  0.00    +0.000 OA
BRANCH  17  22
ATOM     22  C   UNL     1      48.774   4.983  20.151  0.00  0.00    +0.000 C 
BRANCH  22  23
ATOM     23  N   UNL     1      48.342   3.692  20.699  0.00  0.00    +0.000 NA
ATOM     24  H   UNL     1      49.013   3.386  21.404  0.00  0.00    +0.000 HD
ATOM     25  H   UNL     1      48.394   3.006  19.942  0.00  0.00    +0.000 HD
ENDBRANCH  22  23
ENDBRANCH  17  22
ENDBRANCH  16  19
ENDBRANCH   1  16
TORSDOF 5
ENDMDL
MODEL 7
REMARK VINA RESULT:    -6.733      3.565      7.226
REMARK INTER + INTRA:          -8.592
REMARK INTER:                  -7.890
REMARK INTRA:                  -0.703
REMARK UNBOUND:                -0.088
REMARK  Name = 
REMARK  5 active torsions:
REMARK  status: ('A' for Active; 'I' for Inactive)
REMARK    1  A    between atoms: N_1  and  C_2
REMARK    2  A    between atoms: C_2  and  C_3
REMARK    3  A    between atoms: C_5  and  C_6
REMARK    4  A    between atoms: C_6  and  N_7
REMARK    5  A    between atoms: C_14  and  C_15
REMARK                            x       y       z     vdW  Elec       q    Type
REMARK                         _______ _______ _______ _____ _____    ______ ____
ROOT
ATOM      1  N   UNL     1      47.430   7.216  13.399  0.00  0.00    +0.000 N 
ATOM      2  C   UNL     1      47.190   8.569  13.380  0.00  0.00    +0.000 A 
ATOM      3  C   UNL     1      46.012   8.788  12.712  0.00  0.00    +0.000 A 
ATOM      4  C   UNL     1      45.517   7.527  12.293  0.00  0.00    +0.000 A 
ATOM      5  C   UNL     1      44.370   7.137  11.580  0.00  0.00    +0.000 A 
ATOM      6  C   UNL     1      44.164   5.786  11.306  0.00  0.00    +0.000 A 
ATOM      7  F   UNL     1      43.058   5.463  10.611  0.00  0.00    +0.000 F 
ATOM      8  C   UNL     1      45.063   4.809  11.728  0.00  0.00    +0.000 A 
ATOM      9  C   UNL     1      46.209   5.182  12.458  0.00  0.00    +0.000 A 
ATOM     10  C   UNL     1      46.421   6.550  12.726  0.00  0.00    +0.000 A 
ENDROOT
BRANCH   8  11
ATOM     11  C   UNL     1      44.858   3.364  11.425  0.00  0.00    +0.000 C 
ATOM     12  N   UNL     1      44.517   2.528  12.456  0.00  0.00    +0.000 N 
ATOM     13  O   UNL     1      44.979   2.926  10.289  0.00  0.00    +0.000 OA
ATOM     14  H   UNL     1      44.405   2.846  13.412  0.00  0.00    +0.000 HD
ATOM     15  H   UNL     1      44.365   1.549  12.248  0.00  0.00    +0.000 HD
ENDBRANCH   8  11
BRANCH   1  16
ATOM     16  C   UNL     1      48.553   6.617  14.107  0.00  0.00    +0.000 C 
BRANCH  16  19
ATOM     17  C   UNL     1      47.976   4.815  17.359  0.00  0.00    +0.000 C 
ATOM     18  C   UNL     1      47.626   5.014  15.891  0.00  0.00    +0.000 C 
ATOM     19  C   UNL     1      48.285   6.345  15.585  0.00  0.00    +0.000 C 
ATOM     20  C   UNL     1      49.567   6.222  16.394  0.00  0.00    +0.000 C 
ATOM     21  O   UNL     1      49.250   5.461  17.570  0.00  0.00    +0.000 OA
BRANCH  17  22
ATOM     22  C   UNL     1      48.030   3.346  17.809  0.00  0.00    +0.000 C 
BRANCH  22  23
ATOM     23  N   UNL     1      46.719   2.687  17.771  0.00  0.00    +0.000 NA
ATOM     24  H   UNL     1      45.998   3.361  18.029  0.00  0.00    +0.000 HD
ATOM     25  H   UNL     1      46.714   1.973  18.504  0.00  0.00    +0.000 HD
ENDBRANCH  22  23
ENDBRANCH  17  22
ENDBRANCH  16  19
ENDBRANCH   1  16
TORSDOF 5
ENDMDL
MODEL 8
REMARK VINA RESULT:    -6.532      3.768      6.562
REMARK INTER + INTRA:          -8.339
REMARK INTER:                  -7.920
REMARK INTRA:                  -0.420
REMARK UNBOUND:                -0.088
REMARK  Name = 
REMARK  5 active torsions:
REMARK  status: ('A' for Active; 'I' for Inactive)
REMARK    1  A    between atoms: N_1  and  C_2
REMARK    2  A    between atoms: C_2  and  C_3
REMARK    3  A    between atoms: C_5  and  C_6
REMARK    4  A    between atoms: C_6  and  N_7
REMARK    5  A    between atoms: C_14  and  C_15
REMARK                            x       y       z     vdW  Elec       q    Type
REMARK                         _______ _______ _______ _____ _____    ______ ____
ROOT
ATOM      1  N   UNL     1      44.556   6.165  11.992  0.00  0.00    +0.000 N 
ATOM      2  C   UNL     1      43.764   5.759  13.039  0.00  0.00    +0.000 A 
ATOM      3  C   UNL     1      43.360   4.470  12.800  0.00  0.00    +0.000 A 
ATOM      4  C   UNL     1      43.912   4.072  11.556  0.00  0.00    +0.000 A 
ATOM      5  C   UNL     1      43.840   2.881  10.812  0.00  0.00    +0.000 A 
ATOM      6  C   UNL     1      44.499   2.801   9.586  0.00  0.00    +0.000 A 
ATOM      7  F   UNL     1      44.391   1.646   8.906  0.00  0.00    +0.000 F 
ATOM      8  C   UNL     1      45.235   3.872   9.080  0.00  0.00    +0.000 A 
ATOM      9  C   UNL     1      45.329   5.067   9.821  0.00  0.00    +0.000 A 
ATOM     10  C   UNL     1      44.656   5.149  11.056  0.00  0.00    +0.000 A 
ENDROOT
BRANCH   8  11
ATOM     11  C   UNL     1      45.928   3.799   7.763  0.00  0.00    +0.000 C 
ATOM     12  N   UNL     1      47.112   4.474   7.616  0.00  0.00    +0.000 N 
ATOM     13  O   UNL     1      45.467   3.152   6.833  0.00  0.00    +0.000 OA
ATOM     14  H   UNL     1      47.531   5.022   8.359  0.00  0.00    +0.000 HD
ATOM     15  H   UNL     1      47.589   4.415   6.725  0.00  0.00    +0.000 HD
ENDBRANCH   8  11
BRANCH   1  16
ATOM     16  C   UNL     1      45.233   7.454  11.958  0.00  0.00    +0.000 C 
BRANCH  16  19
ATOM     17  C   UNL     1      42.707   9.829  10.498  0.00  0.00    +0.000 C 
ATOM     18  C   UNL     1      43.055   8.439  11.012  0.00  0.00    +0.000 C 
ATOM     19  C   UNL     1      44.570   8.482  11.045  0.00  0.00    +0.000 C 
ATOM     20  C   UNL     1      44.805   9.910  11.515  0.00  0.00    +0.000 C 
ATOM     21  O   UNL     1      43.751  10.713  10.961  0.00  0.00    +0.000 OA
BRANCH  17  22
ATOM     22  C   UNL     1      41.325  10.343  10.931  0.00  0.00    +0.000 C 
BRANCH  22  23
ATOM     23  N   UNL     1      40.452   9.279  11.441  0.00  0.00    +0.000 NA
ATOM     24  H   UNL     1      39.676   9.144  10.792  0.00  0.00    +0.000 HD
ATOM     25  H   UNL     1      40.037   9.616  12.312  0.00  0.00    +0.000 HD
ENDBRANCH  22  23
ENDBRANCH  17  22
ENDBRANCH  16  19
ENDBRANCH   1  16
TORSDOF 5
ENDMDL
MODEL 9
REMARK VINA RESULT:    -5.650      4.628      8.811
REMARK INTER + INTRA:          -7.224
REMARK INTER:                  -6.676
REMARK INTRA:                  -0.548
REMARK UNBOUND:                -0.088
REMARK  Name = 
REMARK  5 active torsions:
REMARK  status: ('A' for Active; 'I' for Inactive)
REMARK    1  A    between atoms: N_1  and  C_2
REMARK    2  A    between atoms: C_2  and  C_3
REMARK    3  A    between atoms: C_5  and  C_6
REMARK    4  A    between atoms: C_6  and  N_7
REMARK    5  A    between atoms: C_14  and  C_15
REMARK                            x       y       z     vdW  Elec       q    Type
REMARK                         _______ _______ _______ _____ _____    ______ ____
ROOT
ATOM      1  N   UNL     1      48.869   6.612  14.955  0.00  0.00    +0.000 N 
ATOM      2  C   UNL     1      49.679   7.609  14.467  0.00  0.00    +0.000 A 
ATOM      3  C   UNL     1      49.257   7.926  13.200  0.00  0.00    +0.000 A 
ATOM      4  C   UNL     1      48.157   7.086  12.893  0.00  0.00    +0.000 A 
ATOM      5  C   UNL     1      47.335   6.960  11.760  0.00  0.00    +0.000 A 
ATOM      6  C   UNL     1      46.318   6.007  11.757  0.00  0.00    +0.000 A 
ATOM      7  F   UNL     1      45.565   5.916  10.646  0.00  0.00    +0.000 F 
ATOM      8  C   UNL     1      46.089   5.178  12.855  0.00  0.00    +0.000 A 
ATOM      9  C   UNL     1      46.894   5.303  14.004  0.00  0.00    +0.000 A 
ATOM     10  C   UNL     1      47.928   6.261  14.002  0.00  0.00    +0.000 A 
ENDROOT
BRANCH   8  11
ATOM     11  C   UNL     1      45.014   4.146  12.853  0.00  0.00    +0.000 C 
ATOM     12  N   UNL     1      45.356   2.854  12.550  0.00  0.00    +0.000 N 
ATOM     13  O   UNL     1      43.855   4.431  13.121  0.00  0.00    +0.000 OA
ATOM     14  H   UNL     1      46.303   2.572  12.323  0.00  0.00    +0.000 HD
ATOM     15  H   UNL     1      44.627   2.151  12.562  0.00  0.00    +0.000 HD
ENDBRANCH   8  11
BRANCH   1  16
ATOM     16  C   UNL     1      48.974   6.092  16.312  0.00  0.00    +0.000 C 
BRANCH  16  19
ATOM     17  C   UNL     1      47.899   7.552  19.608  0.00  0.00    +0.000 C 
ATOM     18  C   UNL     1      47.663   6.567  18.472  0.00  0.00    +0.000 C 
ATOM     19  C   UNL     1      48.589   7.097  17.395  0.00  0.00    +0.000 C 
ATOM     20  C   UNL     1      49.783   7.533  18.231  0.00  0.00    +0.000 C 
ATOM     21  O   UNL     1      49.266   8.002  19.486  0.00  0.00    +0.000 OA
BRANCH  17  22
ATOM     22  C   UNL     1      47.636   6.983  21.012  0.00  0.00    +0.000 C 
BRANCH  22  23
ATOM     23  N   UNL     1      47.062   5.633  20.985  0.00  0.00    +0.000 NA
ATOM     24  H   UNL     1      47.735   4.992  20.566  0.00  0.00    +0.000 HD
ATOM     25  H   UNL     1      46.259   5.655  20.352  0.00  0.00    +0.000 HD
ENDBRANCH  22  23
ENDBRANCH  17  22
ENDBRANCH  16  19
ENDBRANCH   1  16
TORSDOF 5
ENDMDL
