MODEL 1
REMARK VINA RESULT:    -7.104      0.000      0.000
REMARK INTER + INTRA:         -13.244
REMARK INTER:                 -12.088
REMARK INTRA:                  -1.156
REMARK UNBOUND:                -1.156
REMARK  Name = 
REMARK  16 active torsions:
REMARK  status: ('A' for Active; 'I' for Inactive)
REMARK    1  A    between atoms: C_1  and  C_2
REMARK    2  A    between atoms: C_2  and  C_3
REMARK    3  A    between atoms: C_2  and  C_4
REMARK    4  A    between atoms: C_2  and  O_5
REMARK    5  A    between atoms: O_5  and  C_6
REMARK    6  A    between atoms: C_6  and  C_7
REMARK    7  A    between atoms: C_7  and  N_8
REMARK    8  A    between atoms: C_7  and  C_9
REMARK    9  A    between atoms: C_9  and  O_10
REMARK   10  A    between atoms: O_10  and  C_11
REMARK   11  A    between atoms: N_19  and  C_20
REMARK   12  A    between atoms: C_20  and  C_21
REMARK   13  A    between atoms: C_25  and  O_26
REMARK   14  A    between atoms: O_26  and  C_27
REMARK   15  A    between atoms: C_27  and  C_28
REMARK   16  A    between atoms: C_28  and  N_29
REMARK                            x       y       z     vdW  Elec       q    Type
REMARK                         _______ _______ _______ _____ _____    ______ ____
ROOT
ATOM      1  C   UNL     1      47.491   4.801  14.746  0.00  0.00    +0.000 A 
ATOM      2  C   UNL     1      46.666   3.843  14.145  0.00  0.00    +0.000 A 
ATOM      3  N   UNL     1      45.818   4.045  13.104  0.00  0.00    +0.000 NA
ATOM      4  C   UNL     1      45.848   5.319  12.675  0.00  0.00    +0.000 A 
ATOM      5  C   UNL     1      46.636   6.362  13.145  0.00  0.00    +0.000 A 
ATOM      6  C   UNL     1      47.494   6.097  14.222  0.00  0.00    +0.000 A 
ATOM      7  N   UNL     1      46.391   7.514  12.431  0.00  0.00    +0.000 NA
ATOM      8  C   UNL     1      45.445   7.185  11.571  0.00  0.00    +0.000 A 
ATOM      9  N   UNL     1      45.068   5.877  11.702  0.00  0.00    +0.000 N 
ENDROOT
BRANCH   1  10
ATOM     10  O   UNL     1      48.308   4.589  15.827  0.00  0.00    +0.000 OA
BRANCH  10  11
ATOM     11  C   UNL     1      47.849   3.599  16.762  0.00  0.00    +0.000 C 
BRANCH  11  12
ATOM     12  C   UNL     1      48.999   2.648  17.147  0.00  0.00    +0.000 C 
BRANCH  12  13
ATOM     13  N   UNL     1      49.391   1.787  16.009  0.00  0.00    +0.000 NA
ATOM     14  H   UNL     1      50.314   2.063  15.671  0.00  0.00    +0.000 HD
ATOM     15  H   UNL     1      48.756   1.989  15.232  0.00  0.00    +0.000 HD
ENDBRANCH  12  13
BRANCH  12  16
ATOM     16  C   UNL     1      50.218   3.457  17.636  0.00  0.00    +0.000 C 
BRANCH  16  17
ATOM     17  O   UNL     1      49.851   4.338  18.701  0.00  0.00    +0.000 OA
BRANCH  17  19
ATOM     18  C   UNL     1      51.169   5.902  17.338  0.00  0.00    +0.000 C 
ATOM     19  C   UNL     1      50.372   5.680  18.630  0.00  0.00    +0.000 C 
ATOM     20  C   UNL     1      51.219   6.028  19.861  0.00  0.00    +0.000 C 
ATOM     21  C   UNL     1      49.148   6.608  18.607  0.00  0.00    +0.000 C 
ENDBRANCH  17  19
ENDBRANCH  16  17
ENDBRANCH  12  16
ENDBRANCH  11  12
ENDBRANCH  10  11
ENDBRANCH   1  10
BRANCH   9  22
ATOM     22  C   UNL     1      43.990   5.208  11.004  0.00  0.00    +0.000 C 
BRANCH  22  23
ATOM     23  C   UNL     1      44.547   4.175  10.054  0.00  0.00    +0.000 A 
ATOM     24  C   UNL     1      44.176   2.828  10.166  0.00  0.00    +0.000 A 
ATOM     25  C   UNL     1      44.579   1.904   9.202  0.00  0.00    +0.000 A 
ATOM     26  C   UNL     1      45.352   2.321   8.118  0.00  0.00    +0.000 A 
ATOM     27  C   UNL     1      45.759   3.650   8.010  0.00  0.00    +0.000 A 
ATOM     28  C   UNL     1      45.355   4.573   8.975  0.00  0.00    +0.000 A 
BRANCH  27  29
ATOM     29  O   UNL     1      46.477   3.960   6.886  0.00  0.00    +0.000 OA
BRANCH  29  30
ATOM     30  C   UNL     1      46.413   3.001   5.828  0.00  0.00    +0.000 C 
BRANCH  30  31
ATOM     31  C   UNL     1      47.843   2.628   5.423  0.00  0.00    +0.000 C 
BRANCH  31  32
ATOM     32  N   UNL     1      48.481   1.755   6.409  0.00  0.00    +0.000 NA
ATOM     33  H   UNL     1      47.884   0.949   6.590  0.00  0.00    +0.000 HD
ATOM     34  H   UNL     1      48.553   2.254   7.296  0.00  0.00    +0.000 HD
ENDBRANCH  31  32
ENDBRANCH  30  31
ENDBRANCH  29  30
ENDBRANCH  27  29
ENDBRANCH  22  23
ENDBRANCH   9  22
TORSDOF 13
ENDMDL
MODEL 2
REMARK VINA RESULT:    -6.851      1.582      2.437
REMARK INTER + INTRA:         -12.813
REMARK INTER:                 -12.459
REMARK INTRA:                  -0.354
REMARK UNBOUND:                -1.156
REMARK  Name = 
REMARK  16 active torsions:
REMARK  status: ('A' for Active; 'I' for Inactive)
REMARK    1  A    between atoms: C_1  and  C_2
REMARK    2  A    between atoms: C_2  and  C_3
REMARK    3  A    between atoms: C_2  and  C_4
REMARK    4  A    between atoms: C_2  and  O_5
REMARK    5  A    between atoms: O_5  and  C_6
REMARK    6  A    between atoms: C_6  and  C_7
REMARK    7  A    between atoms: C_7  and  N_8
REMARK    8  A    between atoms: C_7  and  C_9
REMARK    9  A    between atoms: C_9  and  O_10
REMARK   10  A    between atoms: O_10  and  C_11
REMARK   11  A    between atoms: N_19  and  C_20
REMARK   12  A    between atoms: C_20  and  C_21
REMARK   13  A    between atoms: C_25  and  O_26
REMARK   14  A    between atoms: O_26  and  C_27
REMARK   15  A    between atoms: C_27  and  C_28
REMARK   16  A    between atoms: C_28  and  N_29
REMARK                            x       y       z     vdW  Elec       q    Type
REMARK                         _______ _______ _______ _____ _____    ______ ____
ROOT
ATOM      1  C   UNL     1      47.918   6.392  13.936  0.00  0.00    +0.000 A 
ATOM      2  C   UNL     1      47.310   5.182  13.586  0.00  0.00    +0.000 A 
ATOM      3  N   UNL     1      46.218   5.025  12.794  0.00  0.00    +0.000 NA
ATOM      4  C   UNL     1      45.752   6.204  12.347  0.00  0.00    +0.000 A 
ATOM      5  C   UNL     1      46.269   7.472  12.577  0.00  0.00    +0.000 A 
ATOM      6  C   UNL     1      47.397   7.576  13.403  0.00  0.00    +0.000 A 
ATOM      7  N   UNL     1      45.519   8.427  11.928  0.00  0.00    +0.000 NA
ATOM      8  C   UNL     1      44.543   7.753  11.345  0.00  0.00    +0.000 A 
ATOM      9  N   UNL     1      44.630   6.412  11.595  0.00  0.00    +0.000 N 
ENDROOT
BRANCH   1  10
ATOM     10  O   UNL     1      48.994   6.535  14.775  0.00  0.00    +0.000 OA
BRANCH  10  11
ATOM     11  C   UNL     1      49.077   7.794  15.462  0.00  0.00    +0.000 C 
BRANCH  11  12
ATOM     12  C   UNL     1      49.157   7.571  16.985  0.00  0.00    +0.000 C 
BRANCH  12  13
ATOM     13  N   UNL     1      47.888   7.937  17.653  0.00  0.00    +0.000 NA
ATOM     14  H   UNL     1      47.150   8.038  16.955  0.00  0.00    +0.000 HD
ATOM     15  H   UNL     1      48.004   8.873  18.050  0.00  0.00    +0.000 HD
ENDBRANCH  12  13
BRANCH  12  16
ATOM     16  C   UNL     1      49.505   6.099  17.291  0.00  0.00    +0.000 C 
BRANCH  16  17
ATOM     17  O   UNL     1      48.318   5.312  17.422  0.00  0.00    +0.000 OA
BRANCH  17  19
ATOM     18  C   UNL     1      49.803   3.354  17.371  0.00  0.00    +0.000 C 
ATOM     19  C   UNL     1      48.495   3.961  17.892  0.00  0.00    +0.000 C 
ATOM     20  C   UNL     1      47.298   3.071  17.532  0.00  0.00    +0.000 C 
ATOM     21  C   UNL     1      48.584   4.056  19.423  0.00  0.00    +0.000 C 
ENDBRANCH  17  19
ENDBRANCH  16  17
ENDBRANCH  12  16
ENDBRANCH  11  12
ENDBRANCH  10  11
ENDBRANCH   1  10
BRANCH   9  22
ATOM     22  C   UNL     1      43.676   5.392  11.211  0.00  0.00    +0.000 C 
BRANCH  22  23
ATOM     23  C   UNL     1      44.328   4.392  10.286  0.00  0.00    +0.000 A 
ATOM     24  C   UNL     1      44.043   3.024  10.399  0.00  0.00    +0.000 A 
ATOM     25  C   UNL     1      44.535   2.122   9.455  0.00  0.00    +0.000 A 
ATOM     26  C   UNL     1      45.311   2.582   8.390  0.00  0.00    +0.000 A 
ATOM     27  C   UNL     1      45.632   3.934   8.282  0.00  0.00    +0.000 A 
ATOM     28  C   UNL     1      45.139   4.835   9.227  0.00  0.00    +0.000 A 
BRANCH  27  29
ATOM     29  O   UNL     1      46.361   4.284   7.178  0.00  0.00    +0.000 OA
BRANCH  29  30
ATOM     30  C   UNL     1      46.649   3.221   6.267  0.00  0.00    +0.000 C 
BRANCH  30  31
ATOM     31  C   UNL     1      47.953   2.544   6.706  0.00  0.00    +0.000 C 
BRANCH  31  32
ATOM     32  N   UNL     1      48.581   1.805   5.611  0.00  0.00    +0.000 NA
ATOM     33  H   UNL     1      49.193   1.084   5.992  0.00  0.00    +0.000 HD
ATOM     34  H   UNL     1      49.186   2.438   5.088  0.00  0.00    +0.000 HD
ENDBRANCH  31  32
ENDBRANCH  30  31
ENDBRANCH  29  30
ENDBRANCH  27  29
ENDBRANCH  22  23
ENDBRANCH   9  22
TORSDOF 13
ENDMDL
MODEL 3
REMARK VINA RESULT:    -6.512      1.742      2.750
REMARK INTER + INTRA:         -12.235
REMARK INTER:                 -11.365
REMARK INTRA:                  -0.870
REMARK UNBOUND:                -1.156
REMARK  Name = 
REMARK  16 active torsions:
REMARK  status: ('A' for Active; 'I' for Inactive)
REMARK    1  A    between atoms: C_1  and  C_2
REMARK    2  A    between atoms: C_2  and  C_3
REMARK    3  A    between atoms: C_2  and  C_4
REMARK    4  A    between atoms: C_2  and  O_5
REMARK    5  A    between atoms: O_5  and  C_6
REMARK    6  A    between atoms: C_6  and  C_7
REMARK    7  A    between atoms: C_7  and  N_8
REMARK    8  A    between atoms: C_7  and  C_9
REMARK    9  A    between atoms: C_9  and  O_10
REMARK   10  A    between atoms: O_10  and  C_11
REMARK   11  A    between atoms: N_19  and  C_20
REMARK   12  A    between atoms: C_20  and  C_21
REMARK   13  A    between atoms: C_25  and  O_26
REMARK   14  A    between atoms: O_26  and  C_27
REMARK   15  A    between atoms: C_27  and  C_28
REMARK   16  A    between atoms: C_28  and  N_29
REMARK                            x       y       z     vdW  Elec       q    Type
REMARK                         _______ _______ _______ _____ _____    ______ ____
ROOT
ATOM      1  C   UNL     1      48.552   6.681  13.574  0.00  0.00    +0.000 A 
ATOM      2  C   UNL     1      48.031   7.190  12.379  0.00  0.00    +0.000 A 
ATOM      3  N   UNL     1      46.857   6.839  11.795  0.00  0.00    +0.000 NA
ATOM      4  C   UNL     1      46.200   5.910  12.511  0.00  0.00    +0.000 A 
ATOM      5  C   UNL     1      46.572   5.344  13.723  0.00  0.00    +0.000 A 
ATOM      6  C   UNL     1      47.794   5.743  14.282  0.00  0.00    +0.000 A 
ATOM      7  N   UNL     1      45.622   4.442  14.149  0.00  0.00    +0.000 NA
ATOM      8  C   UNL     1      44.710   4.435  13.193  0.00  0.00    +0.000 A 
ATOM      9  N   UNL     1      45.033   5.285  12.173  0.00  0.00    +0.000 N 
ENDROOT
BRANCH   1  10
ATOM     10  O   UNL     1      49.763   7.014  14.127  0.00  0.00    +0.000 OA
BRANCH  10  11
ATOM     11  C   UNL     1      49.698   7.671  15.403  0.00  0.00    +0.000 C 
BRANCH  11  12
ATOM     12  C   UNL     1      50.523   6.895  16.449  0.00  0.00    +0.000 C 
BRANCH  12  13
ATOM     13  N   UNL     1      51.347   7.809  17.272  0.00  0.00    +0.000 NA
ATOM     14  H   UNL     1      51.772   8.520  16.674  0.00  0.00    +0.000 HD
ATOM     15  H   UNL     1      52.136   7.270  17.639  0.00  0.00    +0.000 HD
ENDBRANCH  12  13
BRANCH  12  16
ATOM     16  C   UNL     1      49.590   6.069  17.357  0.00  0.00    +0.000 C 
BRANCH  16  17
ATOM     17  O   UNL     1      49.544   4.703  16.934  0.00  0.00    +0.000 OA
BRANCH  17  19
ATOM     18  C   UNL     1      47.201   4.676  17.675  0.00  0.00    +0.000 C 
ATOM     19  C   UNL     1      48.507   3.888  17.513  0.00  0.00    +0.000 C 
ATOM     20  C   UNL     1      48.944   3.274  18.849  0.00  0.00    +0.000 C 
ATOM     21  C   UNL     1      48.260   2.746  16.514  0.00  0.00    +0.000 C 
ENDBRANCH  17  19
ENDBRANCH  16  17
ENDBRANCH  12  16
ENDBRANCH  11  12
ENDBRANCH  10  11
ENDBRANCH   1  10
BRANCH   9  22
ATOM     22  C   UNL     1      44.325   5.450  10.920  0.00  0.00    +0.000 C 
BRANCH  22  23
ATOM     23  C   UNL     1      44.727   4.365   9.949  0.00  0.00    +0.000 A 
ATOM     24  C   UNL     1      44.199   3.072  10.066  0.00  0.00    +0.000 A 
ATOM     25  C   UNL     1      44.460   2.114   9.086  0.00  0.00    +0.000 A 
ATOM     26  C   UNL     1      45.247   2.444   7.982  0.00  0.00    +0.000 A 
ATOM     27  C   UNL     1      45.807   3.715   7.867  0.00  0.00    +0.000 A 
ATOM     28  C   UNL     1      45.545   4.672   8.849  0.00  0.00    +0.000 A 
BRANCH  27  29
ATOM     29  O   UNL     1      46.525   3.946   6.725  0.00  0.00    +0.000 OA
BRANCH  29  30
ATOM     30  C   UNL     1      46.528   2.880   5.772  0.00  0.00    +0.000 C 
BRANCH  30  31
ATOM     31  C   UNL     1      47.770   2.015   6.013  0.00  0.00    +0.000 C 
BRANCH  31  32
ATOM     32  N   UNL     1      48.916   2.813   6.449  0.00  0.00    +0.000 NA
ATOM     33  H   UNL     1      49.671   2.196   6.745  0.00  0.00    +0.000 HD
ATOM     34  H   UNL     1      48.652   3.349   7.276  0.00  0.00    +0.000 HD
ENDBRANCH  31  32
ENDBRANCH  30  31
ENDBRANCH  29  30
ENDBRANCH  27  29
ENDBRANCH  22  23
ENDBRANCH   9  22
TORSDOF 13
ENDMDL
MODEL 4
REMARK VINA RESULT:    -6.413      4.177      5.771
REMARK INTER + INTRA:         -12.067
REMARK INTER:                 -10.952
REMARK INTRA:                  -1.115
REMARK UNBOUND:                -1.156
REMARK  Name = 
REMARK  16 active torsions:
REMARK  status: ('A' for Active; 'I' for Inactive)
REMARK    1  A    between atoms: C_1  and  C_2
REMARK    2  A    between atoms: C_2  and  C_3
REMARK    3  A    between atoms: C_2  and  C_4
REMARK    4  A    between atoms: C_2  and  O_5
REMARK    5  A    between atoms: O_5  and  C_6
REMARK    6  A    between atoms: C_6  and  C_7
REMARK    7  A    between atoms: C_7  and  N_8
REMARK    8  A    between atoms: C_7  and  C_9
REMARK    9  A    between atoms: C_9  and  O_10
REMARK   10  A    between atoms: O_10  and  C_11
REMARK   11  A    between atoms: N_19  and  C_20
REMARK   12  A    between atoms: C_20  and  C_21
REMARK   13  A    between atoms: C_25  and  O_26
REMARK   14  A    between atoms: O_26  and  C_27
REMARK   15  A    between atoms: C_27  and  C_28
REMARK   16  A    between atoms: C_28  and  N_29
REMARK                            x       y       z     vdW  Elec       q    Type
REMARK                         _______ _______ _______ _____ _____    ______ ____
ROOT
ATOM      1  C   UNL     1      49.153   8.117  12.631  0.00  0.00    +0.000 A 
ATOM      2  C   UNL     1      48.043   8.458  11.850  0.00  0.00    +0.000 A 
ATOM      3  N   UNL     1      46.879   7.766  11.754  0.00  0.00    +0.000 NA
ATOM      4  C   UNL     1      46.887   6.665  12.525  0.00  0.00    +0.000 A 
ATOM      5  C   UNL     1      47.893   6.223  13.375  0.00  0.00    +0.000 A 
ATOM      6  C   UNL     1      49.074   6.976  13.435  0.00  0.00    +0.000 A 
ATOM      7  N   UNL     1      47.515   5.061  14.011  0.00  0.00    +0.000 NA
ATOM      8  C   UNL     1      46.318   4.784  13.526  0.00  0.00    +0.000 A 
ATOM      9  N   UNL     1      45.912   5.711  12.606  0.00  0.00    +0.000 N 
ENDROOT
BRANCH   1  10
ATOM     10  O   UNL     1      50.339   8.805  12.680  0.00  0.00    +0.000 OA
BRANCH  10  11
ATOM     11  C   UNL     1      51.102   8.805  11.462  0.00  0.00    +0.000 C 
BRANCH  11  12
ATOM     12  C   UNL     1      52.578   8.470  11.752  0.00  0.00    +0.000 C 
BRANCH  12  13
ATOM     13  N   UNL     1      52.776   8.079  13.166  0.00  0.00    +0.000 NA
ATOM     14  H   UNL     1      53.472   8.689  13.597  0.00  0.00    +0.000 HD
ATOM     15  H   UNL     1      53.200   7.148  13.174  0.00  0.00    +0.000 HD
ENDBRANCH  12  13
BRANCH  12  16
ATOM     16  C   UNL     1      53.060   7.338  10.822  0.00  0.00    +0.000 C 
BRANCH  16  17
ATOM     17  O   UNL     1      52.314   7.327   9.602  0.00  0.00    +0.000 OA
BRANCH  17  19
ATOM     18  C   UNL     1      54.501   7.046   8.518  0.00  0.00    +0.000 C 
ATOM     19  C   UNL     1      53.061   7.559   8.392  0.00  0.00    +0.000 C 
ATOM     20  C   UNL     1      53.042   9.038   7.985  0.00  0.00    +0.000 C 
ATOM     21  C   UNL     1      52.354   6.746   7.297  0.00  0.00    +0.000 C 
ENDBRANCH  17  19
ENDBRANCH  16  17
ENDBRANCH  12  16
ENDBRANCH  11  12
ENDBRANCH  10  11
ENDBRANCH   1  10
BRANCH   9  22
ATOM     22  C   UNL     1      44.712   5.667  11.797  0.00  0.00    +0.000 C 
BRANCH  22  23
ATOM     23  C   UNL     1      44.854   4.627  10.711  0.00  0.00    +0.000 A 
ATOM     24  C   UNL     1      44.178   3.403  10.801  0.00  0.00    +0.000 A 
ATOM     25  C   UNL     1      44.198   2.507   9.733  0.00  0.00    +0.000 A 
ATOM     26  C   UNL     1      44.891   2.830   8.566  0.00  0.00    +0.000 A 
ATOM     27  C   UNL     1      45.597   4.029   8.472  0.00  0.00    +0.000 A 
ATOM     28  C   UNL     1      45.576   4.924   9.542  0.00  0.00    +0.000 A 
BRANCH  27  29
ATOM     29  O   UNL     1      46.205   4.267   7.269  0.00  0.00    +0.000 OA
BRANCH  29  30
ATOM     30  C   UNL     1      46.470   3.109   6.472  0.00  0.00    +0.000 C 
BRANCH  30  31
ATOM     31  C   UNL     1      47.880   2.605   6.803  0.00  0.00    +0.000 C 
BRANCH  31  32
ATOM     32  N   UNL     1      48.468   1.858   5.691  0.00  0.00    +0.000 NA
ATOM     33  H   UNL     1      48.161   0.887   5.729  0.00  0.00    +0.000 HD
ATOM     34  H   UNL     1      49.482   1.836   5.806  0.00  0.00    +0.000 HD
ENDBRANCH  31  32
ENDBRANCH  30  31
ENDBRANCH  29  30
ENDBRANCH  27  29
ENDBRANCH  22  23
ENDBRANCH   9  22
TORSDOF 13
ENDMDL
MODEL 5
REMARK VINA RESULT:    -6.310      2.066      3.041
REMARK INTER + INTRA:         -11.893
REMARK INTER:                 -10.826
REMARK INTRA:                  -1.067
REMARK UNBOUND:                -1.156
REMARK  Name = 
REMARK  16 active torsions:
REMARK  status: ('A' for Active; 'I' for Inactive)
REMARK    1  A    between atoms: C_1  and  C_2
REMARK    2  A    between atoms: C_2  and  C_3
REMARK    3  A    between atoms: C_2  and  C_4
REMARK    4  A    between atoms: C_2  and  O_5
REMARK    5  A    between atoms: O_5  and  C_6
REMARK    6  A    between atoms: C_6  and  C_7
REMARK    7  A    between atoms: C_7  and  N_8
REMARK    8  A    between atoms: C_7  and  C_9
REMARK    9  A    between atoms: C_9  and  O_10
REMARK   10  A    between atoms: O_10  and  C_11
REMARK   11  A    between atoms: N_19  and  C_20
REMARK   12  A    between atoms: C_20  and  C_21
REMARK   13  A    between atoms: C_25  and  O_26
REMARK   14  A    between atoms: O_26  and  C_27
REMARK   15  A    between atoms: C_27  and  C_28
REMARK   16  A    between atoms: C_28  and  N_29
REMARK                            x       y       z     vdW  Elec       q    Type
REMARK                         _______ _______ _______ _____ _____    ______ ____
ROOT
ATOM      1  C   UNL     1      47.507   5.495  14.471  0.00  0.00    +0.000 A 
ATOM      2  C   UNL     1      46.822   4.392  13.950  0.00  0.00    +0.000 A 
ATOM      3  N   UNL     1      45.900   4.409  12.953  0.00  0.00    +0.000 NA
ATOM      4  C   UNL     1      45.698   5.652  12.482  0.00  0.00    +0.000 A 
ATOM      5  C   UNL     1      46.326   6.828  12.871  0.00  0.00    +0.000 A 
ATOM      6  C   UNL     1      47.270   6.752  13.905  0.00  0.00    +0.000 A 
ATOM      7  N   UNL     1      45.858   7.894  12.135  0.00  0.00    +0.000 NA
ATOM      8  C   UNL     1      44.937   7.379  11.341  0.00  0.00    +0.000 A 
ATOM      9  N   UNL     1      44.788   6.034  11.537  0.00  0.00    +0.000 N 
ENDROOT
BRANCH   1  10
ATOM     10  O   UNL     1      48.402   5.465  15.510  0.00  0.00    +0.000 OA
BRANCH  10  11
ATOM     11  C   UNL     1      48.676   6.734  16.125  0.00  0.00    +0.000 C 
BRANCH  11  12
ATOM     12  C   UNL     1      50.144   6.801  16.590  0.00  0.00    +0.000 C 
BRANCH  12  13
ATOM     13  N   UNL     1      50.752   5.453  16.655  0.00  0.00    +0.000 NA
ATOM     14  H   UNL     1      50.699   5.008  15.737  0.00  0.00    +0.000 HD
ATOM     15  H   UNL     1      50.164   4.875  17.261  0.00  0.00    +0.000 HD
ENDBRANCH  12  13
BRANCH  12  16
ATOM     16  C   UNL     1      50.963   7.700  15.642  0.00  0.00    +0.000 C 
BRANCH  16  17
ATOM     17  O   UNL     1      50.697   7.375  14.274  0.00  0.00    +0.000 OA
BRANCH  17  19
ATOM     18  C   UNL     1      49.723   9.604  13.922  0.00  0.00    +0.000 C 
ATOM     19  C   UNL     1      50.607   8.484  13.359  0.00  0.00    +0.000 C 
ATOM     20  C   UNL     1      50.112   8.042  11.975  0.00  0.00    +0.000 C 
ATOM     21  C   UNL     1      52.037   9.027  13.211  0.00  0.00    +0.000 C 
ENDBRANCH  17  19
ENDBRANCH  16  17
ENDBRANCH  12  16
ENDBRANCH  11  12
ENDBRANCH  10  11
ENDBRANCH   1  10
BRANCH   9  22
ATOM     22  C   UNL     1      43.801   5.170  10.924  0.00  0.00    +0.000 C 
BRANCH  22  23
ATOM     23  C   UNL     1      44.478   4.154  10.035  0.00  0.00    +0.000 A 
ATOM     24  C   UNL     1      44.179   2.790  10.152  0.00  0.00    +0.000 A 
ATOM     25  C   UNL     1      44.698   1.874   9.236  0.00  0.00    +0.000 A 
ATOM     26  C   UNL     1      45.514   2.317   8.195  0.00  0.00    +0.000 A 
ATOM     27  C   UNL     1      45.849   3.666   8.084  0.00  0.00    +0.000 A 
ATOM     28  C   UNL     1      45.330   4.581   9.001  0.00  0.00    +0.000 A 
BRANCH  27  29
ATOM     29  O   UNL     1      46.620   3.998   7.003  0.00  0.00    +0.000 OA
BRANCH  29  30
ATOM     30  C   UNL     1      46.479   3.150   5.861  0.00  0.00    +0.000 C 
BRANCH  30  31
ATOM     31  C   UNL     1      47.727   2.267   5.754  0.00  0.00    +0.000 C 
BRANCH  31  32
ATOM     32  N   UNL     1      48.868   2.845   6.465  0.00  0.00    +0.000 NA
ATOM     33  H   UNL     1      49.591   2.136   6.587  0.00  0.00    +0.000 HD
ATOM     34  H   UNL     1      48.574   3.109   7.405  0.00  0.00    +0.000 HD
ENDBRANCH  31  32
ENDBRANCH  30  31
ENDBRANCH  29  30
ENDBRANCH  27  29
ENDBRANCH  22  23
ENDBRANCH   9  22
TORSDOF 13
ENDMDL
MODEL 6
REMARK VINA RESULT:    -6.191      1.897      8.946
REMARK INTER + INTRA:         -11.690
REMARK INTER:                 -10.755
REMARK INTRA:                  -0.934
REMARK UNBOUND:                -1.156
REMARK  Name = 
REMARK  16 active torsions:
REMARK  status: ('A' for Active; 'I' for Inactive)
REMARK    1  A    between atoms: C_1  and  C_2
REMARK    2  A    between atoms: C_2  and  C_3
REMARK    3  A    between atoms: C_2  and  C_4
REMARK    4  A    between atoms: C_2  and  O_5
REMARK    5  A    between atoms: O_5  and  C_6
REMARK    6  A    between atoms: C_6  and  C_7
REMARK    7  A    between atoms: C_7  and  N_8
REMARK    8  A    between atoms: C_7  and  C_9
REMARK    9  A    between atoms: C_9  and  O_10
REMARK   10  A    between atoms: O_10  and  C_11
REMARK   11  A    between atoms: N_19  and  C_20
REMARK   12  A    between atoms: C_20  and  C_21
REMARK   13  A    between atoms: C_25  and  O_26
REMARK   14  A    between atoms: O_26  and  C_27
REMARK   15  A    between atoms: C_27  and  C_28
REMARK   16  A    between atoms: C_28  and  N_29
REMARK                            x       y       z     vdW  Elec       q    Type
REMARK                         _______ _______ _______ _____ _____    ______ ____
ROOT
ATOM      1  C   UNL     1      45.254   5.251  12.204  0.00  0.00    +0.000 A 
ATOM      2  C   UNL     1      46.305   4.700  12.945  0.00  0.00    +0.000 A 
ATOM      3  N   UNL     1      47.259   5.385  13.627  0.00  0.00    +0.000 NA
ATOM      4  C   UNL     1      47.090   6.714  13.524  0.00  0.00    +0.000 A 
ATOM      5  C   UNL     1      46.081   7.400  12.860  0.00  0.00    +0.000 A 
ATOM      6  C   UNL     1      45.122   6.643  12.172  0.00  0.00    +0.000 A 
ATOM      7  N   UNL     1      46.243   8.760  13.003  0.00  0.00    +0.000 NA
ATOM      8  C   UNL     1      47.351   8.896  13.709  0.00  0.00    +0.000 A 
ATOM      9  N   UNL     1      47.910   7.688  14.021  0.00  0.00    +0.000 N 
ENDROOT
BRANCH   1  10
ATOM     10  O   UNL     1      44.325   4.544  11.483  0.00  0.00    +0.000 OA
BRANCH  10  11
ATOM     11  C   UNL     1      44.763   3.262  11.004  0.00  0.00    +0.000 C 
BRANCH  11  12
ATOM     12  C   UNL     1      44.257   3.023   9.568  0.00  0.00    +0.000 C 
BRANCH  12  13
ATOM     13  N   UNL     1      44.178   4.289   8.806  0.00  0.00    +0.000 NA
ATOM     14  H   UNL     1      43.249   4.383   8.392  0.00  0.00    +0.000 HD
ATOM     15  H   UNL     1      44.814   4.212   8.008  0.00  0.00    +0.000 HD
ENDBRANCH  12  13
BRANCH  12  16
ATOM     16  C   UNL     1      45.180   2.027   8.836  0.00  0.00    +0.000 C 
BRANCH  16  17
ATOM     17  O   UNL     1      46.257   2.711   8.190  0.00  0.00    +0.000 OA
BRANCH  17  19
ATOM     18  C   UNL     1      46.942   0.493   7.384  0.00  0.00    +0.000 C 
ATOM     19  C   UNL     1      46.915   2.004   7.121  0.00  0.00    +0.000 C 
ATOM     20  C   UNL     1      48.330   2.540   6.868  0.00  0.00    +0.000 C 
ATOM     21  C   UNL     1      46.070   2.258   5.863  0.00  0.00    +0.000 C 
ENDBRANCH  17  19
ENDBRANCH  16  17
ENDBRANCH  12  16
ENDBRANCH  11  12
ENDBRANCH  10  11
ENDBRANCH   1  10
BRANCH   9  22
ATOM     22  C   UNL     1      49.176   7.460  14.685  0.00  0.00    +0.000 C 
BRANCH  22  23
ATOM     23  C   UNL     1      48.950   7.162  16.149  0.00  0.00    +0.000 A 
ATOM     24  C   UNL     1      48.658   8.193  17.051  0.00  0.00    +0.000 A 
ATOM     25  C   UNL     1      48.310   7.898  18.369  0.00  0.00    +0.000 A 
ATOM     26  C   UNL     1      48.248   6.570  18.792  0.00  0.00    +0.000 A 
ATOM     27  C   UNL     1      48.569   5.534  17.917  0.00  0.00    +0.000 A 
ATOM     28  C   UNL     1      48.917   5.831  16.599  0.00  0.00    +0.000 A 
BRANCH  27  29
ATOM     29  O   UNL     1      48.434   4.269  18.421  0.00  0.00    +0.000 OA
BRANCH  29  30
ATOM     30  C   UNL     1      48.213   3.239  17.454  0.00  0.00    +0.000 C 
BRANCH  30  31
ATOM     31  C   UNL     1      49.466   2.358  17.387  0.00  0.00    +0.000 C 
BRANCH  31  32
ATOM     32  N   UNL     1      49.696   1.836  16.040  0.00  0.00    +0.000 NA
ATOM     33  H   UNL     1      48.843   1.399  15.692  0.00  0.00    +0.000 HD
ATOM     34  H   UNL     1      50.392   1.091  16.088  0.00  0.00    +0.000 HD
ENDBRANCH  31  32
ENDBRANCH  30  31
ENDBRANCH  29  30
ENDBRANCH  27  29
ENDBRANCH  22  23
ENDBRANCH   9  22
TORSDOF 13
ENDMDL
MODEL 7
REMARK VINA RESULT:    -5.930      2.587      3.805
REMARK INTER + INTRA:         -11.246
REMARK INTER:                 -10.095
REMARK INTRA:                  -1.151
REMARK UNBOUND:                -1.156
REMARK  Name = 
REMARK  16 active torsions:
REMARK  status: ('A' for Active; 'I' for Inactive)
REMARK    1  A    between atoms: C_1  and  C_2
REMARK    2  A    between atoms: C_2  and  C_3
REMARK    3  A    between atoms: C_2  and  C_4
REMARK    4  A    between atoms: C_2  and  O_5
REMARK    5  A    between atoms: O_5  and  C_6
REMARK    6  A    between atoms: C_6  and  C_7
REMARK    7  A    between atoms: C_7  and  N_8
REMARK    8  A    between atoms: C_7  and  C_9
REMARK    9  A    between atoms: C_9  and  O_10
REMARK   10  A    between atoms: O_10  and  C_11
REMARK   11  A    between atoms: N_19  and  C_20
REMARK   12  A    between atoms: C_20  and  C_21
REMARK   13  A    between atoms: C_25  and  O_26
REMARK   14  A    between atoms: O_26  and  C_27
REMARK   15  A    between atoms: C_27  and  C_28
REMARK   16  A    between atoms: C_28  and  N_29
REMARK                            x       y       z     vdW  Elec       q    Type
REMARK                         _______ _______ _______ _____ _____    ______ ____
ROOT
ATOM      1  C   UNL     1      49.643   8.543  12.960  0.00  0.00    +0.000 A 
ATOM      2  C   UNL     1      48.599   9.037  12.170  0.00  0.00    +0.000 A 
ATOM      3  N   UNL     1      47.430   8.406  11.890  0.00  0.00    +0.000 NA
ATOM      4  C   UNL     1      47.359   7.200  12.477  0.00  0.00    +0.000 A 
ATOM      5  C   UNL     1      48.292   6.598  13.312  0.00  0.00    +0.000 A 
ATOM      6  C   UNL     1      49.482   7.294  13.568  0.00  0.00    +0.000 A 
ATOM      7  N   UNL     1      47.844   5.365  13.731  0.00  0.00    +0.000 NA
ATOM      8  C   UNL     1      46.679   5.206  13.131  0.00  0.00    +0.000 A 
ATOM      9  N   UNL     1      46.360   6.277  12.343  0.00  0.00    +0.000 N 
ENDROOT
BRANCH   1  10
ATOM     10  O   UNL     1      50.838   9.175  13.195  0.00  0.00    +0.000 OA
BRANCH  10  11
ATOM     11  C   UNL     1      51.581   8.687  14.324  0.00  0.00    +0.000 C 
BRANCH  11  12
ATOM     12  C   UNL     1      51.709   9.785  15.398  0.00  0.00    +0.000 C 
BRANCH  12  13
ATOM     13  N   UNL     1      51.032  11.033  14.978  0.00  0.00    +0.000 NA
ATOM     14  H   UNL     1      51.287  11.254  14.015  0.00  0.00    +0.000 HD
ATOM     15  H   UNL     1      51.419  11.799  15.535  0.00  0.00    +0.000 HD
ENDBRANCH  12  13
BRANCH  12  16
ATOM     16  C   UNL     1      51.120   9.293  16.736  0.00  0.00    +0.000 C 
BRANCH  16  17
ATOM     17  O   UNL     1      50.099   8.316  16.514  0.00  0.00    +0.000 OA
BRANCH  17  19
ATOM     18  C   UNL     1      50.467   7.581  18.830  0.00  0.00    +0.000 C 
ATOM     19  C   UNL     1      50.101   7.177  17.397  0.00  0.00    +0.000 C 
ATOM     20  C   UNL     1      51.027   6.065  16.889  0.00  0.00    +0.000 C 
ATOM     21  C   UNL     1      48.660   6.643  17.400  0.00  0.00    +0.000 C 
ENDBRANCH  17  19
ENDBRANCH  16  17
ENDBRANCH  12  16
ENDBRANCH  11  12
ENDBRANCH  10  11
ENDBRANCH   1  10
BRANCH   9  22
ATOM     22  C   UNL     1      45.219   6.398  11.459  0.00  0.00    +0.000 C 
BRANCH  22  23
ATOM     23  C   UNL     1      45.155   5.212  10.527  0.00  0.00    +0.000 A 
ATOM     24  C   UNL     1      44.324   4.121  10.816  0.00  0.00    +0.000 A 
ATOM     25  C   UNL     1      44.159   3.095   9.886  0.00  0.00    +0.000 A 
ATOM     26  C   UNL     1      44.820   3.155   8.658  0.00  0.00    +0.000 A 
ATOM     27  C   UNL     1      45.677   4.216   8.368  0.00  0.00    +0.000 A 
ATOM     28  C   UNL     1      45.840   5.242   9.301  0.00  0.00    +0.000 A 
BRANCH  27  29
ATOM     29  O   UNL     1      46.240   4.199   7.121  0.00  0.00    +0.000 OA
BRANCH  29  30
ATOM     30  C   UNL     1      46.447   2.903   6.555  0.00  0.00    +0.000 C 
BRANCH  30  31
ATOM     31  C   UNL     1      47.908   2.500   6.786  0.00  0.00    +0.000 C 
BRANCH  31  32
ATOM     32  N   UNL     1      48.486   1.843   5.614  0.00  0.00    +0.000 NA
ATOM     33  H   UNL     1      49.413   1.486   5.843  0.00  0.00    +0.000 HD
ATOM     34  H   UNL     1      48.628   2.538   4.881  0.00  0.00    +0.000 HD
ENDBRANCH  31  32
ENDBRANCH  30  31
ENDBRANCH  29  30
ENDBRANCH  27  29
ENDBRANCH  22  23
ENDBRANCH   9  22
TORSDOF 13
ENDMDL
MODEL 8
REMARK VINA RESULT:    -5.765      2.117      9.490
REMARK INTER + INTRA:         -10.965
REMARK INTER:                 -10.217
REMARK INTRA:                  -0.748
REMARK UNBOUND:                -1.156
REMARK  Name = 
REMARK  16 active torsions:
REMARK  status: ('A' for Active; 'I' for Inactive)
REMARK    1  A    between atoms: C_1  and  C_2
REMARK    2  A    between atoms: C_2  and  C_3
REMARK    3  A    between atoms: C_2  and  C_4
REMARK    4  A    between atoms: C_2  and  O_5
REMARK    5  A    between atoms: O_5  and  C_6
REMARK    6  A    between atoms: C_6  and  C_7
REMARK    7  A    between atoms: C_7  and  N_8
REMARK    8  A    between atoms: C_7  and  C_9
REMARK    9  A    between atoms: C_9  and  O_10
REMARK   10  A    between atoms: O_10  and  C_11
REMARK   11  A    between atoms: N_19  and  C_20
REMARK   12  A    between atoms: C_20  and  C_21
REMARK   13  A    between atoms: C_25  and  O_26
REMARK   14  A    between atoms: O_26  and  C_27
REMARK   15  A    between atoms: C_27  and  C_28
REMARK   16  A    between atoms: C_28  and  N_29
REMARK                            x       y       z     vdW  Elec       q    Type
REMARK                         _______ _______ _______ _____ _____    ______ ____
ROOT
ATOM      1  C   UNL     1      44.989   5.310  11.752  0.00  0.00    +0.000 A 
ATOM      2  C   UNL     1      44.748   4.271  12.657  0.00  0.00    +0.000 A 
ATOM      3  N   UNL     1      45.441   4.014  13.796  0.00  0.00    +0.000 NA
ATOM      4  C   UNL     1      46.432   4.902  13.989  0.00  0.00    +0.000 A 
ATOM      5  C   UNL     1      46.764   5.998  13.203  0.00  0.00    +0.000 A 
ATOM      6  C   UNL     1      46.015   6.216  12.038  0.00  0.00    +0.000 A 
ATOM      7  N   UNL     1      47.831   6.678  13.746  0.00  0.00    +0.000 NA
ATOM      8  C   UNL     1      48.164   5.986  14.820  0.00  0.00    +0.000 A 
ATOM      9  N   UNL     1      47.363   4.891  14.989  0.00  0.00    +0.000 N 
ENDROOT
BRANCH   1  10
ATOM     10  O   UNL     1      44.306   5.527  10.581  0.00  0.00    +0.000 OA
BRANCH  10  11
ATOM     11  C   UNL     1      43.796   4.348   9.938  0.00  0.00    +0.000 C 
BRANCH  11  12
ATOM     12  C   UNL     1      44.558   4.079   8.626  0.00  0.00    +0.000 C 
BRANCH  12  13
ATOM     13  N   UNL     1      45.641   5.066   8.418  0.00  0.00    +0.000 NA
ATOM     14  H   UNL     1      46.546   4.593   8.441  0.00  0.00    +0.000 HD
ATOM     15  H   UNL     1      45.652   5.692   9.228  0.00  0.00    +0.000 HD
ENDBRANCH  12  13
BRANCH  12  16
ATOM     16  C   UNL     1      45.144   2.652   8.633  0.00  0.00    +0.000 C 
BRANCH  16  17
ATOM     17  O   UNL     1      46.542   2.673   8.331  0.00  0.00    +0.000 OA
BRANCH  17  19
ATOM     18  C   UNL     1      48.414   2.275   6.790  0.00  0.00    +0.000 C 
ATOM     19  C   UNL     1      46.950   1.978   7.136  0.00  0.00    +0.000 C 
ATOM     20  C   UNL     1      46.032   2.299   5.950  0.00  0.00    +0.000 C 
ATOM     21  C   UNL     1      46.824   0.481   7.455  0.00  0.00    +0.000 C 
ENDBRANCH  17  19
ENDBRANCH  16  17
ENDBRANCH  12  16
ENDBRANCH  11  12
ENDBRANCH  10  11
ENDBRANCH   1  10
BRANCH   9  22
ATOM     22  C   UNL     1      47.507   3.854  15.990  0.00  0.00    +0.000 C 
BRANCH  22  23
ATOM     23  C   UNL     1      48.126   4.423  17.244  0.00  0.00    +0.000 A 
ATOM     24  C   UNL     1      47.345   5.128  18.169  0.00  0.00    +0.000 A 
ATOM     25  C   UNL     1      47.888   5.527  19.391  0.00  0.00    +0.000 A 
ATOM     26  C   UNL     1      49.214   5.220  19.696  0.00  0.00    +0.000 A 
ATOM     27  C   UNL     1      50.015   4.549  18.773  0.00  0.00    +0.000 A 
ATOM     28  C   UNL     1      49.470   4.151  17.552  0.00  0.00    +0.000 A 
BRANCH  27  29
ATOM     29  O   UNL     1      51.286   4.261  19.191  0.00  0.00    +0.000 OA
BRANCH  29  30
ATOM     30  C   UNL     1      52.318   4.479  18.225  0.00  0.00    +0.000 C 
BRANCH  30  31
ATOM     31  C   UNL     1      53.351   3.354  18.355  0.00  0.00    +0.000 C 
BRANCH  31  32
ATOM     32  N   UNL     1      54.598   3.674  17.659  0.00  0.00    +0.000 NA
ATOM     33  H   UNL     1      54.401   3.869  16.677  0.00  0.00    +0.000 HD
ATOM     34  H   UNL     1      55.201   2.851  17.664  0.00  0.00    +0.000 HD
ENDBRANCH  31  32
ENDBRANCH  30  31
ENDBRANCH  29  30
ENDBRANCH  27  29
ENDBRANCH  22  23
ENDBRANCH   9  22
TORSDOF 13
ENDMDL
MODEL 9
REMARK VINA RESULT:    -5.740      2.401      9.320
REMARK INTER + INTRA:         -10.922
REMARK INTER:                 -10.277
REMARK INTRA:                  -0.645
REMARK UNBOUND:                -1.156
REMARK  Name = 
REMARK  16 active torsions:
REMARK  status: ('A' for Active; 'I' for Inactive)
REMARK    1  A    between atoms: C_1  and  C_2
REMARK    2  A    between atoms: C_2  and  C_3
REMARK    3  A    between atoms: C_2  and  C_4
REMARK    4  A    between atoms: C_2  and  O_5
REMARK    5  A    between atoms: O_5  and  C_6
REMARK    6  A    between atoms: C_6  and  C_7
REMARK    7  A    between atoms: C_7  and  N_8
REMARK    8  A    between atoms: C_7  and  C_9
REMARK    9  A    between atoms: C_9  and  O_10
REMARK   10  A    between atoms: O_10  and  C_11
REMARK   11  A    between atoms: N_19  and  C_20
REMARK   12  A    between atoms: C_20  and  C_21
REMARK   13  A    between atoms: C_25  and  O_26
REMARK   14  A    between atoms: O_26  and  C_27
REMARK   15  A    between atoms: C_27  and  C_28
REMARK   16  A    between atoms: C_28  and  N_29
REMARK                            x       y       z     vdW  Elec       q    Type
REMARK                         _______ _______ _______ _____ _____    ______ ____
ROOT
ATOM      1  C   UNL     1      45.766   4.913  12.109  0.00  0.00    +0.000 A 
ATOM      2  C   UNL     1      45.434   4.052  13.161  0.00  0.00    +0.000 A 
ATOM      3  N   UNL     1      46.009   4.019  14.391  0.00  0.00    +0.000 NA
ATOM      4  C   UNL     1      46.975   4.944  14.516  0.00  0.00    +0.000 A 
ATOM      5  C   UNL     1      47.386   5.884  13.580  0.00  0.00    +0.000 A 
ATOM      6  C   UNL     1      46.759   5.874  12.326  0.00  0.00    +0.000 A 
ATOM      7  N   UNL     1      48.394   6.671  14.093  0.00  0.00    +0.000 NA
ATOM      8  C   UNL     1      48.615   6.191  15.304  0.00  0.00    +0.000 A 
ATOM      9  N   UNL     1      47.801   5.131  15.589  0.00  0.00    +0.000 N 
ENDROOT
BRANCH   1  10
ATOM     10  O   UNL     1      45.206   4.901  10.857  0.00  0.00    +0.000 OA
BRANCH  10  11
ATOM     11  C   UNL     1      44.206   3.893  10.639  0.00  0.00    +0.000 C 
BRANCH  11  12
ATOM     12  C   UNL     1      44.340   3.301   9.222  0.00  0.00    +0.000 C 
BRANCH  12  13
ATOM     13  N   UNL     1      44.296   4.359   8.188  0.00  0.00    +0.000 NA
ATOM     14  H   UNL     1      45.217   4.457   7.758  0.00  0.00    +0.000 HD
ATOM     15  H   UNL     1      44.132   5.251   8.662  0.00  0.00    +0.000 HD
ENDBRANCH  12  13
BRANCH  12  16
ATOM     16  C   UNL     1      45.654   2.503   9.100  0.00  0.00    +0.000 C 
BRANCH  16  17
ATOM     17  O   UNL     1      46.485   3.044   8.070  0.00  0.00    +0.000 OA
BRANCH  17  19
ATOM     18  C   UNL     1      46.155   2.359   5.733  0.00  0.00    +0.000 C 
ATOM     19  C   UNL     1      46.914   2.126   7.045  0.00  0.00    +0.000 C 
ATOM     20  C   UNL     1      46.787   0.666   7.498  0.00  0.00    +0.000 C 
ATOM     21  C   UNL     1      48.401   2.429   6.802  0.00  0.00    +0.000 C 
ENDBRANCH  17  19
ENDBRANCH  16  17
ENDBRANCH  12  16
ENDBRANCH  11  12
ENDBRANCH  10  11
ENDBRANCH   1  10
BRANCH   9  22
ATOM     22  C   UNL     1      47.841   4.296  16.772  0.00  0.00    +0.000 C 
BRANCH  22  23
ATOM     23  C   UNL     1      49.271   3.956  17.119  0.00  0.00    +0.000 A 
ATOM     24  C   UNL     1      50.067   4.862  17.833  0.00  0.00    +0.000 A 
ATOM     25  C   UNL     1      51.336   4.489  18.275  0.00  0.00    +0.000 A 
ATOM     26  C   UNL     1      51.816   3.206  18.010  0.00  0.00    +0.000 A 
ATOM     27  C   UNL     1      51.051   2.303  17.273  0.00  0.00    +0.000 A 
ATOM     28  C   UNL     1      49.782   2.679  16.831  0.00  0.00    +0.000 A 
BRANCH  27  29
ATOM     29  O   UNL     1      51.598   1.059  17.108  0.00  0.00    +0.000 OA
BRANCH  29  30
ATOM     30  C   UNL     1      52.767   0.791  17.886  0.00  0.00    +0.000 C 
BRANCH  30  31
ATOM     31  C   UNL     1      53.868   0.282  16.949  0.00  0.00    +0.000 C 
BRANCH  31  32
ATOM     32  N   UNL     1      54.060  -1.164  17.064  0.00  0.00    +0.000 NA
ATOM     33  H   UNL     1      55.048  -1.367  17.214  0.00  0.00    +0.000 HD
ATOM     34  H   UNL     1      53.816  -1.602  16.176  0.00  0.00    +0.000 HD
ENDBRANCH  31  32
ENDBRANCH  30  31
ENDBRANCH  29  30
ENDBRANCH  27  29
ENDBRANCH  22  23
ENDBRANCH   9  22
TORSDOF 13
ENDMDL
