MODEL 1
REMARK VINA RESULT:    -8.138      0.000      0.000
REMARK INTER + INTRA:         -10.378
REMARK INTER:                 -10.041
REMARK INTRA:                  -0.336
REMARK UNBOUND:                -0.336
REMARK  Name = 
REMARK  4 active torsions:
REMARK  status: ('A' for Active; 'I' for Inactive)
REMARK    1  A    between atoms: C_2  and  C_3
REMARK    2  A    between atoms: N_7  and  C_8
REMARK    3  A    between atoms: C_8  and  C_9
REMARK    4  A    between atoms: C_13  and  C_14
REMARK                            x       y       z     vdW  Elec       q    Type
REMARK                         _______ _______ _______ _____ _____    ______ ____
ROOT
ATOM      1  C   UNL     1      43.889   5.570  11.396  0.00  0.00    +0.000 C 
ATOM      2  C   UNL     1      42.721   4.829  12.051  0.00  0.00    +0.000 C 
ATOM      3  C   UNL     1      42.564   6.266  11.682  0.00  0.00    +0.000 C 
ENDROOT
BRANCH   1   8
ATOM      4  C   UNL     1      46.010   2.192   8.139  0.00  0.00    +0.000 A 
ATOM      5  C   UNL     1      45.294   2.069   9.293  0.00  0.00    +0.000 A 
ATOM      6  N   UNL     1      44.722   3.114   9.927  0.00  0.00    +0.000 NA
ATOM      7  C   UNL     1      44.856   4.336   9.388  0.00  0.00    +0.000 A 
ATOM      8  N   UNL     1      44.283   5.452   9.990  0.00  0.00    +0.000 N 
ATOM      9  N   UNL     1      45.515   4.546   8.236  0.00  0.00    +0.000 NA
ATOM     10  C   UNL     1      46.091   3.472   7.642  0.00  0.00    +0.000 A 
ATOM     11  H   UNL     1      44.413   6.274   9.416  0.00  0.00    +0.000 HD
BRANCH   4  13
ATOM     12  N   UNL     1      47.144   0.172   6.999  0.00  0.00    +0.000 NA
ATOM     13  C   UNL     1      46.630   1.083   7.508  0.00  0.00    +0.000 C 
ENDBRANCH   4  13
ENDBRANCH   1   8
BRANCH   1  14
ATOM     14  C   UNL     1      45.050   5.770  12.377  0.00  0.00    +0.000 A 
ATOM     15  C   UNL     1      45.382   4.813  13.346  0.00  0.00    +0.000 A 
ATOM     16  C   UNL     1      46.623   4.842  13.980  0.00  0.00    +0.000 A 
ATOM     17  C   UNL     1      47.548   5.840  13.664  0.00  0.00    +0.000 A 
ATOM     18  C   UNL     1      47.235   6.859  12.752  0.00  0.00    +0.000 A 
ATOM     19  C   UNL     1      45.957   6.829  12.166  0.00  0.00    +0.000 A 
BRANCH  18  20
ATOM     20  C   UNL     1      48.243   7.846  12.304  0.00  0.00    +0.000 A 
ATOM     21  C   UNL     1      49.567   7.454  12.043  0.00  0.00    +0.000 A 
ATOM     22  C   UNL     1      50.511   8.354  11.539  0.00  0.00    +0.000 A 
ATOM     23  C   UNL     1      50.145   9.671  11.278  0.00  0.00    +0.000 A 
ATOM     24  C   UNL     1      48.841  10.088  11.532  0.00  0.00    +0.000 A 
ATOM     25  C   UNL     1      47.902   9.185  12.044  0.00  0.00    +0.000 A 
ENDBRANCH  18  20
ENDBRANCH   1  14
TORSDOF 4
ENDMDL
MODEL 2
REMARK VINA RESULT:    -7.743      1.233      1.941
REMARK INTER + INTRA:          -9.890
REMARK INTER:                  -9.138
REMARK INTRA:                  -0.752
REMARK UNBOUND:                -0.336
REMARK  Name = 
REMARK  4 active torsions:
REMARK  status: ('A' for Active; 'I' for Inactive)
REMARK    1  A    between atoms: C_2  and  C_3
REMARK    2  A    between atoms: N_7  and  C_8
REMARK    3  A    between atoms: C_8  and  C_9
REMARK    4  A    between atoms: C_13  and  C_14
REMARK                            x       y       z     vdW  Elec       q    Type
REMARK                         _______ _______ _______ _____ _____    ______ ____
ROOT
ATOM      1  C   UNL     1      44.012   4.830  12.060  0.00  0.00    +0.000 C 
ATOM      2  C   UNL     1      42.656   5.125  12.702  0.00  0.00    +0.000 C 
ATOM      3  C   UNL     1      42.981   5.714  11.371  0.00  0.00    +0.000 C 
ENDROOT
BRANCH   1   8
ATOM      4  C   UNL     1      45.964   3.163   7.595  0.00  0.00    +0.000 A 
ATOM      5  C   UNL     1      46.070   4.328   8.295  0.00  0.00    +0.000 A 
ATOM      6  N   UNL     1      45.556   4.501   9.531  0.00  0.00    +0.000 NA
ATOM      7  C   UNL     1      44.917   3.470  10.105  0.00  0.00    +0.000 A 
ATOM      8  N   UNL     1      44.373   3.583  11.381  0.00  0.00    +0.000 N 
ATOM      9  N   UNL     1      44.795   2.274   9.503  0.00  0.00    +0.000 NA
ATOM     10  C   UNL     1      45.308   2.149   8.254  0.00  0.00    +0.000 A 
ATOM     11  H   UNL     1      44.000   2.696  11.690  0.00  0.00    +0.000 HD
BRANCH   4  13
ATOM     12  N   UNL     1      46.900   2.896   5.204  0.00  0.00    +0.000 NA
ATOM     13  C   UNL     1      46.484   3.015   6.284  0.00  0.00    +0.000 C 
ENDBRANCH   4  13
ENDBRANCH   1   8
BRANCH   1  14
ATOM     14  C   UNL     1      45.158   5.500  12.828  0.00  0.00    +0.000 A 
ATOM     15  C   UNL     1      45.972   4.791  13.721  0.00  0.00    +0.000 A 
ATOM     16  C   UNL     1      47.198   5.310  14.133  0.00  0.00    +0.000 A 
ATOM     17  C   UNL     1      47.623   6.557  13.668  0.00  0.00    +0.000 A 
ATOM     18  C   UNL     1      46.812   7.335  12.829  0.00  0.00    +0.000 A 
ATOM     19  C   UNL     1      45.560   6.804  12.470  0.00  0.00    +0.000 A 
BRANCH  18  20
ATOM     20  C   UNL     1      47.295   8.594  12.219  0.00  0.00    +0.000 A 
ATOM     21  C   UNL     1      46.442   9.703  12.090  0.00  0.00    +0.000 A 
ATOM     22  C   UNL     1      46.902  10.927  11.594  0.00  0.00    +0.000 A 
ATOM     23  C   UNL     1      48.236  11.068  11.222  0.00  0.00    +0.000 A 
ATOM     24  C   UNL     1      49.102   9.984  11.335  0.00  0.00    +0.000 A 
ATOM     25  C   UNL     1      48.634   8.759  11.824  0.00  0.00    +0.000 A 
ENDBRANCH  18  20
ENDBRANCH   1  14
TORSDOF 4
ENDMDL
MODEL 3
REMARK VINA RESULT:    -7.599      3.374      6.985
REMARK INTER + INTRA:          -9.713
REMARK INTER:                  -9.150
REMARK INTRA:                  -0.563
REMARK UNBOUND:                -0.336
REMARK  Name = 
REMARK  4 active torsions:
REMARK  status: ('A' for Active; 'I' for Inactive)
REMARK    1  A    between atoms: C_2  and  C_3
REMARK    2  A    between atoms: N_7  and  C_8
REMARK    3  A    between atoms: C_8  and  C_9
REMARK    4  A    between atoms: C_13  and  C_14
REMARK                            x       y       z     vdW  Elec       q    Type
REMARK                         _______ _______ _______ _____ _____    ______ ____
ROOT
ATOM      1  C   UNL     1      45.404   5.778  12.177  0.00  0.00    +0.000 C 
ATOM      2  C   UNL     1      44.674   6.883  11.413  0.00  0.00    +0.000 C 
ATOM      3  C   UNL     1      44.302   6.602  12.829  0.00  0.00    +0.000 C 
ENDROOT
BRANCH   1   8
ATOM      4  C   UNL     1      47.991   4.604  16.473  0.00  0.00    +0.000 A 
ATOM      5  C   UNL     1      46.891   4.080  15.861  0.00  0.00    +0.000 A 
ATOM      6  N   UNL     1      46.452   4.484  14.649  0.00  0.00    +0.000 NA
ATOM      7  C   UNL     1      47.142   5.442  14.010  0.00  0.00    +0.000 A 
ATOM      8  N   UNL     1      46.746   5.895  12.756  0.00  0.00    +0.000 N 
ATOM      9  N   UNL     1      48.257   5.990  14.523  0.00  0.00    +0.000 NA
ATOM     10  C   UNL     1      48.651   5.570  15.751  0.00  0.00    +0.000 A 
ATOM     11  H   UNL     1      47.415   6.557  12.387  0.00  0.00    +0.000 HD
BRANCH   4  13
ATOM     12  N   UNL     1      48.757   3.833  18.815  0.00  0.00    +0.000 NA
ATOM     13  C   UNL     1      48.413   4.186  17.761  0.00  0.00    +0.000 C 
ENDBRANCH   4  13
ENDBRANCH   1   8
BRANCH   1  14
ATOM     14  C   UNL     1      45.057   4.389  11.630  0.00  0.00    +0.000 A 
ATOM     15  C   UNL     1      43.933   3.674  12.068  0.00  0.00    +0.000 A 
ATOM     16  C   UNL     1      43.441   2.599  11.331  0.00  0.00    +0.000 A 
ATOM     17  C   UNL     1      44.075   2.211  10.148  0.00  0.00    +0.000 A 
ATOM     18  C   UNL     1      45.242   2.851   9.706  0.00  0.00    +0.000 A 
ATOM     19  C   UNL     1      45.742   3.901  10.498  0.00  0.00    +0.000 A 
BRANCH  18  20
ATOM     20  C   UNL     1      45.854   2.547   8.394  0.00  0.00    +0.000 A 
ATOM     21  C   UNL     1      46.016   3.552   7.425  0.00  0.00    +0.000 A 
ATOM     22  C   UNL     1      46.667   3.304   6.213  0.00  0.00    +0.000 A 
ATOM     23  C   UNL     1      47.178   2.037   5.946  0.00  0.00    +0.000 A 
ATOM     24  C   UNL     1      47.027   1.021   6.885  0.00  0.00    +0.000 A 
ATOM     25  C   UNL     1      46.368   1.273   8.094  0.00  0.00    +0.000 A 
ENDBRANCH  18  20
ENDBRANCH   1  14
TORSDOF 4
ENDMDL
MODEL 4
REMARK VINA RESULT:    -7.067      2.671      6.813
REMARK INTER + INTRA:          -9.056
REMARK INTER:                  -8.435
REMARK INTRA:                  -0.621
REMARK UNBOUND:                -0.336
REMARK  Name = 
REMARK  4 active torsions:
REMARK  status: ('A' for Active; 'I' for Inactive)
REMARK    1  A    between atoms: C_2  and  C_3
REMARK    2  A    between atoms: N_7  and  C_8
REMARK    3  A    between atoms: C_8  and  C_9
REMARK    4  A    between atoms: C_13  and  C_14
REMARK                            x       y       z     vdW  Elec       q    Type
REMARK                         _______ _______ _______ _____ _____    ______ ____
ROOT
ATOM      1  C   UNL     1      46.135   5.360  13.541  0.00  0.00    +0.000 C 
ATOM      2  C   UNL     1      46.295   4.393  14.715  0.00  0.00    +0.000 C 
ATOM      3  C   UNL     1      47.423   4.576  13.755  0.00  0.00    +0.000 C 
ENDROOT
BRANCH   1   8
ATOM      4  C   UNL     1      49.079   9.256  11.906  0.00  0.00    +0.000 A 
ATOM      5  C   UNL     1      48.817   8.006  11.428  0.00  0.00    +0.000 A 
ATOM      6  N   UNL     1      47.896   7.181  11.972  0.00  0.00    +0.000 NA
ATOM      7  C   UNL     1      47.196   7.619  13.030  0.00  0.00    +0.000 A 
ATOM      8  N   UNL     1      46.228   6.820  13.629  0.00  0.00    +0.000 N 
ATOM      9  N   UNL     1      47.365   8.848  13.546  0.00  0.00    +0.000 NA
ATOM     10  C   UNL     1      48.314   9.637  12.983  0.00  0.00    +0.000 A 
ATOM     11  H   UNL     1      45.746   7.329  14.358  0.00  0.00    +0.000 HD
BRANCH   4  13
ATOM     12  N   UNL     1      50.887  10.777  10.863  0.00  0.00    +0.000 NA
ATOM     13  C   UNL     1      50.075  10.091  11.338  0.00  0.00    +0.000 C 
ENDBRANCH   4  13
ENDBRANCH   1   8
BRANCH   1  14
ATOM     14  C   UNL     1      45.120   4.840  12.516  0.00  0.00    +0.000 A 
ATOM     15  C   UNL     1      43.795   5.296  12.480  0.00  0.00    +0.000 A 
ATOM     16  C   UNL     1      43.001   5.088  11.354  0.00  0.00    +0.000 A 
ATOM     17  C   UNL     1      43.515   4.405  10.249  0.00  0.00    +0.000 A 
ATOM     18  C   UNL     1      44.812   3.870  10.265  0.00  0.00    +0.000 A 
ATOM     19  C   UNL     1      45.571   4.055  11.435  0.00  0.00    +0.000 A 
BRANCH  18  20
ATOM     20  C   UNL     1      45.423   3.261   9.063  0.00  0.00    +0.000 A 
ATOM     21  C   UNL     1      45.907   4.065   8.017  0.00  0.00    +0.000 A 
ATOM     22  C   UNL     1      46.563   3.514   6.912  0.00  0.00    +0.000 A 
ATOM     23  C   UNL     1      46.755   2.137   6.835  0.00  0.00    +0.000 A 
ATOM     24  C   UNL     1      46.283   1.317   7.855  0.00  0.00    +0.000 A 
ATOM     25  C   UNL     1      45.620   1.873   8.954  0.00  0.00    +0.000 A 
ENDBRANCH  18  20
ENDBRANCH   1  14
TORSDOF 4
ENDMDL
MODEL 5
REMARK VINA RESULT:    -7.050      3.210      6.898
REMARK INTER + INTRA:          -9.035
REMARK INTER:                  -8.619
REMARK INTRA:                  -0.416
REMARK UNBOUND:                -0.336
REMARK  Name = 
REMARK  4 active torsions:
REMARK  status: ('A' for Active; 'I' for Inactive)
REMARK    1  A    between atoms: C_2  and  C_3
REMARK    2  A    between atoms: N_7  and  C_8
REMARK    3  A    between atoms: C_8  and  C_9
REMARK    4  A    between atoms: C_13  and  C_14
REMARK                            x       y       z     vdW  Elec       q    Type
REMARK                         _______ _______ _______ _____ _____    ______ ____
ROOT
ATOM      1  C   UNL     1      45.785   7.819  11.865  0.00  0.00    +0.000 C 
ATOM      2  C   UNL     1      44.930   9.006  11.421  0.00  0.00    +0.000 C 
ATOM      3  C   UNL     1      45.196   8.795  12.874  0.00  0.00    +0.000 C 
ENDROOT
BRANCH   1   8
ATOM      4  C   UNL     1      49.901   7.198  14.897  0.00  0.00    +0.000 A 
ATOM      5  C   UNL     1      48.595   6.816  14.988  0.00  0.00    +0.000 A 
ATOM      6  N   UNL     1      47.700   6.989  13.992  0.00  0.00    +0.000 NA
ATOM      7  C   UNL     1      48.120   7.556  12.851  0.00  0.00    +0.000 A 
ATOM      8  N   UNL     1      47.247   7.753  11.785  0.00  0.00    +0.000 N 
ATOM      9  N   UNL     1      49.396   7.931  12.661  0.00  0.00    +0.000 NA
ATOM     10  C   UNL     1      50.258   7.759  13.693  0.00  0.00    +0.000 A 
ATOM     11  H   UNL     1      47.741   8.117  10.982  0.00  0.00    +0.000 HD
BRANCH   4  13
ATOM     12  N   UNL     1      51.573   6.910  16.844  0.00  0.00    +0.000 NA
ATOM     13  C   UNL     1      50.816   7.036  15.969  0.00  0.00    +0.000 C 
ENDBRANCH   4  13
ENDBRANCH   1   8
BRANCH   1  14
ATOM     14  C   UNL     1      45.066   6.486  11.627  0.00  0.00    +0.000 A 
ATOM     15  C   UNL     1      43.752   6.259  12.059  0.00  0.00    +0.000 A 
ATOM     16  C   UNL     1      43.004   5.203  11.541  0.00  0.00    +0.000 A 
ATOM     17  C   UNL     1      43.565   4.346  10.592  0.00  0.00    +0.000 A 
ATOM     18  C   UNL     1      44.898   4.490  10.180  0.00  0.00    +0.000 A 
ATOM     19  C   UNL     1      45.642   5.536  10.757  0.00  0.00    +0.000 A 
BRANCH  18  20
ATOM     20  C   UNL     1      45.472   3.681   9.082  0.00  0.00    +0.000 A 
ATOM     21  C   UNL     1      46.074   4.298   7.972  0.00  0.00    +0.000 A 
ATOM     22  C   UNL     1      46.695   3.551   6.966  0.00  0.00    +0.000 A 
ATOM     23  C   UNL     1      46.732   2.162   7.055  0.00  0.00    +0.000 A 
ATOM     24  C   UNL     1      46.140   1.524   8.142  0.00  0.00    +0.000 A 
ATOM     25  C   UNL     1      45.512   2.277   9.141  0.00  0.00    +0.000 A 
ENDBRANCH  18  20
ENDBRANCH   1  14
TORSDOF 4
ENDMDL
MODEL 6
REMARK VINA RESULT:    -6.750      3.312      6.932
REMARK INTER + INTRA:          -8.665
REMARK INTER:                  -8.961
REMARK INTRA:                   0.297
REMARK UNBOUND:                -0.336
REMARK  Name = 
REMARK  4 active torsions:
REMARK  status: ('A' for Active; 'I' for Inactive)
REMARK    1  A    between atoms: C_2  and  C_3
REMARK    2  A    between atoms: N_7  and  C_8
REMARK    3  A    between atoms: C_8  and  C_9
REMARK    4  A    between atoms: C_13  and  C_14
REMARK                            x       y       z     vdW  Elec       q    Type
REMARK                         _______ _______ _______ _____ _____    ______ ____
ROOT
ATOM      1  C   UNL     1      48.606   7.980  12.649  0.00  0.00    +0.000 C 
ATOM      2  C   UNL     1      49.434   7.814  11.374  0.00  0.00    +0.000 C 
ATOM      3  C   UNL     1      49.294   9.167  11.986  0.00  0.00    +0.000 C 
ENDROOT
BRANCH   1   8
ATOM      4  C   UNL     1      47.673   4.538  16.364  0.00  0.00    +0.000 A 
ATOM      5  C   UNL     1      47.528   4.526  15.008  0.00  0.00    +0.000 A 
ATOM      6  N   UNL     1      47.962   5.522  14.206  0.00  0.00    +0.000 NA
ATOM      7  C   UNL     1      48.576   6.573  14.772  0.00  0.00    +0.000 A 
ATOM      8  N   UNL     1      49.053   7.626  13.999  0.00  0.00    +0.000 N 
ATOM      9  N   UNL     1      48.793   6.652  16.096  0.00  0.00    +0.000 NA
ATOM     10  C   UNL     1      48.324   5.640  16.867  0.00  0.00    +0.000 A 
ATOM     11  H   UNL     1      49.554   8.292  14.572  0.00  0.00    +0.000 HD
BRANCH   4  13
ATOM     12  N   UNL     1      46.785   2.634  17.866  0.00  0.00    +0.000 NA
ATOM     13  C   UNL     1      47.180   3.495  17.189  0.00  0.00    +0.000 C 
ENDBRANCH   4  13
ENDBRANCH   1   8
BRANCH   1  14
ATOM     14  C   UNL     1      47.112   7.757  12.385  0.00  0.00    +0.000 A 
ATOM     15  C   UNL     1      46.177   8.798  12.466  0.00  0.00    +0.000 A 
ATOM     16  C   UNL     1      44.913   8.665  11.894  0.00  0.00    +0.000 A 
ATOM     17  C   UNL     1      44.558   7.481  11.244  0.00  0.00    +0.000 A 
ATOM     18  C   UNL     1      45.435   6.386  11.199  0.00  0.00    +0.000 A 
ATOM     19  C   UNL     1      46.685   6.535  11.827  0.00  0.00    +0.000 A 
BRANCH  18  20
ATOM     20  C   UNL     1      45.134   5.174  10.405  0.00  0.00    +0.000 A 
ATOM     21  C   UNL     1      45.651   5.018   9.108  0.00  0.00    +0.000 A 
ATOM     22  C   UNL     1      45.448   3.844   8.375  0.00  0.00    +0.000 A 
ATOM     23  C   UNL     1      44.724   2.794   8.932  0.00  0.00    +0.000 A 
ATOM     24  C   UNL     1      44.197   2.924  10.214  0.00  0.00    +0.000 A 
ATOM     25  C   UNL     1      44.396   4.104  10.940  0.00  0.00    +0.000 A 
ENDBRANCH  18  20
ENDBRANCH   1  14
TORSDOF 4
ENDMDL
MODEL 7
REMARK VINA RESULT:    -6.588      3.084      5.813
REMARK INTER + INTRA:          -8.464
REMARK INTER:                  -7.805
REMARK INTRA:                  -0.659
REMARK UNBOUND:                -0.336
REMARK  Name = 
REMARK  4 active torsions:
REMARK  status: ('A' for Active; 'I' for Inactive)
REMARK    1  A    between atoms: C_2  and  C_3
REMARK    2  A    between atoms: N_7  and  C_8
REMARK    3  A    between atoms: C_8  and  C_9
REMARK    4  A    between atoms: C_13  and  C_14
REMARK                            x       y       z     vdW  Elec       q    Type
REMARK                         _______ _______ _______ _____ _____    ______ ____
ROOT
ATOM      1  C   UNL     1      47.986   8.216  12.767  0.00  0.00    +0.000 C 
ATOM      2  C   UNL     1      48.925   9.052  11.897  0.00  0.00    +0.000 C 
ATOM      3  C   UNL     1      48.883   7.572  11.718  0.00  0.00    +0.000 C 
ENDROOT
BRANCH   1   8
ATOM      4  C   UNL     1      44.385   4.610  12.029  0.00  0.00    +0.000 A 
ATOM      5  C   UNL     1      45.611   4.611  12.627  0.00  0.00    +0.000 A 
ATOM      6  N   UNL     1      46.344   5.729  12.813  0.00  0.00    +0.000 NA
ATOM      7  C   UNL     1      45.836   6.900  12.399  0.00  0.00    +0.000 A 
ATOM      8  N   UNL     1      46.540   8.088  12.570  0.00  0.00    +0.000 N 
ATOM      9  N   UNL     1      44.622   6.997  11.830  0.00  0.00    +0.000 NA
ATOM     10  C   UNL     1      43.927   5.847  11.644  0.00  0.00    +0.000 A 
ATOM     11  H   UNL     1      45.984   8.878  12.274  0.00  0.00    +0.000 HD
BRANCH   4  13
ATOM     12  N   UNL     1      43.050   2.435  11.634  0.00  0.00    +0.000 NA
ATOM     13  C   UNL     1      43.647   3.417  11.815  0.00  0.00    +0.000 C 
ENDBRANCH   4  13
ENDBRANCH   1   8
BRANCH   1  14
ATOM     14  C   UNL     1      48.441   8.198  14.232  0.00  0.00    +0.000 A 
ATOM     15  C   UNL     1      48.247   9.292  15.087  0.00  0.00    +0.000 A 
ATOM     16  C   UNL     1      48.339   9.141  16.469  0.00  0.00    +0.000 A 
ATOM     17  C   UNL     1      48.641   7.893  17.019  0.00  0.00    +0.000 A 
ATOM     18  C   UNL     1      48.912   6.785  16.202  0.00  0.00    +0.000 A 
ATOM     19  C   UNL     1      48.859   6.982  14.810  0.00  0.00    +0.000 A 
BRANCH  18  20
ATOM     20  C   UNL     1      49.103   5.428  16.760  0.00  0.00    +0.000 A 
ATOM     21  C   UNL     1      48.098   4.453  16.640  0.00  0.00    +0.000 A 
ATOM     22  C   UNL     1      48.292   3.142  17.086  0.00  0.00    +0.000 A 
ATOM     23  C   UNL     1      49.506   2.776  17.659  0.00  0.00    +0.000 A 
ATOM     24  C   UNL     1      50.518   3.722  17.794  0.00  0.00    +0.000 A 
ATOM     25  C   UNL     1      50.315   5.035  17.354  0.00  0.00    +0.000 A 
ENDBRANCH  18  20
ENDBRANCH   1  14
TORSDOF 4
ENDMDL
MODEL 8
REMARK VINA RESULT:    -6.485      4.311      8.068
REMARK INTER + INTRA:          -8.338
REMARK INTER:                  -7.780
REMARK INTRA:                  -0.558
REMARK UNBOUND:                -0.336
REMARK  Name = 
REMARK  4 active torsions:
REMARK  status: ('A' for Active; 'I' for Inactive)
REMARK    1  A    between atoms: C_2  and  C_3
REMARK    2  A    between atoms: N_7  and  C_8
REMARK    3  A    between atoms: C_8  and  C_9
REMARK    4  A    between atoms: C_13  and  C_14
REMARK                            x       y       z     vdW  Elec       q    Type
REMARK                         _______ _______ _______ _____ _____    ______ ____
ROOT
ATOM      1  C   UNL     1      48.901   7.817  12.667  0.00  0.00    +0.000 C 
ATOM      2  C   UNL     1      49.591   8.287  11.386  0.00  0.00    +0.000 C 
ATOM      3  C   UNL     1      49.480   9.220  12.544  0.00  0.00    +0.000 C 
ENDROOT
BRANCH   1   8
ATOM      4  C   UNL     1      49.557   7.506  17.766  0.00  0.00    +0.000 A 
ATOM      5  C   UNL     1      48.631   8.111  16.968  0.00  0.00    +0.000 A 
ATOM      6  N   UNL     1      48.588   7.953  15.628  0.00  0.00    +0.000 NA
ATOM      7  C   UNL     1      49.497   7.151  15.053  0.00  0.00    +0.000 A 
ATOM      8  N   UNL     1      49.501   6.941  13.678  0.00  0.00    +0.000 N 
ATOM      9  N   UNL     1      50.425   6.488  15.765  0.00  0.00    +0.000 NA
ATOM     10  C   UNL     1      50.445   6.690  17.105  0.00  0.00    +0.000 A 
ATOM     11  H   UNL     1      50.197   6.253  13.423  0.00  0.00    +0.000 HD
BRANCH   4  13
ATOM     12  N   UNL     1      49.648   7.887  20.318  0.00  0.00    +0.000 NA
ATOM     13  C   UNL     1      49.601   7.714  19.168  0.00  0.00    +0.000 C 
ENDBRANCH   4  13
ENDBRANCH   1   8
BRANCH   1  14
ATOM     14  C   UNL     1      47.395   7.623  12.459  0.00  0.00    +0.000 A 
ATOM     15  C   UNL     1      46.478   8.671  12.623  0.00  0.00    +0.000 A 
ATOM     16  C   UNL     1      45.189   8.579  12.102  0.00  0.00    +0.000 A 
ATOM     17  C   UNL     1      44.791   7.428  11.418  0.00  0.00    +0.000 A 
ATOM     18  C   UNL     1      45.649   6.326  11.289  0.00  0.00    +0.000 A 
ATOM     19  C   UNL     1      46.926   6.432  11.868  0.00  0.00    +0.000 A 
BRANCH  18  20
ATOM     20  C   UNL     1      45.298   5.153  10.458  0.00  0.00    +0.000 A 
ATOM     21  C   UNL     1      45.688   5.083   9.110  0.00  0.00    +0.000 A 
ATOM     22  C   UNL     1      45.439   3.948   8.332  0.00  0.00    +0.000 A 
ATOM     23  C   UNL     1      44.796   2.849   8.894  0.00  0.00    +0.000 A 
ATOM     24  C   UNL     1      44.395   2.892  10.226  0.00  0.00    +0.000 A 
ATOM     25  C   UNL     1      44.639   4.034  10.997  0.00  0.00    +0.000 A 
ENDBRANCH  18  20
ENDBRANCH   1  14
TORSDOF 4
ENDMDL
MODEL 9
REMARK VINA RESULT:    -6.028      5.666      8.125
REMARK INTER + INTRA:          -7.774
REMARK INTER:                  -7.783
REMARK INTRA:                   0.009
REMARK UNBOUND:                -0.336
REMARK  Name = 
REMARK  4 active torsions:
REMARK  status: ('A' for Active; 'I' for Inactive)
REMARK    1  A    between atoms: C_2  and  C_3
REMARK    2  A    between atoms: N_7  and  C_8
REMARK    3  A    between atoms: C_8  and  C_9
REMARK    4  A    between atoms: C_13  and  C_14
REMARK                            x       y       z     vdW  Elec       q    Type
REMARK                         _______ _______ _______ _____ _____    ______ ____
ROOT
ATOM      1  C   UNL     1      48.337   4.729  16.798  0.00  0.00    +0.000 C 
ATOM      2  C   UNL     1      47.151   4.614  17.757  0.00  0.00    +0.000 C 
ATOM      3  C   UNL     1      47.611   3.407  17.011  0.00  0.00    +0.000 C 
ENDROOT
BRANCH   1   8
ATOM      4  C   UNL     1      52.277   1.591  17.868  0.00  0.00    +0.000 A 
ATOM      5  C   UNL     1      51.157   1.472  17.099  0.00  0.00    +0.000 A 
ATOM      6  N   UNL     1      50.305   2.492  16.865  0.00  0.00    +0.000 NA
ATOM      7  C   UNL     1      50.581   3.688  17.409  0.00  0.00    +0.000 A 
ATOM      8  N   UNL     1      49.746   4.781  17.198  0.00  0.00    +0.000 N 
ATOM      9  N   UNL     1      51.679   3.905  18.152  0.00  0.00    +0.000 NA
ATOM     10  C   UNL     1      52.498   2.848  18.379  0.00  0.00    +0.000 A 
ATOM     11  H   UNL     1      50.139   5.616  17.612  0.00  0.00    +0.000 HD
BRANCH   4  13
ATOM     12  N   UNL     1      53.855  -0.398  18.342  0.00  0.00    +0.000 NA
ATOM     13  C   UNL     1      53.140   0.495  18.127  0.00  0.00    +0.000 C 
ENDBRANCH   4  13
ENDBRANCH   1   8
BRANCH   1  14
ATOM     14  C   UNL     1      47.986   5.570  15.565  0.00  0.00    +0.000 A 
ATOM     15  C   UNL     1      48.765   6.662  15.160  0.00  0.00    +0.000 A 
ATOM     16  C   UNL     1      48.644   7.187  13.874  0.00  0.00    +0.000 A 
ATOM     17  C   UNL     1      47.728   6.634  12.976  0.00  0.00    +0.000 A 
ATOM     18  C   UNL     1      46.878   5.586  13.358  0.00  0.00    +0.000 A 
ATOM     19  C   UNL     1      46.991   5.111  14.677  0.00  0.00    +0.000 A 
BRANCH  18  20
ATOM     20  C   UNL     1      45.996   4.899  12.387  0.00  0.00    +0.000 A 
ATOM     21  C   UNL     1      45.404   3.664  12.703  0.00  0.00    +0.000 A 
ATOM     22  C   UNL     1      44.503   3.041  11.834  0.00  0.00    +0.000 A 
ATOM     23  C   UNL     1      44.169   3.648  10.627  0.00  0.00    +0.000 A 
ATOM     24  C   UNL     1      44.744   4.869  10.287  0.00  0.00    +0.000 A 
ATOM     25  C   UNL     1      45.652   5.484  11.156  0.00  0.00    +0.000 A 
ENDBRANCH  18  20
ENDBRANCH   1  14
TORSDOF 4
ENDMDL
