MODEL 1
REMARK VINA RESULT:    -8.071      0.000      0.000
REMARK INTER + INTRA:         -12.152
REMARK INTER:                 -10.901
REMARK INTRA:                  -1.250
REMARK UNBOUND:                -1.250
REMARK  Name = 
REMARK  7 active torsions:
REMARK  status: ('A' for Active; 'I' for Inactive)
REMARK    1  A    between atoms: C_1  and  C_2
REMARK    2  A    between atoms: C_4  and  C_5
REMARK    3  A    between atoms: C_5  and  N_6
REMARK    4  A    between atoms: C_7  and  C_9
REMARK    5  A    between atoms: C_21  and  C_22
REMARK    6  A    between atoms: C_22  and  N_23
REMARK    7  A    between atoms: C_24  and  C_26
REMARK                            x       y       z     vdW  Elec       q    Type
REMARK                         _______ _______ _______ _____ _____    ______ ____
ROOT
ATOM      1  C   UNL     1      43.094   5.245  12.839  0.00  0.00    +0.000 C 
ATOM      2  C   UNL     1      44.357   5.839  12.277  0.00  0.00    +0.000 A 
ATOM      3  C   UNL     1      45.114   6.699  13.102  0.00  0.00    +0.000 A 
ATOM      4  C   UNL     1      46.300   7.295  12.652  0.00  0.00    +0.000 A 
ATOM      5  C   UNL     1      46.753   6.989  11.367  0.00  0.00    +0.000 A 
ATOM      6  C   UNL     1      46.013   6.142  10.536  0.00  0.00    +0.000 A 
ATOM      7  C   UNL     1      44.799   5.573  10.964  0.00  0.00    +0.000 A 
ENDROOT
BRANCH   4   8
ATOM      8  C   UNL     1      47.093   8.206  13.555  0.00  0.00    +0.000 C 
BRANCH   8   9
ATOM      9  N   UNL     1      47.542   7.501  14.729  0.00  0.00    +0.000 N 
ATOM     10  C   UNL     1      48.776   6.907  14.790  0.00  0.00    +0.000 C 
ATOM     11  O   UNL     1      49.580   6.982  13.866  0.00  0.00    +0.000 OA
ATOM     12  H   UNL     1      46.830   7.243  15.405  0.00  0.00    +0.000 HD
BRANCH  10  13
ATOM     13  C   UNL     1      49.114   6.228  16.049  0.00  0.00    +0.000 A 
ATOM     14  C   UNL     1      50.170   6.694  16.821  0.00  0.00    +0.000 A 
ATOM     15  S   UNL     1      50.392   5.827  18.273  0.00  0.00    +0.000 S 
ATOM     16  C   UNL     1      49.116   4.766  17.899  0.00  0.00    +0.000 A 
ATOM     17  N   UNL     1      48.786   3.745  18.736  0.00  0.00    +0.000 NA
ATOM     18  C   UNL     1      47.823   2.998  18.314  0.00  0.00    +0.000 A 
ATOM     19  N   UNL     1      47.152   3.183  17.132  0.00  0.00    +0.000 N 
ATOM     20  C   UNL     1      47.426   4.218  16.271  0.00  0.00    +0.000 A 
ATOM     21  O   UNL     1      46.774   4.381  15.250  0.00  0.00    +0.000 OA
ATOM     22  C   UNL     1      48.516   5.079  16.691  0.00  0.00    +0.000 A 
ATOM     23  H   UNL     1      46.400   2.567  16.863  0.00  0.00    +0.000 HD
ENDBRANCH  10  13
ENDBRANCH   8   9
ENDBRANCH   4   8
BRANCH   7  24
ATOM     24  C   UNL     1      44.049   4.685   9.993  0.00  0.00    +0.000 C 
BRANCH  24  25
ATOM     25  N   UNL     1      44.934   4.118   9.003  0.00  0.00    +0.000 N 
ATOM     26  C   UNL     1      45.110   2.754   8.892  0.00  0.00    +0.000 C 
ATOM     27  O   UNL     1      44.547   1.940   9.612  0.00  0.00    +0.000 OA
ATOM     28  H   UNL     1      45.187   4.694   8.213  0.00  0.00    +0.000 HD
BRANCH  26  29
ATOM     29  C   UNL     1      46.010   2.366   7.805  0.00  0.00    +0.000 A 
ATOM     30  C   UNL     1      46.723   1.121   7.685  0.00  0.00    +0.000 A 
ATOM     31  C   UNL     1      47.496   1.052   6.547  0.00  0.00    +0.000 A 
ATOM     32  S   UNL     1      47.371   2.471   5.607  0.00  0.00    +0.000 S 
ATOM     33  C   UNL     1      46.262   3.171   6.707  0.00  0.00    +0.000 A 
ENDBRANCH  26  29
ENDBRANCH  24  25
ENDBRANCH   7  24
TORSDOF 6
ENDMDL
MODEL 2
REMARK VINA RESULT:    -7.541      1.883      2.178
REMARK INTER + INTRA:         -11.437
REMARK INTER:                 -10.479
REMARK INTRA:                  -0.958
REMARK UNBOUND:                -1.250
REMARK  Name = 
REMARK  7 active torsions:
REMARK  status: ('A' for Active; 'I' for Inactive)
REMARK    1  A    between atoms: C_1  and  C_2
REMARK    2  A    between atoms: C_4  and  C_5
REMARK    3  A    between atoms: C_5  and  N_6
REMARK    4  A    between atoms: C_7  and  C_9
REMARK    5  A    between atoms: C_21  and  C_22
REMARK    6  A    between atoms: C_22  and  N_23
REMARK    7  A    between atoms: C_24  and  C_26
REMARK                            x       y       z     vdW  Elec       q    Type
REMARK                         _______ _______ _______ _____ _____    ______ ____
ROOT
ATOM      1  C   UNL     1      46.474   3.826  13.393  0.00  0.00    +0.000 C 
ATOM      2  C   UNL     1      45.931   5.101  12.807  0.00  0.00    +0.000 A 
ATOM      3  C   UNL     1      46.492   6.323  13.236  0.00  0.00    +0.000 A 
ATOM      4  C   UNL     1      46.039   7.554  12.742  0.00  0.00    +0.000 A 
ATOM      5  C   UNL     1      45.036   7.553  11.769  0.00  0.00    +0.000 A 
ATOM      6  C   UNL     1      44.469   6.351  11.336  0.00  0.00    +0.000 A 
ATOM      7  C   UNL     1      44.887   5.113  11.859  0.00  0.00    +0.000 A 
ENDROOT
BRANCH   4   8
ATOM      8  C   UNL     1      46.658   8.847  13.213  0.00  0.00    +0.000 C 
BRANCH   8   9
ATOM      9  N   UNL     1      47.046   8.754  14.598  0.00  0.00    +0.000 N 
ATOM     10  C   UNL     1      48.359   8.636  14.976  0.00  0.00    +0.000 C 
ATOM     11  O   UNL     1      49.275   8.645  14.159  0.00  0.00    +0.000 OA
ATOM     12  H   UNL     1      46.313   8.528  15.262  0.00  0.00    +0.000 HD
BRANCH  10  13
ATOM     13  C   UNL     1      48.619   8.561  16.421  0.00  0.00    +0.000 A 
ATOM     14  C   UNL     1      48.672   9.727  17.172  0.00  0.00    +0.000 A 
ATOM     15  S   UNL     1      48.929   9.459  18.837  0.00  0.00    +0.000 S 
ATOM     16  C   UNL     1      49.029   7.776  18.606  0.00  0.00    +0.000 A 
ATOM     17  N   UNL     1      49.266   6.939  19.652  0.00  0.00    +0.000 NA
ATOM     18  C   UNL     1      49.351   5.692  19.330  0.00  0.00    +0.000 A 
ATOM     19  N   UNL     1      49.212   5.204  18.056  0.00  0.00    +0.000 N 
ATOM     20  C   UNL     1      48.938   6.005  16.974  0.00  0.00    +0.000 A 
ATOM     21  O   UNL     1      48.771   5.529  15.861  0.00  0.00    +0.000 OA
ATOM     22  C   UNL     1      48.851   7.421  17.279  0.00  0.00    +0.000 A 
ATOM     23  H   UNL     1      49.281   4.214  17.872  0.00  0.00    +0.000 HD
ENDBRANCH  10  13
ENDBRANCH   8   9
ENDBRANCH   4   8
BRANCH   7  24
ATOM     24  C   UNL     1      44.203   3.860  11.351  0.00  0.00    +0.000 C 
BRANCH  24  25
ATOM     25  N   UNL     1      45.015   3.172  10.377  0.00  0.00    +0.000 N 
ATOM     26  C   UNL     1      44.893   3.431   9.027  0.00  0.00    +0.000 C 
ATOM     27  O   UNL     1      44.102   4.241   8.563  0.00  0.00    +0.000 OA
ATOM     28  H   UNL     1      45.863   2.729  10.700  0.00  0.00    +0.000 HD
BRANCH  26  29
ATOM     29  C   UNL     1      45.829   2.669   8.197  0.00  0.00    +0.000 A 
ATOM     30  C   UNL     1      46.073   1.252   8.260  0.00  0.00    +0.000 A 
ATOM     31  C   UNL     1      47.015   0.828   7.350  0.00  0.00    +0.000 A 
ATOM     32  S   UNL     1      47.611   2.119   6.403  0.00  0.00    +0.000 S 
ATOM     33  C   UNL     1      46.590   3.243   7.194  0.00  0.00    +0.000 A 
ENDBRANCH  26  29
ENDBRANCH  24  25
ENDBRANCH   7  24
TORSDOF 6
ENDMDL
MODEL 3
REMARK VINA RESULT:    -7.112      2.049      2.365
REMARK INTER + INTRA:         -10.857
REMARK INTER:                  -9.889
REMARK INTRA:                  -0.968
REMARK UNBOUND:                -1.250
REMARK  Name = 
REMARK  7 active torsions:
REMARK  status: ('A' for Active; 'I' for Inactive)
REMARK    1  A    between atoms: C_1  and  C_2
REMARK    2  A    between atoms: C_4  and  C_5
REMARK    3  A    between atoms: C_5  and  N_6
REMARK    4  A    between atoms: C_7  and  C_9
REMARK    5  A    between atoms: C_21  and  C_22
REMARK    6  A    between atoms: C_22  and  N_23
REMARK    7  A    between atoms: C_24  and  C_26
REMARK                            x       y       z     vdW  Elec       q    Type
REMARK                         _______ _______ _______ _____ _____    ______ ____
ROOT
ATOM      1  C   UNL     1      44.101   6.497  11.342  0.00  0.00    +0.000 C 
ATOM      2  C   UNL     1      45.210   5.996  12.226  0.00  0.00    +0.000 A 
ATOM      3  C   UNL     1      46.046   6.947  12.851  0.00  0.00    +0.000 A 
ATOM      4  C   UNL     1      47.103   6.562  13.685  0.00  0.00    +0.000 A 
ATOM      5  C   UNL     1      47.298   5.200  13.929  0.00  0.00    +0.000 A 
ATOM      6  C   UNL     1      46.481   4.246  13.315  0.00  0.00    +0.000 A 
ATOM      7  C   UNL     1      45.444   4.622  12.441  0.00  0.00    +0.000 A 
ENDROOT
BRANCH   4   8
ATOM      8  C   UNL     1      47.979   7.598  14.346  0.00  0.00    +0.000 C 
BRANCH   8   9
ATOM      9  N   UNL     1      49.182   6.998  14.864  0.00  0.00    +0.000 N 
ATOM     10  C   UNL     1      49.453   6.963  16.207  0.00  0.00    +0.000 C 
ATOM     11  O   UNL     1      48.667   7.402  17.042  0.00  0.00    +0.000 OA
ATOM     12  H   UNL     1      49.931   6.831  14.199  0.00  0.00    +0.000 HD
BRANCH  10  13
ATOM     13  C   UNL     1      50.711   6.313  16.604  0.00  0.00    +0.000 A 
ATOM     14  C   UNL     1      51.912   6.995  16.465  0.00  0.00    +0.000 A 
ATOM     15  S   UNL     1      53.267   6.119  17.020  0.00  0.00    +0.000 S 
ATOM     16  C   UNL     1      52.301   4.775  17.420  0.00  0.00    +0.000 A 
ATOM     17  N   UNL     1      52.855   3.644  17.934  0.00  0.00    +0.000 NA
ATOM     18  C   UNL     1      52.014   2.693  18.160  0.00  0.00    +0.000 A 
ATOM     19  N   UNL     1      50.665   2.771  17.925  0.00  0.00    +0.000 N 
ATOM     20  C   UNL     1      50.055   3.903  17.439  0.00  0.00    +0.000 A 
ATOM     21  O   UNL     1      48.843   3.953  17.290  0.00  0.00    +0.000 OA
ATOM     22  C   UNL     1      50.961   4.999  17.151  0.00  0.00    +0.000 A 
ATOM     23  H   UNL     1      50.058   1.992  18.132  0.00  0.00    +0.000 HD
ENDBRANCH  10  13
ENDBRANCH   8   9
ENDBRANCH   4   8
BRANCH   7  24
ATOM     24  C   UNL     1      44.621   3.523  11.801  0.00  0.00    +0.000 C 
BRANCH  24  25
ATOM     25  N   UNL     1      45.294   2.955  10.657  0.00  0.00    +0.000 N 
ATOM     26  C   UNL     1      44.969   3.333   9.371  0.00  0.00    +0.000 C 
ATOM     27  O   UNL     1      44.102   4.156   9.108  0.00  0.00    +0.000 OA
ATOM     28  H   UNL     1      46.189   2.513  10.810  0.00  0.00    +0.000 HD
BRANCH  26  29
ATOM     29  C   UNL     1      45.786   2.683   8.345  0.00  0.00    +0.000 A 
ATOM     30  C   UNL     1      46.101   1.281   8.260  0.00  0.00    +0.000 A 
ATOM     31  C   UNL     1      46.896   0.974   7.178  0.00  0.00    +0.000 A 
ATOM     32  S   UNL     1      47.267   2.357   6.248  0.00  0.00    +0.000 S 
ATOM     33  C   UNL     1      46.343   3.366   7.277  0.00  0.00    +0.000 A 
ENDBRANCH  26  29
ENDBRANCH  24  25
ENDBRANCH   7  24
TORSDOF 6
ENDMDL
MODEL 4
REMARK VINA RESULT:    -7.076      3.574      8.414
REMARK INTER + INTRA:         -10.808
REMARK INTER:                  -9.560
REMARK INTRA:                  -1.249
REMARK UNBOUND:                -1.250
REMARK  Name = 
REMARK  7 active torsions:
REMARK  status: ('A' for Active; 'I' for Inactive)
REMARK    1  A    between atoms: C_1  and  C_2
REMARK    2  A    between atoms: C_4  and  C_5
REMARK    3  A    between atoms: C_5  and  N_6
REMARK    4  A    between atoms: C_7  and  C_9
REMARK    5  A    between atoms: C_21  and  C_22
REMARK    6  A    between atoms: C_22  and  N_23
REMARK    7  A    between atoms: C_24  and  C_26
REMARK                            x       y       z     vdW  Elec       q    Type
REMARK                         _______ _______ _______ _____ _____    ______ ____
ROOT
ATOM      1  C   UNL     1      47.489   3.182  17.376  0.00  0.00    +0.000 C 
ATOM      2  C   UNL     1      48.398   4.323  17.009  0.00  0.00    +0.000 A 
ATOM      3  C   UNL     1      47.985   5.201  15.984  0.00  0.00    +0.000 A 
ATOM      4  C   UNL     1      48.776   6.285  15.581  0.00  0.00    +0.000 A 
ATOM      5  C   UNL     1      49.982   6.514  16.247  0.00  0.00    +0.000 A 
ATOM      6  C   UNL     1      50.407   5.652  17.262  0.00  0.00    +0.000 A 
ATOM      7  C   UNL     1      49.640   4.536  17.644  0.00  0.00    +0.000 A 
ENDROOT
BRANCH   4   8
ATOM      8  C   UNL     1      48.309   7.213  14.486  0.00  0.00    +0.000 C 
BRANCH   8   9
ATOM      9  N   UNL     1      47.067   6.753  13.919  0.00  0.00    +0.000 N 
ATOM     10  C   UNL     1      46.846   6.746  12.566  0.00  0.00    +0.000 C 
ATOM     11  O   UNL     1      47.709   7.090  11.764  0.00  0.00    +0.000 OA
ATOM     12  H   UNL     1      46.278   6.674  14.554  0.00  0.00    +0.000 HD
BRANCH  10  13
ATOM     13  C   UNL     1      45.539   6.242  12.119  0.00  0.00    +0.000 A 
ATOM     14  C   UNL     1      44.615   7.120  11.569  0.00  0.00    +0.000 A 
ATOM     15  S   UNL     1      43.174   6.365  11.055  0.00  0.00    +0.000 S 
ATOM     16  C   UNL     1      43.714   4.844  11.596  0.00  0.00    +0.000 A 
ATOM     17  N   UNL     1      42.929   3.739  11.476  0.00  0.00    +0.000 NA
ATOM     18  C   UNL     1      43.448   2.661  11.956  0.00  0.00    +0.000 A 
ATOM     19  N   UNL     1      44.686   2.583  12.542  0.00  0.00    +0.000 N 
ATOM     20  C   UNL     1      45.528   3.663  12.655  0.00  0.00    +0.000 A 
ATOM     21  O   UNL     1      46.645   3.546  13.137  0.00  0.00    +0.000 OA
ATOM     22  C   UNL     1      44.984   4.908  12.145  0.00  0.00    +0.000 A 
ATOM     23  H   UNL     1      45.039   1.705  12.891  0.00  0.00    +0.000 HD
ENDBRANCH  10  13
ENDBRANCH   8   9
ENDBRANCH   4   8
BRANCH   7  24
ATOM     24  C   UNL     1      50.185   3.640  18.737  0.00  0.00    +0.000 C 
BRANCH  24  25
ATOM     25  N   UNL     1      51.528   3.202  18.442  0.00  0.00    +0.000 N 
ATOM     26  C   UNL     1      51.768   2.036  17.745  0.00  0.00    +0.000 C 
ATOM     27  O   UNL     1      50.881   1.299  17.337  0.00  0.00    +0.000 OA
ATOM     28  H   UNL     1      52.267   3.889  18.485  0.00  0.00    +0.000 HD
BRANCH  26  29
ATOM     29  C   UNL     1      53.190   1.779  17.505  0.00  0.00    +0.000 A 
ATOM     30  C   UNL     1      54.268   2.723  17.643  0.00  0.00    +0.000 A 
ATOM     31  C   UNL     1      55.498   2.181  17.342  0.00  0.00    +0.000 A 
ATOM     32  S   UNL     1      55.377   0.536  16.899  0.00  0.00    +0.000 S 
ATOM     33  C   UNL     1      53.682   0.539  17.135  0.00  0.00    +0.000 A 
ENDBRANCH  26  29
ENDBRANCH  24  25
ENDBRANCH   7  24
TORSDOF 6
ENDMDL
MODEL 5
REMARK VINA RESULT:    -7.030      1.981      2.348
REMARK INTER + INTRA:         -10.746
REMARK INTER:                  -9.856
REMARK INTRA:                  -0.890
REMARK UNBOUND:                -1.250
REMARK  Name = 
REMARK  7 active torsions:
REMARK  status: ('A' for Active; 'I' for Inactive)
REMARK    1  A    between atoms: C_1  and  C_2
REMARK    2  A    between atoms: C_4  and  C_5
REMARK    3  A    between atoms: C_5  and  N_6
REMARK    4  A    between atoms: C_7  and  C_9
REMARK    5  A    between atoms: C_21  and  C_22
REMARK    6  A    between atoms: C_22  and  N_23
REMARK    7  A    between atoms: C_24  and  C_26
REMARK                            x       y       z     vdW  Elec       q    Type
REMARK                         _______ _______ _______ _____ _____    ______ ____
ROOT
ATOM      1  C   UNL     1      44.221   8.588  11.140  0.00  0.00    +0.000 C 
ATOM      2  C   UNL     1      45.261   7.752  11.835  0.00  0.00    +0.000 A 
ATOM      3  C   UNL     1      46.189   8.405  12.674  0.00  0.00    +0.000 A 
ATOM      4  C   UNL     1      47.191   7.699  13.353  0.00  0.00    +0.000 A 
ATOM      5  C   UNL     1      47.235   6.309  13.218  0.00  0.00    +0.000 A 
ATOM      6  C   UNL     1      46.324   5.648  12.388  0.00  0.00    +0.000 A 
ATOM      7  C   UNL     1      45.342   6.354  11.668  0.00  0.00    +0.000 A 
ENDROOT
BRANCH   4   8
ATOM      8  C   UNL     1      48.168   8.420  14.249  0.00  0.00    +0.000 C 
BRANCH   8   9
ATOM      9  N   UNL     1      48.101   7.910  15.595  0.00  0.00    +0.000 N 
ATOM     10  C   UNL     1      48.565   8.631  16.666  0.00  0.00    +0.000 C 
ATOM     11  O   UNL     1      49.022   9.763  16.540  0.00  0.00    +0.000 OA
ATOM     12  H   UNL     1      47.936   6.914  15.698  0.00  0.00    +0.000 HD
BRANCH  10  13
ATOM     13  C   UNL     1      48.428   8.000  17.987  0.00  0.00    +0.000 A 
ATOM     14  C   UNL     1      48.065   8.770  19.083  0.00  0.00    +0.000 A 
ATOM     15  S   UNL     1      47.900   7.875  20.526  0.00  0.00    +0.000 S 
ATOM     16  C   UNL     1      48.357   6.432  19.747  0.00  0.00    +0.000 A 
ATOM     17  N   UNL     1      48.444   5.262  20.435  0.00  0.00    +0.000 NA
ATOM     18  C   UNL     1      48.834   4.255  19.731  0.00  0.00    +0.000 A 
ATOM     19  N   UNL     1      49.139   4.308  18.395  0.00  0.00    +0.000 N 
ATOM     20  C   UNL     1      49.033   5.458  17.649  0.00  0.00    +0.000 A 
ATOM     21  O   UNL     1      49.265   5.457  16.449  0.00  0.00    +0.000 OA
ATOM     22  C   UNL     1      48.615   6.627  18.400  0.00  0.00    +0.000 A 
ATOM     23  H   UNL     1      49.430   3.480  17.897  0.00  0.00    +0.000 HD
ENDBRANCH  10  13
ENDBRANCH   8   9
ENDBRANCH   4   8
BRANCH   7  24
ATOM     24  C   UNL     1      44.411   5.562  10.774  0.00  0.00    +0.000 C 
BRANCH  24  25
ATOM     25  N   UNL     1      45.141   4.818   9.776  0.00  0.00    +0.000 N 
ATOM     26  C   UNL     1      44.780   3.532   9.430  0.00  0.00    +0.000 C 
ATOM     27  O   UNL     1      43.838   2.937   9.936  0.00  0.00    +0.000 OA
ATOM     28  H   UNL     1      45.719   5.337   9.131  0.00  0.00    +0.000 HD
BRANCH  26  29
ATOM     29  C   UNL     1      45.609   2.955   8.371  0.00  0.00    +0.000 A 
ATOM     30  C   UNL     1      46.096   3.632   7.197  0.00  0.00    +0.000 A 
ATOM     31  C   UNL     1      46.852   2.818   6.382  0.00  0.00    +0.000 A 
ATOM     32  S   UNL     1      46.994   1.239   7.016  0.00  0.00    +0.000 S 
ATOM     33  C   UNL     1      46.066   1.648   8.396  0.00  0.00    +0.000 A 
ENDBRANCH  26  29
ENDBRANCH  24  25
ENDBRANCH   7  24
TORSDOF 6
ENDMDL
MODEL 6
REMARK VINA RESULT:    -6.947      1.635      2.324
REMARK INTER + INTRA:         -10.634
REMARK INTER:                  -9.877
REMARK INTRA:                  -0.757
REMARK UNBOUND:                -1.250
REMARK  Name = 
REMARK  7 active torsions:
REMARK  status: ('A' for Active; 'I' for Inactive)
REMARK    1  A    between atoms: C_1  and  C_2
REMARK    2  A    between atoms: C_4  and  C_5
REMARK    3  A    between atoms: C_5  and  N_6
REMARK    4  A    between atoms: C_7  and  C_9
REMARK    5  A    between atoms: C_21  and  C_22
REMARK    6  A    between atoms: C_22  and  N_23
REMARK    7  A    between atoms: C_24  and  C_26
REMARK                            x       y       z     vdW  Elec       q    Type
REMARK                         _______ _______ _______ _____ _____    ______ ____
ROOT
ATOM      1  C   UNL     1      43.175   4.901  12.878  0.00  0.00    +0.000 C 
ATOM      2  C   UNL     1      44.434   5.545  12.362  0.00  0.00    +0.000 A 
ATOM      3  C   UNL     1      45.278   6.196  13.286  0.00  0.00    +0.000 A 
ATOM      4  C   UNL     1      46.464   6.823  12.884  0.00  0.00    +0.000 A 
ATOM      5  C   UNL     1      46.829   6.758  11.537  0.00  0.00    +0.000 A 
ATOM      6  C   UNL     1      46.002   6.119  10.608  0.00  0.00    +0.000 A 
ATOM      7  C   UNL     1      44.787   5.525  10.996  0.00  0.00    +0.000 A 
ENDROOT
BRANCH   4   8
ATOM      8  C   UNL     1      47.352   7.508  13.893  0.00  0.00    +0.000 C 
BRANCH   8   9
ATOM      9  N   UNL     1      47.917   6.552  14.812  0.00  0.00    +0.000 N 
ATOM     10  C   UNL     1      48.678   6.941  15.884  0.00  0.00    +0.000 C 
ATOM     11  O   UNL     1      48.883   8.123  16.144  0.00  0.00    +0.000 OA
ATOM     12  H   UNL     1      47.947   5.586  14.502  0.00  0.00    +0.000 HD
BRANCH  10  13
ATOM     13  C   UNL     1      49.186   5.866  16.749  0.00  0.00    +0.000 A 
ATOM     14  C   UNL     1      48.293   5.039  17.416  0.00  0.00    +0.000 A 
ATOM     15  S   UNL     1      49.046   3.813  18.333  0.00  0.00    +0.000 S 
ATOM     16  C   UNL     1      50.596   4.375  17.911  0.00  0.00    +0.000 A 
ATOM     17  N   UNL     1      51.715   3.769  18.392  0.00  0.00    +0.000 NA
ATOM     18  C   UNL     1      52.821   4.317  18.020  0.00  0.00    +0.000 A 
ATOM     19  N   UNL     1      52.913   5.415  17.203  0.00  0.00    +0.000 N 
ATOM     20  C   UNL     1      51.813   6.040  16.664  0.00  0.00    +0.000 A 
ATOM     21  O   UNL     1      51.934   6.985  15.899  0.00  0.00    +0.000 OA
ATOM     22  C   UNL     1      50.540   5.472  17.067  0.00  0.00    +0.000 A 
ATOM     23  H   UNL     1      53.811   5.791  16.940  0.00  0.00    +0.000 HD
ENDBRANCH  10  13
ENDBRANCH   8   9
ENDBRANCH   4   8
BRANCH   7  24
ATOM     24  C   UNL     1      43.940   4.873   9.922  0.00  0.00    +0.000 C 
BRANCH  24  25
ATOM     25  N   UNL     1      44.758   4.281   8.890  0.00  0.00    +0.000 N 
ATOM     26  C   UNL     1      45.288   3.015   9.031  0.00  0.00    +0.000 C 
ATOM     27  O   UNL     1      45.114   2.317  10.021  0.00  0.00    +0.000 OA
ATOM     28  H   UNL     1      44.693   4.667   7.959  0.00  0.00    +0.000 HD
BRANCH  26  29
ATOM     29  C   UNL     1      46.053   2.567   7.866  0.00  0.00    +0.000 A 
ATOM     30  C   UNL     1      46.645   1.268   7.676  0.00  0.00    +0.000 A 
ATOM     31  C   UNL     1      47.306   1.150   6.474  0.00  0.00    +0.000 A 
ATOM     32  S   UNL     1      47.218   2.587   5.555  0.00  0.00    +0.000 S 
ATOM     33  C   UNL     1      46.273   3.362   6.754  0.00  0.00    +0.000 A 
ENDBRANCH  26  29
ENDBRANCH  24  25
ENDBRANCH   7  24
TORSDOF 6
ENDMDL
MODEL 7
REMARK VINA RESULT:    -6.514      4.506      7.569
REMARK INTER + INTRA:         -10.049
REMARK INTER:                  -9.080
REMARK INTRA:                  -0.970
REMARK UNBOUND:                -1.250
REMARK  Name = 
REMARK  7 active torsions:
REMARK  status: ('A' for Active; 'I' for Inactive)
REMARK    1  A    between atoms: C_1  and  C_2
REMARK    2  A    between atoms: C_4  and  C_5
REMARK    3  A    between atoms: C_5  and  N_6
REMARK    4  A    between atoms: C_7  and  C_9
REMARK    5  A    between atoms: C_21  and  C_22
REMARK    6  A    between atoms: C_22  and  N_23
REMARK    7  A    between atoms: C_24  and  C_26
REMARK                            x       y       z     vdW  Elec       q    Type
REMARK                         _______ _______ _______ _____ _____    ______ ____
ROOT
ATOM      1  C   UNL     1      49.416  11.277  10.865  0.00  0.00    +0.000 C 
ATOM      2  C   UNL     1      49.167   9.915  11.454  0.00  0.00    +0.000 A 
ATOM      3  C   UNL     1      47.866   9.614  11.911  0.00  0.00    +0.000 A 
ATOM      4  C   UNL     1      47.554   8.369  12.475  0.00  0.00    +0.000 A 
ATOM      5  C   UNL     1      48.556   7.398  12.542  0.00  0.00    +0.000 A 
ATOM      6  C   UNL     1      49.851   7.683  12.096  0.00  0.00    +0.000 A 
ATOM      7  C   UNL     1      50.184   8.944  11.569  0.00  0.00    +0.000 A 
ENDROOT
BRANCH   4   8
ATOM      8  C   UNL     1      46.154   8.070  12.951  0.00  0.00    +0.000 C 
BRANCH   8   9
ATOM      9  N   UNL     1      45.761   6.734  12.580  0.00  0.00    +0.000 N 
ATOM     10  C   UNL     1      44.729   6.499  11.708  0.00  0.00    +0.000 C 
ATOM     11  O   UNL     1      44.116   7.412  11.164  0.00  0.00    +0.000 OA
ATOM     12  H   UNL     1      46.098   5.980  13.170  0.00  0.00    +0.000 HD
BRANCH  10  13
ATOM     13  C   UNL     1      44.437   5.090  11.406  0.00  0.00    +0.000 A 
ATOM     14  C   UNL     1      43.704   4.331  12.308  0.00  0.00    +0.000 A 
ATOM     15  S   UNL     1      43.410   2.735  11.781  0.00  0.00    +0.000 S 
ATOM     16  C   UNL     1      44.294   2.987  10.349  0.00  0.00    +0.000 A 
ATOM     17  N   UNL     1      44.456   1.987   9.442  0.00  0.00    +0.000 NA
ATOM     18  C   UNL     1      45.176   2.304   8.420  0.00  0.00    +0.000 A 
ATOM     19  N   UNL     1      45.745   3.536   8.217  0.00  0.00    +0.000 N 
ATOM     20  C   UNL     1      45.581   4.587   9.087  0.00  0.00    +0.000 A 
ATOM     21  O   UNL     1      46.061   5.685   8.850  0.00  0.00    +0.000 OA
ATOM     22  C   UNL     1      44.793   4.276  10.266  0.00  0.00    +0.000 A 
ATOM     23  H   UNL     1      46.291   3.724   7.390  0.00  0.00    +0.000 HD
ENDBRANCH  10  13
ENDBRANCH   8   9
ENDBRANCH   4   8
BRANCH   7  24
ATOM     24  C   UNL     1      51.615   9.175  11.130  0.00  0.00    +0.000 C 
BRANCH  24  25
ATOM     25  N   UNL     1      52.043   8.181  10.175  0.00  0.00    +0.000 N 
ATOM     26  C   UNL     1      53.297   7.610  10.245  0.00  0.00    +0.000 C 
ATOM     27  O   UNL     1      54.125   7.900  11.098  0.00  0.00    +0.000 OA
ATOM     28  H   UNL     1      51.331   7.697   9.649  0.00  0.00    +0.000 HD
BRANCH  26  29
ATOM     29  C   UNL     1      53.536   6.592   9.219  0.00  0.00    +0.000 A 
ATOM     30  C   UNL     1      54.496   5.522   9.280  0.00  0.00    +0.000 A 
ATOM     31  C   UNL     1      54.486   4.727   8.156  0.00  0.00    +0.000 A 
ATOM     32  S   UNL     1      53.322   5.246   7.019  0.00  0.00    +0.000 S 
ATOM     33  C   UNL     1      52.812   6.522   8.041  0.00  0.00    +0.000 A 
ENDBRANCH  26  29
ENDBRANCH  24  25
ENDBRANCH   7  24
TORSDOF 6
ENDMDL
MODEL 8
REMARK VINA RESULT:    -6.435      2.934      8.475
REMARK INTER + INTRA:          -9.942
REMARK INTER:                  -8.843
REMARK INTRA:                  -1.099
REMARK UNBOUND:                -1.250
REMARK  Name = 
REMARK  7 active torsions:
REMARK  status: ('A' for Active; 'I' for Inactive)
REMARK    1  A    between atoms: C_1  and  C_2
REMARK    2  A    between atoms: C_4  and  C_5
REMARK    3  A    between atoms: C_5  and  N_6
REMARK    4  A    between atoms: C_7  and  C_9
REMARK    5  A    between atoms: C_21  and  C_22
REMARK    6  A    between atoms: C_22  and  N_23
REMARK    7  A    between atoms: C_24  and  C_26
REMARK                            x       y       z     vdW  Elec       q    Type
REMARK                         _______ _______ _______ _____ _____    ______ ____
ROOT
ATOM      1  C   UNL     1      48.005   9.501  16.620  0.00  0.00    +0.000 C 
ATOM      2  C   UNL     1      48.472   8.671  15.455  0.00  0.00    +0.000 A 
ATOM      3  C   UNL     1      47.701   8.686  14.273  0.00  0.00    +0.000 A 
ATOM      4  C   UNL     1      48.066   7.938  13.146  0.00  0.00    +0.000 A 
ATOM      5  C   UNL     1      49.248   7.195  13.194  0.00  0.00    +0.000 A 
ATOM      6  C   UNL     1      50.022   7.167  14.358  0.00  0.00    +0.000 A 
ATOM      7  C   UNL     1      49.640   7.881  15.509  0.00  0.00    +0.000 A 
ENDROOT
BRANCH   4   8
ATOM      8  C   UNL     1      47.226   7.975  11.893  0.00  0.00    +0.000 C 
BRANCH   8   9
ATOM      9  N   UNL     1      46.616   6.693  11.646  0.00  0.00    +0.000 N 
ATOM     10  C   UNL     1      45.270   6.489  11.804  0.00  0.00    +0.000 C 
ATOM     11  O   UNL     1      44.507   7.396  12.121  0.00  0.00    +0.000 OA
ATOM     12  H   UNL     1      47.241   5.894  11.598  0.00  0.00    +0.000 HD
BRANCH  10  13
ATOM     13  C   UNL     1      44.775   5.137  11.509  0.00  0.00    +0.000 A 
ATOM     14  C   UNL     1      44.080   4.430  12.482  0.00  0.00    +0.000 A 
ATOM     15  S   UNL     1      43.532   2.902  11.960  0.00  0.00    +0.000 S 
ATOM     16  C   UNL     1      44.246   3.108  10.429  0.00  0.00    +0.000 A 
ATOM     17  N   UNL     1      44.168   2.134   9.483  0.00  0.00    +0.000 NA
ATOM     18  C   UNL     1      44.781   2.407   8.382  0.00  0.00    +0.000 A 
ATOM     19  N   UNL     1      45.461   3.572   8.136  0.00  0.00    +0.000 N 
ATOM     20  C   UNL     1      45.539   4.600   9.046  0.00  0.00    +0.000 A 
ATOM     21  O   UNL     1      46.111   5.644   8.773  0.00  0.00    +0.000 OA
ATOM     22  C   UNL     1      44.879   4.334  10.311  0.00  0.00    +0.000 A 
ATOM     23  H   UNL     1      45.914   3.730   7.248  0.00  0.00    +0.000 HD
ENDBRANCH  10  13
ENDBRANCH   8   9
ENDBRANCH   4   8
BRANCH   7  24
ATOM     24  C   UNL     1      50.524   7.778  16.735  0.00  0.00    +0.000 C 
BRANCH  24  25
ATOM     25  N   UNL     1      51.050   6.443  16.897  0.00  0.00    +0.000 N 
ATOM     26  C   UNL     1      50.437   5.524  17.722  0.00  0.00    +0.000 C 
ATOM     27  O   UNL     1      49.426   5.764  18.368  0.00  0.00    +0.000 OA
ATOM     28  H   UNL     1      51.683   6.098  16.189  0.00  0.00    +0.000 HD
BRANCH  26  29
ATOM     29  C   UNL     1      51.089   4.212  17.725  0.00  0.00    +0.000 A 
ATOM     30  C   UNL     1      50.506   2.963  17.311  0.00  0.00    +0.000 A 
ATOM     31  C   UNL     1      51.372   1.899  17.434  0.00  0.00    +0.000 A 
ATOM     32  S   UNL     1      52.894   2.384  18.038  0.00  0.00    +0.000 S 
ATOM     33  C   UNL     1      52.405   4.023  18.112  0.00  0.00    +0.000 A 
ENDBRANCH  26  29
ENDBRANCH  24  25
ENDBRANCH   7  24
TORSDOF 6
ENDMDL
MODEL 9
REMARK VINA RESULT:    -6.384      2.481      3.313
REMARK INTER + INTRA:          -9.873
REMARK INTER:                  -8.920
REMARK INTRA:                  -0.953
REMARK UNBOUND:                -1.250
REMARK  Name = 
REMARK  7 active torsions:
REMARK  status: ('A' for Active; 'I' for Inactive)
REMARK    1  A    between atoms: C_1  and  C_2
REMARK    2  A    between atoms: C_4  and  C_5
REMARK    3  A    between atoms: C_5  and  N_6
REMARK    4  A    between atoms: C_7  and  C_9
REMARK    5  A    between atoms: C_21  and  C_22
REMARK    6  A    between atoms: C_22  and  N_23
REMARK    7  A    between atoms: C_24  and  C_26
REMARK                            x       y       z     vdW  Elec       q    Type
REMARK                         _______ _______ _______ _____ _____    ______ ____
ROOT
ATOM      1  C   UNL     1      43.579   3.970  12.377  0.00  0.00    +0.000 C 
ATOM      2  C   UNL     1      44.908   4.597  12.699  0.00  0.00    +0.000 A 
ATOM      3  C   UNL     1      45.466   4.362  13.973  0.00  0.00    +0.000 A 
ATOM      4  C   UNL     1      46.698   4.913  14.351  0.00  0.00    +0.000 A 
ATOM      5  C   UNL     1      47.399   5.679  13.417  0.00  0.00    +0.000 A 
ATOM      6  C   UNL     1      46.858   5.924  12.151  0.00  0.00    +0.000 A 
ATOM      7  C   UNL     1      45.602   5.411  11.779  0.00  0.00    +0.000 A 
ENDROOT
BRANCH   4   8
ATOM      8  C   UNL     1      47.276   4.642  15.718  0.00  0.00    +0.000 C 
BRANCH   8   9
ATOM      9  N   UNL     1      48.092   5.745  16.158  0.00  0.00    +0.000 N 
ATOM     10  C   UNL     1      49.310   5.550  16.758  0.00  0.00    +0.000 C 
ATOM     11  O   UNL     1      49.788   4.431  16.912  0.00  0.00    +0.000 OA
ATOM     12  H   UNL     1      47.633   6.647  16.240  0.00  0.00    +0.000 HD
BRANCH  10  13
ATOM     13  C   UNL     1      50.045   6.761  17.150  0.00  0.00    +0.000 A 
ATOM     14  C   UNL     1      51.305   7.004  16.618  0.00  0.00    +0.000 A 
ATOM     15  S   UNL     1      51.996   8.475  17.136  0.00  0.00    +0.000 S 
ATOM     16  C   UNL     1      50.657   8.817  18.130  0.00  0.00    +0.000 A 
ATOM     17  N   UNL     1      50.619   9.945  18.889  0.00  0.00    +0.000 NA
ATOM     18  C   UNL     1      49.562  10.063  19.619  0.00  0.00    +0.000 A 
ATOM     19  N   UNL     1      48.534   9.156  19.655  0.00  0.00    +0.000 N 
ATOM     20  C   UNL     1      48.511   8.020  18.882  0.00  0.00    +0.000 A 
ATOM     21  O   UNL     1      47.554   7.259  18.903  0.00  0.00    +0.000 OA
ATOM     22  C   UNL     1      49.688   7.831  18.054  0.00  0.00    +0.000 A 
ATOM     23  H   UNL     1      47.728   9.311  20.243  0.00  0.00    +0.000 HD
ENDBRANCH  10  13
ENDBRANCH   8   9
ENDBRANCH   4   8
BRANCH   7  24
ATOM     24  C   UNL     1      45.081   5.744  10.396  0.00  0.00    +0.000 C 
BRANCH  24  25
ATOM     25  N   UNL     1      45.727   4.948   9.380  0.00  0.00    +0.000 N 
ATOM     26  C   UNL     1      45.175   3.764   8.935  0.00  0.00    +0.000 C 
ATOM     27  O   UNL     1      44.123   3.307   9.361  0.00  0.00    +0.000 OA
ATOM     28  H   UNL     1      46.415   5.399   8.795  0.00  0.00    +0.000 HD
BRANCH  26  29
ATOM     29  C   UNL     1      45.950   3.119   7.873  0.00  0.00    +0.000 A 
ATOM     30  C   UNL     1      46.354   3.711   6.625  0.00  0.00    +0.000 A 
ATOM     31  C   UNL     1      47.074   2.848   5.829  0.00  0.00    +0.000 A 
ATOM     32  S   UNL     1      47.283   1.324   6.570  0.00  0.00    +0.000 S 
ATOM     33  C   UNL     1      46.432   1.824   7.969  0.00  0.00    +0.000 A 
ENDBRANCH  26  29
ENDBRANCH  24  25
ENDBRANCH   7  24
TORSDOF 6
ENDMDL
