MODEL 1
REMARK VINA RESULT:    -7.237      0.000      0.000
REMARK INTER + INTRA:         -10.795
REMARK INTER:                  -9.775
REMARK INTRA:                  -1.020
REMARK UNBOUND:                -1.020
REMARK  Name = 
REMARK  7 active torsions:
REMARK  status: ('A' for Active; 'I' for Inactive)
REMARK    1  A    between atoms: C_1  and  O_2
REMARK    2  A    between atoms: O_2  and  C_3
REMARK    3  A    between atoms: C_5  and  C_6
REMARK    4  A    between atoms: C_6  and  N_7
REMARK    5  A    between atoms: C_8  and  C_10
REMARK    6  A    between atoms: C_22  and  C_23
REMARK    7  A    between atoms: C_23  and  N_24
REMARK                            x       y       z     vdW  Elec       q    Type
REMARK                         _______ _______ _______ _____ _____    ______ ____
ROOT
ATOM      1  C   UNL     1      45.346   7.362  12.439  0.00  0.00    +0.000 C 
ENDROOT
BRANCH   1   4
ATOM      2  C   UNL     1      44.402   4.232  10.458  0.00  0.00    +0.000 A 
ATOM      3  C   UNL     1      44.421   5.223  11.453  0.00  0.00    +0.000 A 
ATOM      4  C   UNL     1      45.269   6.327  11.354  0.00  0.00    +0.000 A 
ATOM      5  C   UNL     1      46.034   6.419  10.204  0.00  0.00    +0.000 A 
ATOM      6  N   UNL     1      46.023   5.501   9.207  0.00  0.00    +0.000 NA
ATOM      7  C   UNL     1      45.212   4.405   9.327  0.00  0.00    +0.000 A 
BRANCH   2   9
ATOM      8  C   UNL     1      43.395   2.808  12.056  0.00  0.00    +0.000 C 
ATOM      9  O   UNL     1      43.515   3.221  10.700  0.00  0.00    +0.000 OA
ENDBRANCH   2   9
BRANCH   7  10
ATOM     10  C   UNL     1      45.338   3.406   8.183  0.00  0.00    +0.000 C 
BRANCH  10  11
ATOM     11  N   UNL     1      46.656   2.957   7.703  0.00  0.00    +0.000 NA
ATOM     12  C   UNL     1      47.104   3.571   6.459  0.00  0.00    +0.000 C 
ATOM     13  C   UNL     1      46.811   2.546   5.387  0.00  0.00    +0.000 C 
ATOM     14  C   UNL     1      47.066   1.228   6.092  0.00  0.00    +0.000 C 
ATOM     15  C   UNL     1      46.834   1.515   7.570  0.00  0.00    +0.000 C 
ENDBRANCH  10  11
ENDBRANCH   7  10
ENDBRANCH   1   4
BRANCH   1  16
ATOM     16  N   UNL     1      46.141   6.923  13.558  0.00  0.00    +0.000 N 
ATOM     17  C   UNL     1      47.502   7.085  13.600  0.00  0.00    +0.000 C 
ATOM     18  O   UNL     1      48.118   7.629  12.687  0.00  0.00    +0.000 OA
ATOM     19  H   UNL     1      45.681   6.354  14.262  0.00  0.00    +0.000 HD
BRANCH  17  20
ATOM     20  C   UNL     1      48.191   6.629  14.815  0.00  0.00    +0.000 A 
ATOM     21  C   UNL     1      49.172   7.433  15.381  0.00  0.00    +0.000 A 
ATOM     22  S   UNL     1      49.878   6.775  16.785  0.00  0.00    +0.000 S 
ATOM     23  C   UNL     1      48.927   5.370  16.669  0.00  0.00    +0.000 A 
ATOM     24  N   UNL     1      49.065   4.361  17.569  0.00  0.00    +0.000 NA
ATOM     25  C   UNL     1      48.306   3.341  17.346  0.00  0.00    +0.000 A 
ATOM     26  N   UNL     1      47.409   3.246  16.312  0.00  0.00    +0.000 N 
ATOM     27  C   UNL     1      47.189   4.266  15.418  0.00  0.00    +0.000 A 
ATOM     28  O   UNL     1      46.297   4.197  14.576  0.00  0.00    +0.000 OA
ATOM     29  C   UNL     1      48.052   5.418  15.594  0.00  0.00    +0.000 A 
ATOM     30  H   UNL     1      46.825   2.429  16.214  0.00  0.00    +0.000 HD
ENDBRANCH  17  20
ENDBRANCH   1  16
TORSDOF 6
ENDMDL
MODEL 2
REMARK VINA RESULT:    -7.068      3.454      5.362
REMARK INTER + INTRA:         -10.566
REMARK INTER:                  -9.595
REMARK INTRA:                  -0.971
REMARK UNBOUND:                -1.020
REMARK  Name = 
REMARK  7 active torsions:
REMARK  status: ('A' for Active; 'I' for Inactive)
REMARK    1  A    between atoms: C_1  and  O_2
REMARK    2  A    between atoms: O_2  and  C_3
REMARK    3  A    between atoms: C_5  and  C_6
REMARK    4  A    between atoms: C_6  and  N_7
REMARK    5  A    between atoms: C_8  and  C_10
REMARK    6  A    between atoms: C_22  and  C_23
REMARK    7  A    between atoms: C_23  and  N_24
REMARK                            x       y       z     vdW  Elec       q    Type
REMARK                         _______ _______ _______ _____ _____    ______ ____
ROOT
ATOM      1  C   UNL     1      48.689   6.532  16.106  0.00  0.00    +0.000 C 
ENDROOT
BRANCH   1   4
ATOM      2  C   UNL     1      46.829   5.448  12.947  0.00  0.00    +0.000 A 
ATOM      3  C   UNL     1      47.613   6.197  13.840  0.00  0.00    +0.000 A 
ATOM      4  C   UNL     1      47.905   5.718  15.118  0.00  0.00    +0.000 A 
ATOM      5  C   UNL     1      47.436   4.452  15.427  0.00  0.00    +0.000 A 
ATOM      6  N   UNL     1      46.703   3.686  14.584  0.00  0.00    +0.000 NA
ATOM      7  C   UNL     1      46.394   4.177  13.343  0.00  0.00    +0.000 A 
BRANCH   2   9
ATOM      8  C   UNL     1      45.817   7.215  11.741  0.00  0.00    +0.000 C 
ATOM      9  O   UNL     1      46.640   6.054  11.737  0.00  0.00    +0.000 OA
ENDBRANCH   2   9
BRANCH   7  10
ATOM     10  C   UNL     1      45.504   3.261  12.512  0.00  0.00    +0.000 C 
BRANCH  10  11
ATOM     11  N   UNL     1      44.036   3.358  12.575  0.00  0.00    +0.000 NA
ATOM     12  C   UNL     1      43.359   3.370  11.284  0.00  0.00    +0.000 C 
ATOM     13  C   UNL     1      43.043   4.824  11.019  0.00  0.00    +0.000 C 
ATOM     14  C   UNL     1      42.738   5.368  12.401  0.00  0.00    +0.000 C 
ATOM     15  C   UNL     1      43.499   4.463  13.363  0.00  0.00    +0.000 C 
ENDBRANCH  10  11
ENDBRANCH   7  10
ENDBRANCH   1   4
BRANCH   1  16
ATOM     16  N   UNL     1      49.812   5.805  16.644  0.00  0.00    +0.000 N 
ATOM     17  C   UNL     1      49.771   5.199  17.874  0.00  0.00    +0.000 C 
ATOM     18  O   UNL     1      48.766   5.230  18.580  0.00  0.00    +0.000 OA
ATOM     19  H   UNL     1      50.694   5.875  16.148  0.00  0.00    +0.000 HD
BRANCH  17  20
ATOM     20  C   UNL     1      50.969   4.456  18.291  0.00  0.00    +0.000 A 
ATOM     21  C   UNL     1      51.912   5.085  19.095  0.00  0.00    +0.000 A 
ATOM     22  S   UNL     1      53.241   4.100  19.499  0.00  0.00    +0.000 S 
ATOM     23  C   UNL     1      52.629   2.805  18.582  0.00  0.00    +0.000 A 
ATOM     24  N   UNL     1      53.318   1.639  18.477  0.00  0.00    +0.000 NA
ATOM     25  C   UNL     1      52.757   0.753  17.726  0.00  0.00    +0.000 A 
ATOM     26  N   UNL     1      51.558   0.923  17.081  0.00  0.00    +0.000 N 
ATOM     27  C   UNL     1      50.794   2.058  17.210  0.00  0.00    +0.000 A 
ATOM     28  O   UNL     1      49.672   2.133  16.715  0.00  0.00    +0.000 OA
ATOM     29  C   UNL     1      51.404   3.107  18.004  0.00  0.00    +0.000 A 
ATOM     30  H   UNL     1      51.161   0.175  16.531  0.00  0.00    +0.000 HD
ENDBRANCH  17  20
ENDBRANCH   1  16
TORSDOF 6
ENDMDL
MODEL 3
REMARK VINA RESULT:    -6.649      2.872      3.892
REMARK INTER + INTRA:         -10.000
REMARK INTER:                  -8.873
REMARK INTRA:                  -1.127
REMARK UNBOUND:                -1.020
REMARK  Name = 
REMARK  7 active torsions:
REMARK  status: ('A' for Active; 'I' for Inactive)
REMARK    1  A    between atoms: C_1  and  O_2
REMARK    2  A    between atoms: O_2  and  C_3
REMARK    3  A    between atoms: C_5  and  C_6
REMARK    4  A    between atoms: C_6  and  N_7
REMARK    5  A    between atoms: C_8  and  C_10
REMARK    6  A    between atoms: C_22  and  C_23
REMARK    7  A    between atoms: C_23  and  N_24
REMARK                            x       y       z     vdW  Elec       q    Type
REMARK                         _______ _______ _______ _____ _____    ______ ____
ROOT
ATOM      1  C   UNL     1      47.653   8.484  13.922  0.00  0.00    +0.000 C 
ENDROOT
BRANCH   1   4
ATOM      2  C   UNL     1      44.802   7.744  11.486  0.00  0.00    +0.000 A 
ATOM      3  C   UNL     1      45.643   8.418  12.385  0.00  0.00    +0.000 A 
ATOM      4  C   UNL     1      46.778   7.799  12.912  0.00  0.00    +0.000 A 
ATOM      5  C   UNL     1      47.056   6.523  12.453  0.00  0.00    +0.000 A 
ATOM      6  N   UNL     1      46.287   5.850  11.563  0.00  0.00    +0.000 NA
ATOM      7  C   UNL     1      45.159   6.452  11.076  0.00  0.00    +0.000 A 
BRANCH   2   9
ATOM      8  C   UNL     1      43.971   9.884  10.913  0.00  0.00    +0.000 C 
ATOM      9  O   UNL     1      43.738   8.489  11.060  0.00  0.00    +0.000 OA
ENDBRANCH   2   9
BRANCH   7  10
ATOM     10  C   UNL     1      44.334   5.574  10.143  0.00  0.00    +0.000 C 
BRANCH  10  11
ATOM     11  N   UNL     1      43.320   4.644  10.666  0.00  0.00    +0.000 NA
ATOM     12  C   UNL     1      42.595   5.114  11.841  0.00  0.00    +0.000 C 
ATOM     13  C   UNL     1      43.254   4.421  13.012  0.00  0.00    +0.000 C 
ATOM     14  C   UNL     1      43.625   3.064  12.445  0.00  0.00    +0.000 C 
ATOM     15  C   UNL     1      43.776   3.286  10.945  0.00  0.00    +0.000 C 
ENDBRANCH  10  11
ENDBRANCH   7  10
ENDBRANCH   1   4
BRANCH   1  16
ATOM     16  N   UNL     1      47.921   7.650  15.067  0.00  0.00    +0.000 N 
ATOM     17  C   UNL     1      49.122   7.011  15.244  0.00  0.00    +0.000 C 
ATOM     18  O   UNL     1      50.043   7.127  14.439  0.00  0.00    +0.000 OA
ATOM     19  H   UNL     1      47.140   7.428  15.676  0.00  0.00    +0.000 HD
BRANCH  17  20
ATOM     20  C   UNL     1      49.283   6.221  16.473  0.00  0.00    +0.000 A 
ATOM     21  C   UNL     1      50.261   6.585  17.390  0.00  0.00    +0.000 A 
ATOM     22  S   UNL     1      50.325   5.581  18.764  0.00  0.00    +0.000 S 
ATOM     23  C   UNL     1      49.074   4.595  18.168  0.00  0.00    +0.000 A 
ATOM     24  N   UNL     1      48.655   3.506  18.864  0.00  0.00    +0.000 NA
ATOM     25  C   UNL     1      47.722   2.829  18.284  0.00  0.00    +0.000 A 
ATOM     26  N   UNL     1      47.159   3.152  17.075  0.00  0.00    +0.000 N 
ATOM     27  C   UNL     1      47.504   4.278  16.368  0.00  0.00    +0.000 A 
ATOM     28  O   UNL     1      46.900   4.602  15.348  0.00  0.00    +0.000 OA
ATOM     29  C   UNL     1      48.584   5.049  16.952  0.00  0.00    +0.000 A 
ATOM     30  H   UNL     1      46.412   2.593  16.692  0.00  0.00    +0.000 HD
ENDBRANCH  17  20
ENDBRANCH   1  16
TORSDOF 6
ENDMDL
MODEL 4
REMARK VINA RESULT:    -6.642      3.922      8.737
REMARK INTER + INTRA:          -9.991
REMARK INTER:                  -9.017
REMARK INTRA:                  -0.974
REMARK UNBOUND:                -1.020
REMARK  Name = 
REMARK  7 active torsions:
REMARK  status: ('A' for Active; 'I' for Inactive)
REMARK    1  A    between atoms: C_1  and  O_2
REMARK    2  A    between atoms: O_2  and  C_3
REMARK    3  A    between atoms: C_5  and  C_6
REMARK    4  A    between atoms: C_6  and  N_7
REMARK    5  A    between atoms: C_8  and  C_10
REMARK    6  A    between atoms: C_22  and  C_23
REMARK    7  A    between atoms: C_23  and  N_24
REMARK                            x       y       z     vdW  Elec       q    Type
REMARK                         _______ _______ _______ _____ _____    ______ ____
ROOT
ATOM      1  C   UNL     1      47.230   3.615  16.732  0.00  0.00    +0.000 C 
ENDROOT
BRANCH   1   4
ATOM      2  C   UNL     1      50.902   3.628  17.795  0.00  0.00    +0.000 A 
ATOM      3  C   UNL     1      49.674   3.215  17.254  0.00  0.00    +0.000 A 
ATOM      4  C   UNL     1      48.566   4.063  17.251  0.00  0.00    +0.000 A 
ATOM      5  C   UNL     1      48.763   5.340  17.750  0.00  0.00    +0.000 A 
ATOM      6  N   UNL     1      49.939   5.788  18.253  0.00  0.00    +0.000 NA
ATOM      7  C   UNL     1      51.012   4.938  18.280  0.00  0.00    +0.000 A 
BRANCH   2   9
ATOM      8  C   UNL     1      51.463   1.365  17.391  0.00  0.00    +0.000 C 
ATOM      9  O   UNL     1      51.887   2.684  17.716  0.00  0.00    +0.000 OA
ENDBRANCH   2   9
BRANCH   7  10
ATOM     10  C   UNL     1      52.257   5.524  18.936  0.00  0.00    +0.000 C 
BRANCH  10  11
ATOM     11  N   UNL     1      53.241   6.293  18.156  0.00  0.00    +0.000 NA
ATOM     12  C   UNL     1      53.018   7.734  18.123  0.00  0.00    +0.000 C 
ATOM     13  C   UNL     1      52.355   7.998  16.791  0.00  0.00    +0.000 C 
ATOM     14  C   UNL     1      53.013   6.987  15.871  0.00  0.00    +0.000 C 
ATOM     15  C   UNL     1      53.460   5.851  16.782  0.00  0.00    +0.000 C 
ENDBRANCH  10  11
ENDBRANCH   7  10
ENDBRANCH   1   4
BRANCH   1  16
ATOM     16  N   UNL     1      46.693   4.524  15.751  0.00  0.00    +0.000 N 
ATOM     17  C   UNL     1      46.743   4.263  14.405  0.00  0.00    +0.000 C 
ATOM     18  O   UNL     1      47.239   3.230  13.963  0.00  0.00    +0.000 OA
ATOM     19  H   UNL     1      46.401   5.440  16.074  0.00  0.00    +0.000 HD
BRANCH  17  20
ATOM     20  C   UNL     1      46.125   5.252  13.511  0.00  0.00    +0.000 A 
ATOM     21  C   UNL     1      46.804   6.432  13.231  0.00  0.00    +0.000 A 
ATOM     22  S   UNL     1      45.966   7.477  12.179  0.00  0.00    +0.000 S 
ATOM     23  C   UNL     1      44.645   6.411  12.086  0.00  0.00    +0.000 A 
ATOM     24  N   UNL     1      43.545   6.728  11.354  0.00  0.00    +0.000 NA
ATOM     25  C   UNL     1      42.604   5.846  11.396  0.00  0.00    +0.000 A 
ATOM     26  N   UNL     1      42.670   4.666  12.093  0.00  0.00    +0.000 N 
ATOM     27  C   UNL     1      43.785   4.274  12.792  0.00  0.00    +0.000 A 
ATOM     28  O   UNL     1      43.857   3.160  13.307  0.00  0.00    +0.000 OA
ATOM     29  C   UNL     1      44.855   5.252  12.819  0.00  0.00    +0.000 A 
ATOM     30  H   UNL     1      41.906   4.007  12.058  0.00  0.00    +0.000 HD
ENDBRANCH  17  20
ENDBRANCH   1  16
TORSDOF 6
ENDMDL
MODEL 5
REMARK VINA RESULT:    -6.531      3.273      8.336
REMARK INTER + INTRA:          -9.842
REMARK INTER:                  -8.649
REMARK INTRA:                  -1.193
REMARK UNBOUND:                -1.020
REMARK  Name = 
REMARK  7 active torsions:
REMARK  status: ('A' for Active; 'I' for Inactive)
REMARK    1  A    between atoms: C_1  and  O_2
REMARK    2  A    between atoms: O_2  and  C_3
REMARK    3  A    between atoms: C_5  and  C_6
REMARK    4  A    between atoms: C_6  and  N_7
REMARK    5  A    between atoms: C_8  and  C_10
REMARK    6  A    between atoms: C_22  and  C_23
REMARK    7  A    between atoms: C_23  and  N_24
REMARK                            x       y       z     vdW  Elec       q    Type
REMARK                         _______ _______ _______ _____ _____    ______ ____
ROOT
ATOM      1  C   UNL     1      48.599   7.497  12.794  0.00  0.00    +0.000 C 
ENDROOT
BRANCH   1   4
ATOM      2  C   UNL     1      48.566   5.820  16.229  0.00  0.00    +0.000 A 
ATOM      3  C   UNL     1      48.210   6.179  14.919  0.00  0.00    +0.000 A 
ATOM      4  C   UNL     1      48.997   7.057  14.173  0.00  0.00    +0.000 A 
ATOM      5  C   UNL     1      50.166   7.498  14.769  0.00  0.00    +0.000 A 
ATOM      6  N   UNL     1      50.561   7.153  16.019  0.00  0.00    +0.000 NA
ATOM      7  C   UNL     1      49.766   6.316  16.755  0.00  0.00    +0.000 A 
BRANCH   2   9
ATOM      8  C   UNL     1      47.526   3.695  16.170  0.00  0.00    +0.000 C 
ATOM      9  O   UNL     1      47.693   4.949  16.820  0.00  0.00    +0.000 OA
ENDBRANCH   2   9
BRANCH   7  10
ATOM     10  C   UNL     1      50.271   6.058  18.170  0.00  0.00    +0.000 C 
BRANCH  10  11
ATOM     11  N   UNL     1      49.729   6.797  19.322  0.00  0.00    +0.000 NA
ATOM     12  C   UNL     1      48.885   6.017  20.219  0.00  0.00    +0.000 C 
ATOM     13  C   UNL     1      47.468   6.374  19.834  0.00  0.00    +0.000 C 
ATOM     14  C   UNL     1      47.572   7.838  19.454  0.00  0.00    +0.000 C 
ATOM     15  C   UNL     1      49.018   8.034  19.014  0.00  0.00    +0.000 C 
ENDBRANCH  10  11
ENDBRANCH   7  10
ENDBRANCH   1   4
BRANCH   1  16
ATOM     16  N   UNL     1      47.795   6.511  12.117  0.00  0.00    +0.000 N 
ATOM     17  C   UNL     1      46.496   6.752  11.746  0.00  0.00    +0.000 C 
ATOM     18  O   UNL     1      45.951   7.831  11.960  0.00  0.00    +0.000 OA
ATOM     19  H   UNL     1      48.171   5.571  12.047  0.00  0.00    +0.000 HD
BRANCH  17  20
ATOM     20  C   UNL     1      45.798   5.677  11.028  0.00  0.00    +0.000 A 
ATOM     21  C   UNL     1      45.846   5.646   9.639  0.00  0.00    +0.000 A 
ATOM     22  S   UNL     1      44.994   4.343   8.949  0.00  0.00    +0.000 S 
ATOM     23  C   UNL     1      44.493   3.790  10.477  0.00  0.00    +0.000 A 
ATOM     24  N   UNL     1      43.689   2.701  10.594  0.00  0.00    +0.000 NA
ATOM     25  C   UNL     1      43.359   2.410  11.807  0.00  0.00    +0.000 A 
ATOM     26  N   UNL     1      43.774   3.102  12.917  0.00  0.00    +0.000 N 
ATOM     27  C   UNL     1      44.639   4.168  12.852  0.00  0.00    +0.000 A 
ATOM     28  O   UNL     1      45.084   4.692  13.870  0.00  0.00    +0.000 OA
ATOM     29  C   UNL     1      45.002   4.568  11.507  0.00  0.00    +0.000 A 
ATOM     30  H   UNL     1      43.500   2.801  13.840  0.00  0.00    +0.000 HD
ENDBRANCH  17  20
ENDBRANCH   1  16
TORSDOF 6
ENDMDL
MODEL 6
REMARK VINA RESULT:    -6.440      2.880      8.610
REMARK INTER + INTRA:          -9.718
REMARK INTER:                  -8.686
REMARK INTRA:                  -1.032
REMARK UNBOUND:                -1.020
REMARK  Name = 
REMARK  7 active torsions:
REMARK  status: ('A' for Active; 'I' for Inactive)
REMARK    1  A    between atoms: C_1  and  O_2
REMARK    2  A    between atoms: O_2  and  C_3
REMARK    3  A    between atoms: C_5  and  C_6
REMARK    4  A    between atoms: C_6  and  N_7
REMARK    5  A    between atoms: C_8  and  C_10
REMARK    6  A    between atoms: C_22  and  C_23
REMARK    7  A    between atoms: C_23  and  N_24
REMARK                            x       y       z     vdW  Elec       q    Type
REMARK                         _______ _______ _______ _____ _____    ______ ____
ROOT
ATOM      1  C   UNL     1      47.242   7.693  12.680  0.00  0.00    +0.000 C 
ENDROOT
BRANCH   1   4
ATOM      2  C   UNL     1      48.844   6.338  15.874  0.00  0.00    +0.000 A 
ATOM      3  C   UNL     1      48.228   6.393  14.614  0.00  0.00    +0.000 A 
ATOM      4  C   UNL     1      47.955   7.615  13.998  0.00  0.00    +0.000 A 
ATOM      5  C   UNL     1      48.379   8.752  14.666  0.00  0.00    +0.000 A 
ATOM      6  N   UNL     1      49.003   8.741  15.868  0.00  0.00    +0.000 NA
ATOM      7  C   UNL     1      49.238   7.538  16.479  0.00  0.00    +0.000 A 
BRANCH   2   9
ATOM      8  C   UNL     1      47.895   4.232  16.388  0.00  0.00    +0.000 C 
ATOM      9  O   UNL     1      49.046   5.067  16.336  0.00  0.00    +0.000 OA
ENDBRANCH   2   9
BRANCH   7  10
ATOM     10  C   UNL     1      49.877   7.653  17.858  0.00  0.00    +0.000 C 
BRANCH  10  11
ATOM     11  N   UNL     1      49.062   7.607  19.084  0.00  0.00    +0.000 NA
ATOM     12  C   UNL     1      49.458   6.593  20.054  0.00  0.00    +0.000 C 
ATOM     13  C   UNL     1      48.488   5.452  19.848  0.00  0.00    +0.000 C 
ATOM     14  C   UNL     1      47.194   6.159  19.494  0.00  0.00    +0.000 C 
ATOM     15  C   UNL     1      47.620   7.493  18.893  0.00  0.00    +0.000 C 
ENDBRANCH  10  11
ENDBRANCH   7  10
ENDBRANCH   1   4
BRANCH   1  16
ATOM     16  N   UNL     1      46.566   6.462  12.351  0.00  0.00    +0.000 N 
ATOM     17  C   UNL     1      45.340   6.440  11.737  0.00  0.00    +0.000 C 
ATOM     18  O   UNL     1      44.755   7.473  11.420  0.00  0.00    +0.000 OA
ATOM     19  H   UNL     1      46.959   5.602  12.719  0.00  0.00    +0.000 HD
BRANCH  17  20
ATOM     20  C   UNL     1      44.776   5.120  11.421  0.00  0.00    +0.000 A 
ATOM     21  C   UNL     1      43.990   4.475  12.367  0.00  0.00    +0.000 A 
ATOM     22  S   UNL     1      43.405   2.958  11.858  0.00  0.00    +0.000 S 
ATOM     23  C   UNL     1      44.213   3.087  10.367  0.00  0.00    +0.000 A 
ATOM     24  N   UNL     1      44.152   2.083   9.453  0.00  0.00    +0.000 NA
ATOM     25  C   UNL     1      44.836   2.296   8.380  0.00  0.00    +0.000 A 
ATOM     26  N   UNL     1      45.565   3.432   8.132  0.00  0.00    +0.000 N 
ATOM     27  C   UNL     1      45.604   4.499   8.996  0.00  0.00    +0.000 A 
ATOM     28  O   UNL     1      46.169   5.547   8.693  0.00  0.00    +0.000 OA
ATOM     29  C   UNL     1      44.891   4.291  10.242  0.00  0.00    +0.000 A 
ATOM     30  H   UNL     1      46.054   3.545   7.257  0.00  0.00    +0.000 HD
ENDBRANCH  17  20
ENDBRANCH   1  16
TORSDOF 6
ENDMDL
MODEL 7
REMARK VINA RESULT:    -6.421      3.874      9.292
REMARK INTER + INTRA:          -9.692
REMARK INTER:                  -8.805
REMARK INTRA:                  -0.887
REMARK UNBOUND:                -1.020
REMARK  Name = 
REMARK  7 active torsions:
REMARK  status: ('A' for Active; 'I' for Inactive)
REMARK    1  A    between atoms: C_1  and  O_2
REMARK    2  A    between atoms: O_2  and  C_3
REMARK    3  A    between atoms: C_5  and  C_6
REMARK    4  A    between atoms: C_6  and  N_7
REMARK    5  A    between atoms: C_8  and  C_10
REMARK    6  A    between atoms: C_22  and  C_23
REMARK    7  A    between atoms: C_23  and  N_24
REMARK                            x       y       z     vdW  Elec       q    Type
REMARK                         _______ _______ _______ _____ _____    ______ ____
ROOT
ATOM      1  C   UNL     1      47.192   3.400  16.803  0.00  0.00    +0.000 C 
ENDROOT
BRANCH   1   4
ATOM      2  C   UNL     1      50.569   4.922  17.747  0.00  0.00    +0.000 A 
ATOM      3  C   UNL     1      49.195   4.785  17.491  0.00  0.00    +0.000 A 
ATOM      4  C   UNL     1      48.648   3.551  17.139  0.00  0.00    +0.000 A 
ATOM      5  C   UNL     1      49.516   2.473  17.118  0.00  0.00    +0.000 A 
ATOM      6  N   UNL     1      50.841   2.557  17.387  0.00  0.00    +0.000 NA
ATOM      7  C   UNL     1      51.376   3.777  17.701  0.00  0.00    +0.000 A 
BRANCH   2   9
ATOM      8  C   UNL     1      50.436   6.689  19.316  0.00  0.00    +0.000 C 
ATOM      9  O   UNL     1      50.945   6.193  18.083  0.00  0.00    +0.000 OA
ENDBRANCH   2   9
BRANCH   7  10
ATOM     10  C   UNL     1      52.885   3.764  17.910  0.00  0.00    +0.000 C 
BRANCH  10  11
ATOM     11  N   UNL     1      53.493   4.327  19.126  0.00  0.00    +0.000 NA
ATOM     12  C   UNL     1      54.376   5.467  18.908  0.00  0.00    +0.000 C 
ATOM     13  C   UNL     1      55.775   4.896  18.957  0.00  0.00    +0.000 C 
ATOM     14  C   UNL     1      55.664   3.802  20.002  0.00  0.00    +0.000 C 
ATOM     15  C   UNL     1      54.199   3.383  19.987  0.00  0.00    +0.000 C 
ENDBRANCH  10  11
ENDBRANCH   7  10
ENDBRANCH   1   4
BRANCH   1  16
ATOM     16  N   UNL     1      46.756   4.361  15.820  0.00  0.00    +0.000 N 
ATOM     17  C   UNL     1      46.844   4.122  14.472  0.00  0.00    +0.000 C 
ATOM     18  O   UNL     1      47.288   3.067  14.028  0.00  0.00    +0.000 OA
ATOM     19  H   UNL     1      46.512   5.288  16.151  0.00  0.00    +0.000 HD
BRANCH  17  20
ATOM     20  C   UNL     1      46.330   5.167  13.575  0.00  0.00    +0.000 A 
ATOM     21  C   UNL     1      47.103   6.295  13.334  0.00  0.00    +0.000 A 
ATOM     22  S   UNL     1      46.379   7.414  12.273  0.00  0.00    +0.000 S 
ATOM     23  C   UNL     1      44.984   6.452  12.126  0.00  0.00    +0.000 A 
ATOM     24  N   UNL     1      43.934   6.861  11.367  0.00  0.00    +0.000 NA
ATOM     25  C   UNL     1      42.928   6.053  11.368  0.00  0.00    +0.000 A 
ATOM     26  N   UNL     1      42.884   4.862  12.049  0.00  0.00    +0.000 N 
ATOM     27  C   UNL     1      43.946   4.377  12.774  0.00  0.00    +0.000 A 
ATOM     28  O   UNL     1      43.918   3.255  13.274  0.00  0.00    +0.000 OA
ATOM     29  C   UNL     1      45.085   5.271  12.847  0.00  0.00    +0.000 A 
ATOM     30  H   UNL     1      42.075   4.263  11.982  0.00  0.00    +0.000 HD
ENDBRANCH  17  20
ENDBRANCH   1  16
TORSDOF 6
ENDMDL
MODEL 8
REMARK VINA RESULT:    -6.389      3.576      8.357
REMARK INTER + INTRA:          -9.649
REMARK INTER:                  -8.664
REMARK INTRA:                  -0.985
REMARK UNBOUND:                -1.020
REMARK  Name = 
REMARK  7 active torsions:
REMARK  status: ('A' for Active; 'I' for Inactive)
REMARK    1  A    between atoms: C_1  and  O_2
REMARK    2  A    between atoms: O_2  and  C_3
REMARK    3  A    between atoms: C_5  and  C_6
REMARK    4  A    between atoms: C_6  and  N_7
REMARK    5  A    between atoms: C_8  and  C_10
REMARK    6  A    between atoms: C_22  and  C_23
REMARK    7  A    between atoms: C_23  and  N_24
REMARK                            x       y       z     vdW  Elec       q    Type
REMARK                         _______ _______ _______ _____ _____    ______ ____
ROOT
ATOM      1  C   UNL     1      49.023   7.405  15.877  0.00  0.00    +0.000 C 
ENDROOT
BRANCH   1   4
ATOM      2  C   UNL     1      49.611   3.863  17.188  0.00  0.00    +0.000 A 
ATOM      3  C   UNL     1      48.985   4.990  16.631  0.00  0.00    +0.000 A 
ATOM      4  C   UNL     1      49.692   6.173  16.413  0.00  0.00    +0.000 A 
ATOM      5  C   UNL     1      51.043   6.150  16.714  0.00  0.00    +0.000 A 
ATOM      6  N   UNL     1      51.692   5.075  17.224  0.00  0.00    +0.000 NA
ATOM      7  C   UNL     1      50.983   3.928  17.464  0.00  0.00    +0.000 A 
BRANCH   2   9
ATOM      8  C   UNL     1      47.398   3.077  17.482  0.00  0.00    +0.000 C 
ATOM      9  O   UNL     1      48.783   2.785  17.333  0.00  0.00    +0.000 OA
ENDBRANCH   2   9
BRANCH   7  10
ATOM     10  C   UNL     1      51.798   2.813  18.107  0.00  0.00    +0.000 C 
BRANCH  10  11
ATOM     11  N   UNL     1      53.268   2.794  18.021  0.00  0.00    +0.000 NA
ATOM     12  C   UNL     1      53.837   1.613  17.382  0.00  0.00    +0.000 C 
ATOM     13  C   UNL     1      54.293   0.730  18.521  0.00  0.00    +0.000 C 
ATOM     14  C   UNL     1      54.766   1.727  19.562  0.00  0.00    +0.000 C 
ATOM     15  C   UNL     1      53.987   3.005  19.274  0.00  0.00    +0.000 C 
ENDBRANCH  10  11
ENDBRANCH   7  10
ENDBRANCH   1   4
BRANCH   1  16
ATOM     16  N   UNL     1      47.906   7.091  15.021  0.00  0.00    +0.000 N 
ATOM     17  C   UNL     1      48.067   6.744  13.703  0.00  0.00    +0.000 C 
ATOM     18  O   UNL     1      49.177   6.668  13.184  0.00  0.00    +0.000 OA
ATOM     19  H   UNL     1      46.976   7.275  15.381  0.00  0.00    +0.000 HD
BRANCH  17  20
ATOM     20  C   UNL     1      46.851   6.410  12.949  0.00  0.00    +0.000 A 
ATOM     21  C   UNL     1      46.151   7.424  12.306  0.00  0.00    +0.000 A 
ATOM     22  S   UNL     1      44.768   6.885  11.470  0.00  0.00    +0.000 S 
ATOM     23  C   UNL     1      45.027   5.280  11.968  0.00  0.00    +0.000 A 
ATOM     24  N   UNL     1      44.162   4.293  11.615  0.00  0.00    +0.000 NA
ATOM     25  C   UNL     1      44.460   3.129  12.085  0.00  0.00    +0.000 A 
ATOM     26  N   UNL     1      45.555   2.859  12.867  0.00  0.00    +0.000 N 
ATOM     27  C   UNL     1      46.491   3.810  13.194  0.00  0.00    +0.000 A 
ATOM     28  O   UNL     1      47.520   3.512  13.795  0.00  0.00    +0.000 OA
ATOM     29  C   UNL     1      46.179   5.148  12.731  0.00  0.00    +0.000 A 
ATOM     30  H   UNL     1      45.743   1.918  13.177  0.00  0.00    +0.000 HD
ENDBRANCH  17  20
ENDBRANCH   1  16
TORSDOF 6
ENDMDL
MODEL 9
REMARK VINA RESULT:    -6.370      2.997      4.191
REMARK INTER + INTRA:          -9.624
REMARK INTER:                  -8.842
REMARK INTRA:                  -0.782
REMARK UNBOUND:                -1.020
REMARK  Name = 
REMARK  7 active torsions:
REMARK  status: ('A' for Active; 'I' for Inactive)
REMARK    1  A    between atoms: C_1  and  O_2
REMARK    2  A    between atoms: O_2  and  C_3
REMARK    3  A    between atoms: C_5  and  C_6
REMARK    4  A    between atoms: C_6  and  N_7
REMARK    5  A    between atoms: C_8  and  C_10
REMARK    6  A    between atoms: C_22  and  C_23
REMARK    7  A    between atoms: C_23  and  N_24
REMARK                            x       y       z     vdW  Elec       q    Type
REMARK                         _______ _______ _______ _____ _____    ______ ____
ROOT
ATOM      1  C   UNL     1      48.084   6.426  14.172  0.00  0.00    +0.000 C 
ENDROOT
BRANCH   1   4
ATOM      2  C   UNL     1      44.874   5.766  12.204  0.00  0.00    +0.000 A 
ATOM      3  C   UNL     1      45.946   6.434  12.818  0.00  0.00    +0.000 A 
ATOM      4  C   UNL     1      46.964   5.726  13.459  0.00  0.00    +0.000 A 
ATOM      5  C   UNL     1      46.888   4.345  13.400  0.00  0.00    +0.000 A 
ATOM      6  N   UNL     1      45.888   3.662  12.793  0.00  0.00    +0.000 NA
ATOM      7  C   UNL     1      44.877   4.365  12.194  0.00  0.00    +0.000 A 
BRANCH   2   9
ATOM      8  C   UNL     1      44.407   7.932  11.372  0.00  0.00    +0.000 C 
ATOM      9  O   UNL     1      43.965   6.602  11.618  0.00  0.00    +0.000 OA
ENDBRANCH   2   9
BRANCH   7  10
ATOM     10  C   UNL     1      43.770   3.495  11.610  0.00  0.00    +0.000 C 
BRANCH  10  11
ATOM     11  N   UNL     1      43.672   3.253  10.162  0.00  0.00    +0.000 NA
ATOM     12  C   UNL     1      44.283   2.012   9.697  0.00  0.00    +0.000 C 
ATOM     13  C   UNL     1      45.623   2.422   9.132  0.00  0.00    +0.000 C 
ATOM     14  C   UNL     1      45.339   3.780   8.518  0.00  0.00    +0.000 C 
ATOM     15  C   UNL     1      44.149   4.327   9.297  0.00  0.00    +0.000 C 
ENDBRANCH  10  11
ENDBRANCH   7  10
ENDBRANCH   1   4
BRANCH   1  16
ATOM     16  N   UNL     1      47.944   6.362  15.606  0.00  0.00    +0.000 N 
ATOM     17  C   UNL     1      49.009   6.130  16.437  0.00  0.00    +0.000 C 
ATOM     18  O   UNL     1      50.149   5.978  16.004  0.00  0.00    +0.000 OA
ATOM     19  H   UNL     1      47.001   6.349  15.982  0.00  0.00    +0.000 HD
BRANCH  17  20
ATOM     20  C   UNL     1      48.740   6.126  17.882  0.00  0.00    +0.000 A 
ATOM     21  C   UNL     1      48.952   4.961  18.609  0.00  0.00    +0.000 A 
ATOM     22  S   UNL     1      48.601   5.111  20.269  0.00  0.00    +0.000 S 
ATOM     23  C   UNL     1      48.111   6.728  20.075  0.00  0.00    +0.000 A 
ATOM     24  N   UNL     1      47.651   7.447  21.131  0.00  0.00    +0.000 NA
ATOM     25  C   UNL     1      47.284   8.649  20.839  0.00  0.00    +0.000 A 
ATOM     26  N   UNL     1      47.350   9.203  19.585  0.00  0.00    +0.000 N 
ATOM     27  C   UNL     1      47.870   8.536  18.501  0.00  0.00    +0.000 A 
ATOM     28  O   UNL     1      48.025   9.099  17.420  0.00  0.00    +0.000 OA
ATOM     29  C   UNL     1      48.252   7.163  18.764  0.00  0.00    +0.000 A 
ATOM     30  H   UNL     1      47.073  10.160  19.432  0.00  0.00    +0.000 HD
ENDBRANCH  17  20
ENDBRANCH   1  16
TORSDOF 6
ENDMDL
