MODEL 1
REMARK VINA RESULT:    -7.553      0.000      0.000
REMARK INTER + INTRA:         -12.506
REMARK INTER:                 -11.527
REMARK INTRA:                  -0.979
REMARK UNBOUND:                -0.979
REMARK  Name = 
REMARK  10 active torsions:
REMARK  status: ('A' for Active; 'I' for Inactive)
REMARK    1  A    between atoms: C_1  and  C_2
REMARK    2  A    between atoms: C_2  and  C_3
REMARK    3  A    between atoms: C_3  and  N_4
REMARK    4  A    between atoms: C_3  and  C_20
REMARK    5  A    between atoms: N_4  and  C_5
REMARK    6  A    between atoms: C_5  and  C_6
REMARK    7  A    between atoms: C_9  and  C_10
REMARK    8  A    between atoms: C_10  and  N_11
REMARK    9  A    between atoms: N_11  and  C_12
REMARK   10  A    between atoms: C_12  and  C_13
REMARK                            x       y       z     vdW  Elec       q    Type
REMARK                         _______ _______ _______ _____ _____    ______ ____
ROOT
ATOM      1  C   UNL     1      48.035   6.283  14.650  0.00  0.00    +0.000 C 
ENDROOT
BRANCH   1   2
ATOM      2  C   UNL     1      47.141   5.636  13.620  0.00  0.00    +0.000 A 
ATOM      3  C   UNL     1      46.681   4.322  13.786  0.00  0.00    +0.000 A 
ATOM      4  C   UNL     1      45.823   3.751  12.847  0.00  0.00    +0.000 A 
ATOM      5  C   UNL     1      45.387   4.488  11.737  0.00  0.00    +0.000 A 
ATOM      6  C   UNL     1      45.841   5.802  11.574  0.00  0.00    +0.000 A 
ATOM      7  C   UNL     1      46.711   6.369  12.506  0.00  0.00    +0.000 A 
BRANCH   5   8
ATOM      8  C   UNL     1      44.457   3.868  10.727  0.00  0.00    +0.000 C 
BRANCH   8   9
ATOM      9  N   UNL     1      45.054   2.671  10.127  0.00  0.00    +0.000 NA
ATOM     10  H   UNL     1      44.621   1.857  10.563  0.00  0.00    +0.000 HD
BRANCH   9  11
ATOM     11  C   UNL     1      44.779   2.642   8.695  0.00  0.00    +0.000 C 
BRANCH  11  12
ATOM     12  C   UNL     1      46.026   2.393   7.934  0.00  0.00    +0.000 A 
ATOM     13  C   UNL     1      46.839   3.232   7.202  0.00  0.00    +0.000 A 
ATOM     14  C   UNL     1      47.874   2.407   6.728  0.00  0.00    +0.000 A 
ATOM     15  N   UNL     1      47.743   1.142   7.134  0.00  0.00    +0.000 NA
ATOM     16  N   UNL     1      46.622   1.163   7.875  0.00  0.00    +0.000 N 
ATOM     17  H   UNL     1      46.292   0.301   8.301  0.00  0.00    +0.000 HD
ENDBRANCH  11  12
ENDBRANCH   9  11
ENDBRANCH   8   9
ENDBRANCH   5   8
ENDBRANCH   1   2
BRANCH   1  18
ATOM     18  N   UNL     1      48.629   5.304  15.559  0.00  0.00    +0.000 NA
ATOM     19  H   UNL     1      48.016   4.493  15.621  0.00  0.00    +0.000 HD
BRANCH  18  20
ATOM     20  C   UNL     1      48.894   5.796  16.918  0.00  0.00    +0.000 C 
BRANCH  20  21
ATOM     21  C   UNL     1      50.208   5.190  17.413  0.00  0.00    +0.000 A 
ATOM     22  C   UNL     1      51.273   5.941  17.892  0.00  0.00    +0.000 A 
ATOM     23  S   UNL     1      52.650   5.017  18.279  0.00  0.00    +0.000 S 
ATOM     24  C   UNL     1      51.868   3.575  17.848  0.00  0.00    +0.000 A 
ATOM     25  N   UNL     1      52.523   2.382  17.933  0.00  0.00    +0.000 NA
ATOM     26  C   UNL     1      51.819   1.366  17.568  0.00  0.00    +0.000 A 
ATOM     27  N   UNL     1      50.518   1.427  17.133  0.00  0.00    +0.000 N 
ATOM     28  C   UNL     1      49.796   2.605  17.070  0.00  0.00    +0.000 A 
ATOM     29  O   UNL     1      48.604   2.600  16.780  0.00  0.00    +0.000 OA
ATOM     30  C   UNL     1      50.562   3.785  17.430  0.00  0.00    +0.000 A 
ATOM     31  H   UNL     1      50.014   0.585  16.899  0.00  0.00    +0.000 HD
ENDBRANCH  20  21
BRANCH  20  33
ATOM     32  C   UNL     1      48.102   7.873  18.273  0.00  0.00    +0.000 C 
ATOM     33  C   UNL     1      48.859   7.341  17.062  0.00  0.00    +0.000 C 
ENDBRANCH  20  33
ENDBRANCH  18  20
ENDBRANCH   1  18
TORSDOF 9
ENDMDL
MODEL 2
REMARK VINA RESULT:    -7.453      2.108      3.166
REMARK INTER + INTRA:         -12.353
REMARK INTER:                 -11.356
REMARK INTRA:                  -0.996
REMARK UNBOUND:                -0.979
REMARK  Name = 
REMARK  10 active torsions:
REMARK  status: ('A' for Active; 'I' for Inactive)
REMARK    1  A    between atoms: C_1  and  C_2
REMARK    2  A    between atoms: C_2  and  C_3
REMARK    3  A    between atoms: C_3  and  N_4
REMARK    4  A    between atoms: C_3  and  C_20
REMARK    5  A    between atoms: N_4  and  C_5
REMARK    6  A    between atoms: C_5  and  C_6
REMARK    7  A    between atoms: C_9  and  C_10
REMARK    8  A    between atoms: C_10  and  N_11
REMARK    9  A    between atoms: N_11  and  C_12
REMARK   10  A    between atoms: C_12  and  C_13
REMARK                            x       y       z     vdW  Elec       q    Type
REMARK                         _______ _______ _______ _____ _____    ______ ____
ROOT
ATOM      1  C   UNL     1      47.594   5.645  14.327  0.00  0.00    +0.000 C 
ENDROOT
BRANCH   1   2
ATOM      2  C   UNL     1      46.614   5.389  13.207  0.00  0.00    +0.000 A 
ATOM      3  C   UNL     1      46.528   6.257  12.110  0.00  0.00    +0.000 A 
ATOM      4  C   UNL     1      45.647   5.987  11.063  0.00  0.00    +0.000 A 
ATOM      5  C   UNL     1      44.852   4.832  11.080  0.00  0.00    +0.000 A 
ATOM      6  C   UNL     1      44.942   3.962  12.172  0.00  0.00    +0.000 A 
ATOM      7  C   UNL     1      45.813   4.239  13.227  0.00  0.00    +0.000 A 
BRANCH   5   8
ATOM      8  C   UNL     1      43.904   4.542   9.945  0.00  0.00    +0.000 C 
BRANCH   8   9
ATOM      9  N   UNL     1      44.635   4.253   8.708  0.00  0.00    +0.000 NA
ATOM     10  H   UNL     1      45.543   4.715   8.770  0.00  0.00    +0.000 HD
BRANCH   9  11
ATOM     11  C   UNL     1      44.844   2.815   8.578  0.00  0.00    +0.000 C 
BRANCH  11  12
ATOM     12  C   UNL     1      46.090   2.540   7.826  0.00  0.00    +0.000 A 
ATOM     13  C   UNL     1      46.922   3.360   7.095  0.00  0.00    +0.000 A 
ATOM     14  C   UNL     1      47.945   2.514   6.631  0.00  0.00    +0.000 A 
ATOM     15  N   UNL     1      47.790   1.255   7.043  0.00  0.00    +0.000 NA
ATOM     16  N   UNL     1      46.665   1.299   7.777  0.00  0.00    +0.000 N 
ATOM     17  H   UNL     1      46.317   0.446   8.205  0.00  0.00    +0.000 HD
ENDBRANCH  11  12
ENDBRANCH   9  11
ENDBRANCH   8   9
ENDBRANCH   5   8
ENDBRANCH   1   2
BRANCH   1  18
ATOM     18  N   UNL     1      47.119   5.121  15.606  0.00  0.00    +0.000 NA
ATOM     19  H   UNL     1      46.725   5.884  16.152  0.00  0.00    +0.000 HD
BRANCH  18  20
ATOM     20  C   UNL     1      48.139   4.442  16.418  0.00  0.00    +0.000 C 
BRANCH  20  21
ATOM     21  C   UNL     1      48.249   5.154  17.766  0.00  0.00    +0.000 A 
ATOM     22  C   UNL     1      47.158   5.465  18.567  0.00  0.00    +0.000 A 
ATOM     23  S   UNL     1      47.558   6.351  19.966  0.00  0.00    +0.000 S 
ATOM     24  C   UNL     1      49.207   6.328  19.571  0.00  0.00    +0.000 A 
ATOM     25  N   UNL     1      50.118   6.946  20.376  0.00  0.00    +0.000 NA
ATOM     26  C   UNL     1      51.335   6.862  19.958  0.00  0.00    +0.000 A 
ATOM     27  N   UNL     1      51.729   6.212  18.815  0.00  0.00    +0.000 N 
ATOM     28  C   UNL     1      50.851   5.534  17.988  0.00  0.00    +0.000 A 
ATOM     29  O   UNL     1      51.260   4.876  17.038  0.00  0.00    +0.000 OA
ATOM     30  C   UNL     1      49.462   5.638  18.395  0.00  0.00    +0.000 A 
ATOM     31  H   UNL     1      52.706   6.153  18.568  0.00  0.00    +0.000 HD
ENDBRANCH  20  21
BRANCH  20  33
ATOM     32  C   UNL     1      49.200   2.077  16.666  0.00  0.00    +0.000 C 
ATOM     33  C   UNL     1      47.929   2.911  16.568  0.00  0.00    +0.000 C 
ENDBRANCH  20  33
ENDBRANCH  18  20
ENDBRANCH   1  18
TORSDOF 9
ENDMDL
MODEL 3
REMARK VINA RESULT:    -7.387      2.167      2.671
REMARK INTER + INTRA:         -12.252
REMARK INTER:                 -11.072
REMARK INTRA:                  -1.180
REMARK UNBOUND:                -0.979
REMARK  Name = 
REMARK  10 active torsions:
REMARK  status: ('A' for Active; 'I' for Inactive)
REMARK    1  A    between atoms: C_1  and  C_2
REMARK    2  A    between atoms: C_2  and  C_3
REMARK    3  A    between atoms: C_3  and  N_4
REMARK    4  A    between atoms: C_3  and  C_20
REMARK    5  A    between atoms: N_4  and  C_5
REMARK    6  A    between atoms: C_5  and  C_6
REMARK    7  A    between atoms: C_9  and  C_10
REMARK    8  A    between atoms: C_10  and  N_11
REMARK    9  A    between atoms: N_11  and  C_12
REMARK   10  A    between atoms: C_12  and  C_13
REMARK                            x       y       z     vdW  Elec       q    Type
REMARK                         _______ _______ _______ _____ _____    ______ ____
ROOT
ATOM      1  C   UNL     1      47.563   7.084  13.132  0.00  0.00    +0.000 C 
ENDROOT
BRANCH   1   2
ATOM      2  C   UNL     1      46.686   6.042  12.479  0.00  0.00    +0.000 A 
ATOM      3  C   UNL     1      46.310   4.881  13.168  0.00  0.00    +0.000 A 
ATOM      4  C   UNL     1      45.466   3.947  12.568  0.00  0.00    +0.000 A 
ATOM      5  C   UNL     1      44.962   4.165  11.278  0.00  0.00    +0.000 A 
ATOM      6  C   UNL     1      45.333   5.327  10.592  0.00  0.00    +0.000 A 
ATOM      7  C   UNL     1      46.188   6.256  11.187  0.00  0.00    +0.000 A 
BRANCH   5   8
ATOM      8  C   UNL     1      44.049   3.154  10.634  0.00  0.00    +0.000 C 
BRANCH   8   9
ATOM      9  N   UNL     1      44.317   3.042   9.197  0.00  0.00    +0.000 NA
ATOM     10  H   UNL     1      44.955   3.797   8.942  0.00  0.00    +0.000 HD
BRANCH   9  11
ATOM     11  C   UNL     1      44.956   1.763   8.909  0.00  0.00    +0.000 C 
BRANCH  11  12
ATOM     12  C   UNL     1      46.120   1.958   8.013  0.00  0.00    +0.000 A 
ATOM     13  C   UNL     1      46.616   3.079   7.381  0.00  0.00    +0.000 A 
ATOM     14  C   UNL     1      47.746   2.625   6.678  0.00  0.00    +0.000 A 
ATOM     15  N   UNL     1      47.967   1.321   6.856  0.00  0.00    +0.000 NA
ATOM     16  N   UNL     1      46.974   0.942   7.680  0.00  0.00    +0.000 N 
ATOM     17  H   UNL     1      46.911  -0.030   7.967  0.00  0.00    +0.000 HD
ENDBRANCH  11  12
ENDBRANCH   9  11
ENDBRANCH   8   9
ENDBRANCH   5   8
ENDBRANCH   1   2
BRANCH   1  18
ATOM     18  N   UNL     1      47.623   6.924  14.584  0.00  0.00    +0.000 NA
ATOM     19  H   UNL     1      46.736   7.219  14.988  0.00  0.00    +0.000 HD
BRANCH  18  20
ATOM     20  C   UNL     1      48.709   7.659  15.247  0.00  0.00    +0.000 C 
BRANCH  20  21
ATOM     21  C   UNL     1      48.552   7.508  16.760  0.00  0.00    +0.000 A 
ATOM     22  C   UNL     1      48.428   8.579  17.635  0.00  0.00    +0.000 A 
ATOM     23  S   UNL     1      48.372   8.128  19.276  0.00  0.00    +0.000 S 
ATOM     24  C   UNL     1      48.482   6.482  18.881  0.00  0.00    +0.000 A 
ATOM     25  N   UNL     1      48.503   5.536  19.862  0.00  0.00    +0.000 NA
ATOM     26  C   UNL     1      48.598   4.326  19.428  0.00  0.00    +0.000 A 
ATOM     27  N   UNL     1      48.666   3.971  18.103  0.00  0.00    +0.000 N 
ATOM     28  C   UNL     1      48.605   4.888  17.069  0.00  0.00    +0.000 A 
ATOM     29  O   UNL     1      48.560   4.518  15.901  0.00  0.00    +0.000 OA
ATOM     30  C   UNL     1      48.542   6.269  17.512  0.00  0.00    +0.000 A 
ATOM     31  H   UNL     1      48.701   2.999  17.834  0.00  0.00    +0.000 HD
ENDBRANCH  20  21
BRANCH  20  33
ATOM     32  C   UNL     1      51.281   7.784  15.624  0.00  0.00    +0.000 C 
ATOM     33  C   UNL     1      50.133   7.288  14.755  0.00  0.00    +0.000 C 
ENDBRANCH  20  33
ENDBRANCH  18  20
ENDBRANCH   1  18
TORSDOF 9
ENDMDL
MODEL 4
REMARK VINA RESULT:    -7.357      2.547      3.493
REMARK INTER + INTRA:         -12.206
REMARK INTER:                 -11.190
REMARK INTRA:                  -1.016
REMARK UNBOUND:                -0.979
REMARK  Name = 
REMARK  10 active torsions:
REMARK  status: ('A' for Active; 'I' for Inactive)
REMARK    1  A    between atoms: C_1  and  C_2
REMARK    2  A    between atoms: C_2  and  C_3
REMARK    3  A    between atoms: C_3  and  N_4
REMARK    4  A    between atoms: C_3  and  C_20
REMARK    5  A    between atoms: N_4  and  C_5
REMARK    6  A    between atoms: C_5  and  C_6
REMARK    7  A    between atoms: C_9  and  C_10
REMARK    8  A    between atoms: C_10  and  N_11
REMARK    9  A    between atoms: N_11  and  C_12
REMARK   10  A    between atoms: C_12  and  C_13
REMARK                            x       y       z     vdW  Elec       q    Type
REMARK                         _______ _______ _______ _____ _____    ______ ____
ROOT
ATOM      1  C   UNL     1      47.786   6.447  13.469  0.00  0.00    +0.000 C 
ENDROOT
BRANCH   1   2
ATOM      2  C   UNL     1      46.729   5.743  12.652  0.00  0.00    +0.000 A 
ATOM      3  C   UNL     1      46.355   6.221  11.389  0.00  0.00    +0.000 A 
ATOM      4  C   UNL     1      45.407   5.537  10.628  0.00  0.00    +0.000 A 
ATOM      5  C   UNL     1      44.832   4.350  11.103  0.00  0.00    +0.000 A 
ATOM      6  C   UNL     1      45.209   3.869  12.362  0.00  0.00    +0.000 A 
ATOM      7  C   UNL     1      46.147   4.560  13.130  0.00  0.00    +0.000 A 
BRANCH   5   8
ATOM      8  C   UNL     1      43.810   3.613  10.276  0.00  0.00    +0.000 C 
BRANCH   8   9
ATOM      9  N   UNL     1      44.339   3.294   8.947  0.00  0.00    +0.000 NA
ATOM     10  H   UNL     1      44.941   4.067   8.660  0.00  0.00    +0.000 HD
BRANCH   9  11
ATOM     11  C   UNL     1      45.133   2.072   9.008  0.00  0.00    +0.000 C 
BRANCH  11  12
ATOM     12  C   UNL     1      46.235   2.123   8.019  0.00  0.00    +0.000 A 
ATOM     13  C   UNL     1      46.788   3.169   7.312  0.00  0.00    +0.000 A 
ATOM     14  C   UNL     1      47.807   2.584   6.541  0.00  0.00    +0.000 A 
ATOM     15  N   UNL     1      47.910   1.269   6.746  0.00  0.00    +0.000 NA
ATOM     16  N   UNL     1      46.954   1.016   7.657  0.00  0.00    +0.000 N 
ATOM     17  H   UNL     1      46.817   0.064   7.982  0.00  0.00    +0.000 HD
ENDBRANCH  11  12
ENDBRANCH   9  11
ENDBRANCH   8   9
ENDBRANCH   5   8
ENDBRANCH   1   2
BRANCH   1  18
ATOM     18  N   UNL     1      47.989   5.815  14.771  0.00  0.00    +0.000 NA
ATOM     19  H   UNL     1      47.086   5.530  15.147  0.00  0.00    +0.000 HD
BRANCH  18  20
ATOM     20  C   UNL     1      48.670   6.651  15.771  0.00  0.00    +0.000 C 
BRANCH  20  21
ATOM     21  C   UNL     1      48.643   5.928  17.117  0.00  0.00    +0.000 A 
ATOM     22  C   UNL     1      48.948   4.583  17.278  0.00  0.00    +0.000 A 
ATOM     23  S   UNL     1      48.739   4.013  18.869  0.00  0.00    +0.000 S 
ATOM     24  C   UNL     1      48.258   5.547  19.411  0.00  0.00    +0.000 A 
ATOM     25  N   UNL     1      47.911   5.741  20.715  0.00  0.00    +0.000 NA
ATOM     26  C   UNL     1      47.558   6.949  20.993  0.00  0.00    +0.000 A 
ATOM     27  N   UNL     1      47.526   7.985  20.092  0.00  0.00    +0.000 N 
ATOM     28  C   UNL     1      47.909   7.850  18.770  0.00  0.00    +0.000 A 
ATOM     29  O   UNL     1      47.969   8.825  18.028  0.00  0.00    +0.000 OA
ATOM     30  C   UNL     1      48.274   6.495  18.399  0.00  0.00    +0.000 A 
ATOM     31  H   UNL     1      47.275   8.916  20.389  0.00  0.00    +0.000 HD
ENDBRANCH  20  21
BRANCH  20  33
ATOM     32  C   UNL     1      50.273   8.600  15.133  0.00  0.00    +0.000 C 
ATOM     33  C   UNL     1      50.098   7.104  15.365  0.00  0.00    +0.000 C 
ENDBRANCH  20  33
ENDBRANCH  18  20
ENDBRANCH   1  18
TORSDOF 9
ENDMDL
MODEL 5
REMARK VINA RESULT:    -7.015      2.577      3.497
REMARK INTER + INTRA:         -11.685
REMARK INTER:                 -10.505
REMARK INTRA:                  -1.180
REMARK UNBOUND:                -0.979
REMARK  Name = 
REMARK  10 active torsions:
REMARK  status: ('A' for Active; 'I' for Inactive)
REMARK    1  A    between atoms: C_1  and  C_2
REMARK    2  A    between atoms: C_2  and  C_3
REMARK    3  A    between atoms: C_3  and  N_4
REMARK    4  A    between atoms: C_3  and  C_20
REMARK    5  A    between atoms: N_4  and  C_5
REMARK    6  A    between atoms: C_5  and  C_6
REMARK    7  A    between atoms: C_9  and  C_10
REMARK    8  A    between atoms: C_10  and  N_11
REMARK    9  A    between atoms: N_11  and  C_12
REMARK   10  A    between atoms: C_12  and  C_13
REMARK                            x       y       z     vdW  Elec       q    Type
REMARK                         _______ _______ _______ _____ _____    ______ ____
ROOT
ATOM      1  C   UNL     1      48.568   6.886  13.251  0.00  0.00    +0.000 C 
ENDROOT
BRANCH   1   2
ATOM      2  C   UNL     1      47.158   6.359  13.139  0.00  0.00    +0.000 A 
ATOM      3  C   UNL     1      46.797   5.134  13.717  0.00  0.00    +0.000 A 
ATOM      4  C   UNL     1      45.481   4.678  13.640  0.00  0.00    +0.000 A 
ATOM      5  C   UNL     1      44.495   5.448  13.008  0.00  0.00    +0.000 A 
ATOM      6  C   UNL     1      44.853   6.674  12.436  0.00  0.00    +0.000 A 
ATOM      7  C   UNL     1      46.173   7.123  12.499  0.00  0.00    +0.000 A 
BRANCH   5   8
ATOM      8  C   UNL     1      43.073   4.953  12.930  0.00  0.00    +0.000 C 
BRANCH   8   9
ATOM      9  N   UNL     1      42.746   4.502  11.574  0.00  0.00    +0.000 NA
ATOM     10  H   UNL     1      43.053   5.226  10.924  0.00  0.00    +0.000 HD
BRANCH   9  11
ATOM     11  C   UNL     1      43.461   3.265  11.276  0.00  0.00    +0.000 C 
BRANCH  11  12
ATOM     12  C   UNL     1      44.210   3.396  10.004  0.00  0.00    +0.000 A 
ATOM     13  C   UNL     1      44.667   2.454   9.107  0.00  0.00    +0.000 A 
ATOM     14  C   UNL     1      45.297   3.199   8.094  0.00  0.00    +0.000 A 
ATOM     15  N   UNL     1      45.237   4.513   8.316  0.00  0.00    +0.000 NA
ATOM     16  N   UNL     1      44.561   4.607   9.474  0.00  0.00    +0.000 N 
ATOM     17  H   UNL     1      44.386   5.525   9.875  0.00  0.00    +0.000 HD
ENDBRANCH  11  12
ENDBRANCH   9  11
ENDBRANCH   8   9
ENDBRANCH   5   8
ENDBRANCH   1   2
BRANCH   1  18
ATOM     18  N   UNL     1      49.216   6.468  14.493  0.00  0.00    +0.000 NA
ATOM     19  H   UNL     1      48.541   5.970  15.070  0.00  0.00    +0.000 HD
BRANCH  18  20
ATOM     20  C   UNL     1      49.798   7.558  15.290  0.00  0.00    +0.000 C 
BRANCH  20  21
ATOM     21  C   UNL     1      49.029   7.670  16.606  0.00  0.00    +0.000 A 
ATOM     22  C   UNL     1      48.422   8.836  17.050  0.00  0.00    +0.000 A 
ATOM     23  S   UNL     1      47.723   8.706  18.597  0.00  0.00    +0.000 S 
ATOM     24  C   UNL     1      48.181   7.078  18.724  0.00  0.00    +0.000 A 
ATOM     25  N   UNL     1      47.891   6.364  19.849  0.00  0.00    +0.000 NA
ATOM     26  C   UNL     1      48.301   5.143  19.820  0.00  0.00    +0.000 A 
ATOM     27  N   UNL     1      48.968   4.563  18.769  0.00  0.00    +0.000 N 
ATOM     28  C   UNL     1      49.249   5.230  17.590  0.00  0.00    +0.000 A 
ATOM     29  O   UNL     1      49.749   4.643  16.637  0.00  0.00    +0.000 OA
ATOM     30  C   UNL     1      48.844   6.624  17.593  0.00  0.00    +0.000 A 
ATOM     31  H   UNL     1      49.227   3.589  18.800  0.00  0.00    +0.000 HD
ENDBRANCH  20  21
BRANCH  20  33
ATOM     32  C   UNL     1      52.188   8.266  14.540  0.00  0.00    +0.000 C 
ATOM     33  C   UNL     1      51.332   7.453  15.502  0.00  0.00    +0.000 C 
ENDBRANCH  20  33
ENDBRANCH  18  20
ENDBRANCH   1  18
TORSDOF 9
ENDMDL
MODEL 6
REMARK VINA RESULT:    -6.845      3.654      8.621
REMARK INTER + INTRA:         -11.425
REMARK INTER:                  -9.975
REMARK INTRA:                  -1.450
REMARK UNBOUND:                -0.979
REMARK  Name = 
REMARK  10 active torsions:
REMARK  status: ('A' for Active; 'I' for Inactive)
REMARK    1  A    between atoms: C_1  and  C_2
REMARK    2  A    between atoms: C_2  and  C_3
REMARK    3  A    between atoms: C_3  and  N_4
REMARK    4  A    between atoms: C_3  and  C_20
REMARK    5  A    between atoms: N_4  and  C_5
REMARK    6  A    between atoms: C_5  and  C_6
REMARK    7  A    between atoms: C_9  and  C_10
REMARK    8  A    between atoms: C_10  and  N_11
REMARK    9  A    between atoms: N_11  and  C_12
REMARK   10  A    between atoms: C_12  and  C_13
REMARK                            x       y       z     vdW  Elec       q    Type
REMARK                         _______ _______ _______ _____ _____    ______ ____
ROOT
ATOM      1  C   UNL     1      48.001   8.114  12.079  0.00  0.00    +0.000 C 
ENDROOT
BRANCH   1   2
ATOM      2  C   UNL     1      48.501   8.136  13.503  0.00  0.00    +0.000 A 
ATOM      3  C   UNL     1      47.850   8.893  14.486  0.00  0.00    +0.000 A 
ATOM      4  C   UNL     1      48.298   8.872  15.806  0.00  0.00    +0.000 A 
ATOM      5  C   UNL     1      49.392   8.076  16.176  0.00  0.00    +0.000 A 
ATOM      6  C   UNL     1      50.039   7.315  15.196  0.00  0.00    +0.000 A 
ATOM      7  C   UNL     1      49.600   7.347  13.872  0.00  0.00    +0.000 A 
BRANCH   5   8
ATOM      8  C   UNL     1      49.872   8.054  17.604  0.00  0.00    +0.000 C 
BRANCH   8   9
ATOM      9  N   UNL     1      49.817   6.698  18.157  0.00  0.00    +0.000 NA
ATOM     10  H   UNL     1      50.356   6.694  19.024  0.00  0.00    +0.000 HD
BRANCH   9  11
ATOM     11  C   UNL     1      48.436   6.338  18.457  0.00  0.00    +0.000 C 
BRANCH  11  12
ATOM     12  C   UNL     1      48.106   5.019  17.867  0.00  0.00    +0.000 A 
ATOM     13  C   UNL     1      48.876   4.096  17.192  0.00  0.00    +0.000 A 
ATOM     14  C   UNL     1      47.995   3.042  16.893  0.00  0.00    +0.000 A 
ATOM     15  N   UNL     1      46.761   3.264  17.352  0.00  0.00    +0.000 NA
ATOM     16  N   UNL     1      46.858   4.464  17.950  0.00  0.00    +0.000 N 
ATOM     17  H   UNL     1      46.034   4.873  18.381  0.00  0.00    +0.000 HD
ENDBRANCH  11  12
ENDBRANCH   9  11
ENDBRANCH   8   9
ENDBRANCH   5   8
ENDBRANCH   1   2
BRANCH   1  18
ATOM     18  N   UNL     1      47.168   6.944  11.805  0.00  0.00    +0.000 NA
ATOM     19  H   UNL     1      47.600   6.393  11.066  0.00  0.00    +0.000 HD
BRANCH  18  20
ATOM     20  C   UNL     1      45.782   7.243  11.417  0.00  0.00    +0.000 C 
BRANCH  20  21
ATOM     21  C   UNL     1      44.936   5.983  11.601  0.00  0.00    +0.000 A 
ATOM     22  C   UNL     1      44.147   5.739  12.717  0.00  0.00    +0.000 A 
ATOM     23  S   UNL     1      43.393   4.212  12.708  0.00  0.00    +0.000 S 
ATOM     24  C   UNL     1      44.069   3.829  11.200  0.00  0.00    +0.000 A 
ATOM     25  N   UNL     1      43.823   2.620  10.620  0.00  0.00    +0.000 NA
ATOM     26  C   UNL     1      44.402   2.453   9.481  0.00  0.00    +0.000 A 
ATOM     27  N   UNL     1      45.199   3.383   8.862  0.00  0.00    +0.000 N 
ATOM     28  C   UNL     1      45.445   4.639   9.387  0.00  0.00    +0.000 A 
ATOM     29  O   UNL     1      46.073   5.478   8.750  0.00  0.00    +0.000 OA
ATOM     30  C   UNL     1      44.848   4.858  10.692  0.00  0.00    +0.000 A 
ATOM     31  H   UNL     1      45.591   3.199   7.951  0.00  0.00    +0.000 HD
ENDBRANCH  20  21
BRANCH  20  33
ATOM     32  C   UNL     1      44.506   9.503  11.206  0.00  0.00    +0.000 C 
ATOM     33  C   UNL     1      45.168   8.482  12.123  0.00  0.00    +0.000 C 
ENDBRANCH  20  33
ENDBRANCH  18  20
ENDBRANCH   1  18
TORSDOF 9
ENDMDL
MODEL 7
REMARK VINA RESULT:    -6.746      2.275      3.223
REMARK INTER + INTRA:         -11.274
REMARK INTER:                 -10.096
REMARK INTRA:                  -1.178
REMARK UNBOUND:                -0.979
REMARK  Name = 
REMARK  10 active torsions:
REMARK  status: ('A' for Active; 'I' for Inactive)
REMARK    1  A    between atoms: C_1  and  C_2
REMARK    2  A    between atoms: C_2  and  C_3
REMARK    3  A    between atoms: C_3  and  N_4
REMARK    4  A    between atoms: C_3  and  C_20
REMARK    5  A    between atoms: N_4  and  C_5
REMARK    6  A    between atoms: C_5  and  C_6
REMARK    7  A    between atoms: C_9  and  C_10
REMARK    8  A    between atoms: C_10  and  N_11
REMARK    9  A    between atoms: N_11  and  C_12
REMARK   10  A    between atoms: C_12  and  C_13
REMARK                            x       y       z     vdW  Elec       q    Type
REMARK                         _______ _______ _______ _____ _____    ______ ____
ROOT
ATOM      1  C   UNL     1      48.478   6.676  14.678  0.00  0.00    +0.000 C 
ENDROOT
BRANCH   1   2
ATOM      2  C   UNL     1      47.520   6.187  13.618  0.00  0.00    +0.000 A 
ATOM      3  C   UNL     1      46.696   5.077  13.847  0.00  0.00    +0.000 A 
ATOM      4  C   UNL     1      45.787   4.661  12.874  0.00  0.00    +0.000 A 
ATOM      5  C   UNL     1      45.665   5.360  11.666  0.00  0.00    +0.000 A 
ATOM      6  C   UNL     1      46.484   6.473  11.439  0.00  0.00    +0.000 A 
ATOM      7  C   UNL     1      47.403   6.880  12.406  0.00  0.00    +0.000 A 
BRANCH   5   8
ATOM      8  C   UNL     1      44.680   4.908  10.619  0.00  0.00    +0.000 C 
BRANCH   8   9
ATOM      9  N   UNL     1      45.276   4.952   9.281  0.00  0.00    +0.000 NA
ATOM     10  H   UNL     1      46.267   4.724   9.375  0.00  0.00    +0.000 HD
BRANCH   9  11
ATOM     11  C   UNL     1      44.643   3.958   8.421  0.00  0.00    +0.000 C 
BRANCH  11  12
ATOM     12  C   UNL     1      45.618   2.914   8.032  0.00  0.00    +0.000 A 
ATOM     13  C   UNL     1      46.705   2.942   7.183  0.00  0.00    +0.000 A 
ATOM     14  C   UNL     1      47.237   1.642   7.237  0.00  0.00    +0.000 A 
ATOM     15  N   UNL     1      46.556   0.847   8.065  0.00  0.00    +0.000 NA
ATOM     16  N   UNL     1      45.587   1.645   8.544  0.00  0.00    +0.000 N 
ATOM     17  H   UNL     1      44.912   1.268   9.203  0.00  0.00    +0.000 HD
ENDBRANCH  11  12
ENDBRANCH   9  11
ENDBRANCH   8   9
ENDBRANCH   5   8
ENDBRANCH   1   2
BRANCH   1  18
ATOM     18  N   UNL     1      48.154   6.146  16.002  0.00  0.00    +0.000 NA
ATOM     19  H   UNL     1      47.994   6.922  16.641  0.00  0.00    +0.000 HD
BRANCH  18  20
ATOM     20  C   UNL     1      49.173   5.261  16.585  0.00  0.00    +0.000 C 
BRANCH  20  21
ATOM     21  C   UNL     1      50.183   6.114  17.352  0.00  0.00    +0.000 A 
ATOM     22  C   UNL     1      51.540   6.154  17.061  0.00  0.00    +0.000 A 
ATOM     23  S   UNL     1      52.450   7.107  18.140  0.00  0.00    +0.000 S 
ATOM     24  C   UNL     1      51.063   7.526  19.022  0.00  0.00    +0.000 A 
ATOM     25  N   UNL     1      51.158   8.332  20.117  0.00  0.00    +0.000 NA
ATOM     26  C   UNL     1      50.033   8.565  20.701  0.00  0.00    +0.000 A 
ATOM     27  N   UNL     1      48.818   8.076  20.289  0.00  0.00    +0.000 N 
ATOM     28  C   UNL     1      48.662   7.291  19.160  0.00  0.00    +0.000 A 
ATOM     29  O   UNL     1      47.547   6.966  18.768  0.00  0.00    +0.000 OA
ATOM     30  C   UNL     1      49.910   6.964  18.494  0.00  0.00    +0.000 A 
ATOM     31  H   UNL     1      47.971   8.331  20.773  0.00  0.00    +0.000 HD
ENDBRANCH  20  21
BRANCH  20  33
ATOM     32  C   UNL     1      47.112   3.829  17.276  0.00  0.00    +0.000 C 
ATOM     33  C   UNL     1      48.603   4.098  17.439  0.00  0.00    +0.000 C 
ENDBRANCH  20  33
ENDBRANCH  18  20
ENDBRANCH   1  18
TORSDOF 9
ENDMDL
MODEL 8
REMARK VINA RESULT:    -6.720      2.027      2.616
REMARK INTER + INTRA:         -11.234
REMARK INTER:                  -9.953
REMARK INTRA:                  -1.281
REMARK UNBOUND:                -0.979
REMARK  Name = 
REMARK  10 active torsions:
REMARK  status: ('A' for Active; 'I' for Inactive)
REMARK    1  A    between atoms: C_1  and  C_2
REMARK    2  A    between atoms: C_2  and  C_3
REMARK    3  A    between atoms: C_3  and  N_4
REMARK    4  A    between atoms: C_3  and  C_20
REMARK    5  A    between atoms: N_4  and  C_5
REMARK    6  A    between atoms: C_5  and  C_6
REMARK    7  A    between atoms: C_9  and  C_10
REMARK    8  A    between atoms: C_10  and  N_11
REMARK    9  A    between atoms: N_11  and  C_12
REMARK   10  A    between atoms: C_12  and  C_13
REMARK                            x       y       z     vdW  Elec       q    Type
REMARK                         _______ _______ _______ _____ _____    ______ ____
ROOT
ATOM      1  C   UNL     1      48.705   7.185  13.160  0.00  0.00    +0.000 C 
ENDROOT
BRANCH   1   2
ATOM      2  C   UNL     1      47.375   6.475  13.087  0.00  0.00    +0.000 A 
ATOM      3  C   UNL     1      47.281   5.092  13.293  0.00  0.00    +0.000 A 
ATOM      4  C   UNL     1      46.041   4.456  13.262  0.00  0.00    +0.000 A 
ATOM      5  C   UNL     1      44.867   5.191  13.050  0.00  0.00    +0.000 A 
ATOM      6  C   UNL     1      44.958   6.574  12.850  0.00  0.00    +0.000 A 
ATOM      7  C   UNL     1      46.201   7.208  12.866  0.00  0.00    +0.000 A 
BRANCH   5   8
ATOM      8  C   UNL     1      43.528   4.500  13.021  0.00  0.00    +0.000 C 
BRANCH   8   9
ATOM      9  N   UNL     1      43.474   3.503  11.948  0.00  0.00    +0.000 NA
ATOM     10  H   UNL     1      42.628   2.947  12.084  0.00  0.00    +0.000 HD
BRANCH   9  11
ATOM     11  C   UNL     1      43.399   4.169  10.653  0.00  0.00    +0.000 C 
BRANCH  11  12
ATOM     12  C   UNL     1      44.308   3.515   9.683  0.00  0.00    +0.000 A 
ATOM     13  C   UNL     1      44.987   4.004   8.586  0.00  0.00    +0.000 A 
ATOM     14  C   UNL     1      45.691   2.898   8.078  0.00  0.00    +0.000 A 
ATOM     15  N   UNL     1      45.492   1.792   8.797  0.00  0.00    +0.000 NA
ATOM     16  N   UNL     1      44.659   2.196   9.772  0.00  0.00    +0.000 N 
ATOM     17  H   UNL     1      44.340   1.523  10.464  0.00  0.00    +0.000 HD
ENDBRANCH  11  12
ENDBRANCH   9  11
ENDBRANCH   8   9
ENDBRANCH   5   8
ENDBRANCH   1   2
BRANCH   1  18
ATOM     18  N   UNL     1      49.475   6.794  14.340  0.00  0.00    +0.000 NA
ATOM     19  H   UNL     1      49.741   5.815  14.254  0.00  0.00    +0.000 HD
BRANCH  18  20
ATOM     20  C   UNL     1      48.784   6.980  15.624  0.00  0.00    +0.000 C 
BRANCH  20  21
ATOM     21  C   UNL     1      49.148   5.820  16.551  0.00  0.00    +0.000 A 
ATOM     22  C   UNL     1      48.217   4.949  17.100  0.00  0.00    +0.000 A 
ATOM     23  S   UNL     1      48.886   3.813  18.178  0.00  0.00    +0.000 S 
ATOM     24  C   UNL     1      50.449   4.423  17.932  0.00  0.00    +0.000 A 
ATOM     25  N   UNL     1      51.513   3.885  18.594  0.00  0.00    +0.000 NA
ATOM     26  C   UNL     1      52.642   4.445  18.324  0.00  0.00    +0.000 A 
ATOM     27  N   UNL     1      52.811   5.488  17.447  0.00  0.00    +0.000 N 
ATOM     28  C   UNL     1      51.773   6.040  16.719  0.00  0.00    +0.000 A 
ATOM     29  O   UNL     1      51.986   6.896  15.867  0.00  0.00    +0.000 OA
ATOM     30  C   UNL     1      50.473   5.470  17.023  0.00  0.00    +0.000 A 
ATOM     31  H   UNL     1      53.732   5.853  17.255  0.00  0.00    +0.000 HD
ENDBRANCH  20  21
BRANCH  20  33
ATOM     32  C   UNL     1      48.396   8.551  17.663  0.00  0.00    +0.000 C 
ATOM     33  C   UNL     1      49.015   8.366  16.284  0.00  0.00    +0.000 C 
ENDBRANCH  20  33
ENDBRANCH  18  20
ENDBRANCH   1  18
TORSDOF 9
ENDMDL
MODEL 9
REMARK VINA RESULT:    -6.566      3.781      8.287
REMARK INTER + INTRA:         -10.999
REMARK INTER:                  -9.506
REMARK INTRA:                  -1.493
REMARK UNBOUND:                -0.979
REMARK  Name = 
REMARK  10 active torsions:
REMARK  status: ('A' for Active; 'I' for Inactive)
REMARK    1  A    between atoms: C_1  and  C_2
REMARK    2  A    between atoms: C_2  and  C_3
REMARK    3  A    between atoms: C_3  and  N_4
REMARK    4  A    between atoms: C_3  and  C_20
REMARK    5  A    between atoms: N_4  and  C_5
REMARK    6  A    between atoms: C_5  and  C_6
REMARK    7  A    between atoms: C_9  and  C_10
REMARK    8  A    between atoms: C_10  and  N_11
REMARK    9  A    between atoms: N_11  and  C_12
REMARK   10  A    between atoms: C_12  and  C_13
REMARK                            x       y       z     vdW  Elec       q    Type
REMARK                         _______ _______ _______ _____ _____    ______ ____
ROOT
ATOM      1  C   UNL     1      48.487   9.053  14.839  0.00  0.00    +0.000 C 
ENDROOT
BRANCH   1   2
ATOM      2  C   UNL     1      48.722   8.507  16.228  0.00  0.00    +0.000 A 
ATOM      3  C   UNL     1      47.892   8.870  17.297  0.00  0.00    +0.000 A 
ATOM      4  C   UNL     1      48.096   8.326  18.565  0.00  0.00    +0.000 A 
ATOM      5  C   UNL     1      49.116   7.390  18.784  0.00  0.00    +0.000 A 
ATOM      6  C   UNL     1      49.942   7.023  17.716  0.00  0.00    +0.000 A 
ATOM      7  C   UNL     1      49.748   7.577  16.450  0.00  0.00    +0.000 A 
BRANCH   5   8
ATOM      8  C   UNL     1      49.331   6.803  20.156  0.00  0.00    +0.000 C 
BRANCH   8   9
ATOM      9  N   UNL     1      48.387   5.712  20.414  0.00  0.00    +0.000 NA
ATOM     10  H   UNL     1      47.583   5.846  19.800  0.00  0.00    +0.000 HD
BRANCH   9  11
ATOM     11  C   UNL     1      49.011   4.430  20.105  0.00  0.00    +0.000 C 
BRANCH  11  12
ATOM     12  C   UNL     1      48.454   3.874  18.850  0.00  0.00    +0.000 A 
ATOM     13  C   UNL     1      48.982   3.010  17.914  0.00  0.00    +0.000 A 
ATOM     14  C   UNL     1      47.966   2.855  16.954  0.00  0.00    +0.000 A 
ATOM     15  N   UNL     1      46.869   3.552  17.257  0.00  0.00    +0.000 NA
ATOM     16  N   UNL     1      47.186   4.151  18.417  0.00  0.00    +0.000 N 
ATOM     17  H   UNL     1      46.507   4.761  18.863  0.00  0.00    +0.000 HD
ENDBRANCH  11  12
ENDBRANCH   9  11
ENDBRANCH   8   9
ENDBRANCH   5   8
ENDBRANCH   1   2
BRANCH   1  18
ATOM     18  N   UNL     1      47.347   8.417  14.182  0.00  0.00    +0.000 NA
ATOM     19  H   UNL     1      46.575   8.354  14.843  0.00  0.00    +0.000 HD
BRANCH  18  20
ATOM     20  C   UNL     1      47.609   7.076  13.640  0.00  0.00    +0.000 C 
BRANCH  20  21
ATOM     21  C   UNL     1      46.391   6.626  12.833  0.00  0.00    +0.000 A 
ATOM     22  C   UNL     1      45.538   7.497  12.170  0.00  0.00    +0.000 A 
ATOM     23  S   UNL     1      44.204   6.734  11.435  0.00  0.00    +0.000 S 
ATOM     24  C   UNL     1      44.730   5.206  11.951  0.00  0.00    +0.000 A 
ATOM     25  N   UNL     1      44.003   4.090  11.657  0.00  0.00    +0.000 NA
ATOM     26  C   UNL     1      44.507   2.996  12.113  0.00  0.00    +0.000 A 
ATOM     27  N   UNL     1      45.675   2.908  12.830  0.00  0.00    +0.000 N 
ATOM     28  C   UNL     1      46.471   4.003  13.116  0.00  0.00    +0.000 A 
ATOM     29  O   UNL     1      47.560   3.865  13.664  0.00  0.00    +0.000 OA
ATOM     30  C   UNL     1      45.920   5.265  12.660  0.00  0.00    +0.000 A 
ATOM     31  H   UNL     1      46.031   2.011  13.124  0.00  0.00    +0.000 HD
ENDBRANCH  20  21
BRANCH  20  33
ATOM     32  C   UNL     1      48.986   7.723  11.527  0.00  0.00    +0.000 C 
ATOM     33  C   UNL     1      48.933   6.952  12.840  0.00  0.00    +0.000 C 
ENDBRANCH  20  33
ENDBRANCH  18  20
ENDBRANCH   1  18
TORSDOF 9
ENDMDL
