MODEL 1
REMARK VINA RESULT:    -8.007      0.000      0.000
REMARK INTER + INTRA:         -10.969
REMARK INTER:                 -10.348
REMARK INTRA:                  -0.622
REMARK UNBOUND:                -0.622
REMARK  Name = 
REMARK  7 active torsions:
REMARK  status: ('A' for Active; 'I' for Inactive)
REMARK    1  A    between atoms: C_1  and  O_2
REMARK    2  A    between atoms: O_2  and  C_3
REMARK    3  A    between atoms: C_6  and  C_7
REMARK    4  A    between atoms: C_7  and  C_8
REMARK    5  A    between atoms: C_7  and  N_9
REMARK    6  A    between atoms: N_9  and  C_10
REMARK    7  A    between atoms: C_13  and  C_14
REMARK                            x       y       z     vdW  Elec       q    Type
REMARK                         _______ _______ _______ _____ _____    ______ ____
ROOT
ATOM      1  N   UNL     1      43.753   4.781   9.914  0.00  0.00    +0.000 N 
ATOM      2  H   UNL     1      43.807   5.759   9.629  0.00  0.00    +0.000 HD
ENDROOT
BRANCH   1   3
ATOM      3  C   UNL     1      44.699   4.011   9.245  0.00  0.00    +0.000 A 
ATOM      4  C   UNL     1      44.803   2.630   9.268  0.00  0.00    +0.000 A 
ATOM      5  N   UNL     1      45.673   1.896   8.534  0.00  0.00    +0.000 NA
ATOM      6  C   UNL     1      46.477   2.602   7.704  0.00  0.00    +0.000 A 
ATOM      7  N   UNL     1      46.467   3.938   7.560  0.00  0.00    +0.000 NA
ATOM      8  C   UNL     1      45.565   4.595   8.323  0.00  0.00    +0.000 A 
BRANCH   6   9
ATOM      9  C   UNL     1      47.440   1.805   6.853  0.00  0.00    +0.000 C 
ATOM     10  N   UNL     1      48.538   2.500   6.395  0.00  0.00    +0.000 N 
ATOM     11  O   UNL     1      47.297   0.621   6.573  0.00  0.00    +0.000 OA
ATOM     12  H   UNL     1      48.668   3.470   6.652  0.00  0.00    +0.000 HD
ATOM     13  H   UNL     1      49.234   2.012   5.849  0.00  0.00    +0.000 HD
ENDBRANCH   6   9
ENDBRANCH   1   3
BRANCH   1  14
ATOM     14  C   UNL     1      43.507   4.668  11.359  0.00  0.00    +0.000 C 
ATOM     15  C   UNL     1      42.360   5.576  11.809  0.00  0.00    +0.000 C 
BRANCH  14  19
ATOM     16  C   UNL     1      47.250   5.696  13.326  0.00  0.00    +0.000 A 
ATOM     17  C   UNL     1      46.667   4.444  13.519  0.00  0.00    +0.000 A 
ATOM     18  C   UNL     1      45.453   4.126  12.900  0.00  0.00    +0.000 A 
ATOM     19  C   UNL     1      44.795   5.053  12.085  0.00  0.00    +0.000 A 
ATOM     20  C   UNL     1      45.371   6.326  11.926  0.00  0.00    +0.000 A 
ATOM     21  C   UNL     1      46.588   6.641  12.539  0.00  0.00    +0.000 A 
BRANCH  16  23
ATOM     22  C   UNL     1      49.163   7.079  13.081  0.00  0.00    +0.000 C 
ATOM     23  O   UNL     1      48.448   6.111  13.840  0.00  0.00    +0.000 OA
ENDBRANCH  16  23
ENDBRANCH  14  19
ENDBRANCH   1  14
TORSDOF 5
ENDMDL
MODEL 2
REMARK VINA RESULT:    -7.018      1.291      2.068
REMARK INTER + INTRA:          -9.691
REMARK INTER:                  -9.117
REMARK INTRA:                  -0.574
REMARK UNBOUND:                -0.622
REMARK  Name = 
REMARK  7 active torsions:
REMARK  status: ('A' for Active; 'I' for Inactive)
REMARK    1  A    between atoms: C_1  and  O_2
REMARK    2  A    between atoms: O_2  and  C_3
REMARK    3  A    between atoms: C_6  and  C_7
REMARK    4  A    between atoms: C_7  and  C_8
REMARK    5  A    between atoms: C_7  and  N_9
REMARK    6  A    between atoms: N_9  and  C_10
REMARK    7  A    between atoms: C_13  and  C_14
REMARK                            x       y       z     vdW  Elec       q    Type
REMARK                         _______ _______ _______ _____ _____    ______ ____
ROOT
ATOM      1  N   UNL     1      43.791   4.167  10.438  0.00  0.00    +0.000 N 
ATOM      2  H   UNL     1      43.239   4.966  10.121  0.00  0.00    +0.000 HD
ENDROOT
BRANCH   1   3
ATOM      3  C   UNL     1      44.644   3.717   9.434  0.00  0.00    +0.000 A 
ATOM      4  C   UNL     1      45.341   4.503   8.532  0.00  0.00    +0.000 A 
ATOM      5  N   UNL     1      46.237   4.048   7.625  0.00  0.00    +0.000 NA
ATOM      6  C   UNL     1      46.462   2.712   7.645  0.00  0.00    +0.000 A 
ATOM      7  N   UNL     1      45.877   1.837   8.481  0.00  0.00    +0.000 NA
ATOM      8  C   UNL     1      45.002   2.373   9.359  0.00  0.00    +0.000 A 
BRANCH   6   9
ATOM      9  C   UNL     1      47.479   2.181   6.660  0.00  0.00    +0.000 C 
ATOM     10  N   UNL     1      47.761   3.012   5.597  0.00  0.00    +0.000 N 
ATOM     11  O   UNL     1      48.045   1.100   6.766  0.00  0.00    +0.000 OA
ATOM     12  H   UNL     1      47.314   3.917   5.528  0.00  0.00    +0.000 HD
ATOM     13  H   UNL     1      48.457   2.726   4.923  0.00  0.00    +0.000 HD
ENDBRANCH   6   9
ENDBRANCH   1   3
BRANCH   1  14
ATOM     14  C   UNL     1      44.222   4.348  11.832  0.00  0.00    +0.000 C 
ATOM     15  C   UNL     1      43.028   4.438  12.785  0.00  0.00    +0.000 C 
BRANCH  14  19
ATOM     16  C   UNL     1      46.515   8.031  12.167  0.00  0.00    +0.000 A 
ATOM     17  C   UNL     1      45.191   8.056  11.732  0.00  0.00    +0.000 A 
ATOM     18  C   UNL     1      44.464   6.866  11.608  0.00  0.00    +0.000 A 
ATOM     19  C   UNL     1      45.047   5.631  11.905  0.00  0.00    +0.000 A 
ATOM     20  C   UNL     1      46.395   5.611  12.306  0.00  0.00    +0.000 A 
ATOM     21  C   UNL     1      47.119   6.801  12.438  0.00  0.00    +0.000 A 
BRANCH  16  23
ATOM     22  C   UNL     1      48.631   9.052  11.830  0.00  0.00    +0.000 C 
ATOM     23  O   UNL     1      47.315   9.123  12.367  0.00  0.00    +0.000 OA
ENDBRANCH  16  23
ENDBRANCH  14  19
ENDBRANCH   1  14
TORSDOF 5
ENDMDL
MODEL 3
REMARK VINA RESULT:    -6.857      2.559      6.375
REMARK INTER + INTRA:          -9.483
REMARK INTER:                  -9.757
REMARK INTRA:                   0.274
REMARK UNBOUND:                -0.622
REMARK  Name = 
REMARK  7 active torsions:
REMARK  status: ('A' for Active; 'I' for Inactive)
REMARK    1  A    between atoms: C_1  and  O_2
REMARK    2  A    between atoms: O_2  and  C_3
REMARK    3  A    between atoms: C_6  and  C_7
REMARK    4  A    between atoms: C_7  and  C_8
REMARK    5  A    between atoms: C_7  and  N_9
REMARK    6  A    between atoms: N_9  and  C_10
REMARK    7  A    between atoms: C_13  and  C_14
REMARK                            x       y       z     vdW  Elec       q    Type
REMARK                         _______ _______ _______ _____ _____    ______ ____
ROOT
ATOM      1  N   UNL     1      44.896   5.303  10.760  0.00  0.00    +0.000 N 
ATOM      2  H   UNL     1      44.432   6.212  10.744  0.00  0.00    +0.000 HD
ENDROOT
BRANCH   1   3
ATOM      3  C   UNL     1      45.471   5.055  12.002  0.00  0.00    +0.000 A 
ATOM      4  C   UNL     1      45.662   3.815  12.589  0.00  0.00    +0.000 A 
ATOM      5  N   UNL     1      46.308   3.590  13.757  0.00  0.00    +0.000 NA
ATOM      6  C   UNL     1      46.816   4.690  14.364  0.00  0.00    +0.000 A 
ATOM      7  N   UNL     1      46.729   5.947  13.896  0.00  0.00    +0.000 NA
ATOM      8  C   UNL     1      46.075   6.083  12.722  0.00  0.00    +0.000 A 
BRANCH   6   9
ATOM      9  C   UNL     1      47.567   4.464  15.657  0.00  0.00    +0.000 C 
ATOM     10  N   UNL     1      47.053   3.480  16.473  0.00  0.00    +0.000 N 
ATOM     11  O   UNL     1      48.570   5.083  15.990  0.00  0.00    +0.000 OA
ATOM     12  H   UNL     1      46.242   2.951  16.181  0.00  0.00    +0.000 HD
ATOM     13  H   UNL     1      47.531   3.260  17.336  0.00  0.00    +0.000 HD
ENDBRANCH   6   9
ENDBRANCH   1   3
BRANCH   1  14
ATOM     14  C   UNL     1      44.110   4.300  10.027  0.00  0.00    +0.000 C 
ATOM     15  C   UNL     1      43.402   3.332  10.977  0.00  0.00    +0.000 C 
BRANCH  14  19
ATOM     16  C   UNL     1      46.717   2.077   7.344  0.00  0.00    +0.000 A 
ATOM     17  C   UNL     1      46.003   1.421   8.346  0.00  0.00    +0.000 A 
ATOM     18  C   UNL     1      45.181   2.143   9.218  0.00  0.00    +0.000 A 
ATOM     19  C   UNL     1      45.064   3.533   9.113  0.00  0.00    +0.000 A 
ATOM     20  C   UNL     1      45.818   4.191   8.125  0.00  0.00    +0.000 A 
ATOM     21  C   UNL     1      46.633   3.468   7.248  0.00  0.00    +0.000 A 
BRANCH  16  23
ATOM     22  C   UNL     1      47.915   2.290   5.307  0.00  0.00    +0.000 C 
ATOM     23  O   UNL     1      47.518   1.482   6.408  0.00  0.00    +0.000 OA
ENDBRANCH  16  23
ENDBRANCH  14  19
ENDBRANCH   1  14
TORSDOF 5
ENDMDL
MODEL 4
REMARK VINA RESULT:    -6.494      2.902      6.477
REMARK INTER + INTRA:          -9.014
REMARK INTER:                  -8.467
REMARK INTRA:                  -0.548
REMARK UNBOUND:                -0.622
REMARK  Name = 
REMARK  7 active torsions:
REMARK  status: ('A' for Active; 'I' for Inactive)
REMARK    1  A    between atoms: C_1  and  O_2
REMARK    2  A    between atoms: O_2  and  C_3
REMARK    3  A    between atoms: C_6  and  C_7
REMARK    4  A    between atoms: C_7  and  C_8
REMARK    5  A    between atoms: C_7  and  N_9
REMARK    6  A    between atoms: N_9  and  C_10
REMARK    7  A    between atoms: C_13  and  C_14
REMARK                            x       y       z     vdW  Elec       q    Type
REMARK                         _______ _______ _______ _____ _____    ______ ____
ROOT
ATOM      1  N   UNL     1      44.840   4.630  12.540  0.00  0.00    +0.000 N 
ATOM      2  H   UNL     1      44.970   3.618  12.504  0.00  0.00    +0.000 HD
ENDROOT
BRANCH   1   3
ATOM      3  C   UNL     1      45.911   5.251  13.174  0.00  0.00    +0.000 A 
ATOM      4  C   UNL     1      46.745   4.687  14.125  0.00  0.00    +0.000 A 
ATOM      5  N   UNL     1      47.838   5.280  14.660  0.00  0.00    +0.000 NA
ATOM      6  C   UNL     1      48.123   6.517  14.186  0.00  0.00    +0.000 A 
ATOM      7  N   UNL     1      47.417   7.172  13.248  0.00  0.00    +0.000 NA
ATOM      8  C   UNL     1      46.346   6.508  12.762  0.00  0.00    +0.000 A 
BRANCH   6   9
ATOM      9  C   UNL     1      49.355   7.190  14.747  0.00  0.00    +0.000 C 
ATOM     10  N   UNL     1      50.352   7.453  13.832  0.00  0.00    +0.000 N 
ATOM     11  O   UNL     1      49.495   7.507  15.922  0.00  0.00    +0.000 OA
ATOM     12  H   UNL     1      50.220   7.218  12.858  0.00  0.00    +0.000 HD
ATOM     13  H   UNL     1      51.186   7.932  14.141  0.00  0.00    +0.000 HD
ENDBRANCH   6   9
ENDBRANCH   1   3
BRANCH   1  14
ATOM     14  C   UNL     1      44.253   5.127  11.287  0.00  0.00    +0.000 C 
ATOM     15  C   UNL     1      42.725   5.040  11.304  0.00  0.00    +0.000 C 
BRANCH  14  19
ATOM     16  C   UNL     1      45.975   2.735   8.086  0.00  0.00    +0.000 A 
ATOM     17  C   UNL     1      46.085   4.124   8.071  0.00  0.00    +0.000 A 
ATOM     18  C   UNL     1      45.513   4.891   9.093  0.00  0.00    +0.000 A 
ATOM     19  C   UNL     1      44.812   4.285  10.141  0.00  0.00    +0.000 A 
ATOM     20  C   UNL     1      44.673   2.886  10.127  0.00  0.00    +0.000 A 
ATOM     21  C   UNL     1      45.252   2.120   9.110  0.00  0.00    +0.000 A 
BRANCH  16  23
ATOM     22  C   UNL     1      46.863   0.578   7.644  0.00  0.00    +0.000 C 
ATOM     23  O   UNL     1      46.523   1.877   7.171  0.00  0.00    +0.000 OA
ENDBRANCH  16  23
ENDBRANCH  14  19
ENDBRANCH   1  14
TORSDOF 5
ENDMDL
MODEL 5
REMARK VINA RESULT:    -6.327      3.299      6.623
REMARK INTER + INTRA:          -8.798
REMARK INTER:                  -8.516
REMARK INTRA:                  -0.282
REMARK UNBOUND:                -0.622
REMARK  Name = 
REMARK  7 active torsions:
REMARK  status: ('A' for Active; 'I' for Inactive)
REMARK    1  A    between atoms: C_1  and  O_2
REMARK    2  A    between atoms: O_2  and  C_3
REMARK    3  A    between atoms: C_6  and  C_7
REMARK    4  A    between atoms: C_7  and  C_8
REMARK    5  A    between atoms: C_7  and  N_9
REMARK    6  A    between atoms: N_9  and  C_10
REMARK    7  A    between atoms: C_13  and  C_14
REMARK                            x       y       z     vdW  Elec       q    Type
REMARK                         _______ _______ _______ _____ _____    ______ ____
ROOT
ATOM      1  N   UNL     1      46.075   5.687  12.027  0.00  0.00    +0.000 N 
ATOM      2  H   UNL     1      46.193   6.694  12.145  0.00  0.00    +0.000 HD
ENDROOT
BRANCH   1   3
ATOM      3  C   UNL     1      46.494   4.997  13.160  0.00  0.00    +0.000 A 
ATOM      4  C   UNL     1      46.738   3.636  13.252  0.00  0.00    +0.000 A 
ATOM      5  N   UNL     1      47.236   3.000  14.339  0.00  0.00    +0.000 NA
ATOM      6  C   UNL     1      47.529   3.794  15.397  0.00  0.00    +0.000 A 
ATOM      7  N   UNL     1      47.368   5.128  15.437  0.00  0.00    +0.000 NA
ATOM      8  C   UNL     1      46.873   5.685  14.310  0.00  0.00    +0.000 A 
BRANCH   6   9
ATOM      9  C   UNL     1      48.112   3.113  16.614  0.00  0.00    +0.000 C 
ATOM     10  N   UNL     1      47.312   3.123  17.736  0.00  0.00    +0.000 N 
ATOM     11  O   UNL     1      49.209   2.569  16.642  0.00  0.00    +0.000 OA
ATOM     12  H   UNL     1      46.394   3.548  17.701  0.00  0.00    +0.000 HD
ATOM     13  H   UNL     1      47.634   2.655  18.571  0.00  0.00    +0.000 HD
ENDBRANCH   6   9
ENDBRANCH   1   3
BRANCH   1  14
ATOM     14  C   UNL     1      44.818   5.386  11.325  0.00  0.00    +0.000 C 
ATOM     15  C   UNL     1      43.818   4.673  12.238  0.00  0.00    +0.000 C 
BRANCH  14  19
ATOM     16  C   UNL     1      45.906   2.861   7.953  0.00  0.00    +0.000 A 
ATOM     17  C   UNL     1      46.173   4.229   7.930  0.00  0.00    +0.000 A 
ATOM     18  C   UNL     1      45.803   5.040   9.009  0.00  0.00    +0.000 A 
ATOM     19  C   UNL     1      45.153   4.503  10.125  0.00  0.00    +0.000 A 
ATOM     20  C   UNL     1      44.853   3.128  10.122  0.00  0.00    +0.000 A 
ATOM     21  C   UNL     1      45.229   2.317   9.047  0.00  0.00    +0.000 A 
BRANCH  16  23
ATOM     22  C   UNL     1      46.984   0.817   7.410  0.00  0.00    +0.000 C 
ATOM     23  O   UNL     1      46.252   1.960   6.982  0.00  0.00    +0.000 OA
ENDBRANCH  16  23
ENDBRANCH  14  19
ENDBRANCH   1  14
TORSDOF 5
ENDMDL
MODEL 6
REMARK VINA RESULT:    -6.160      3.781      6.876
REMARK INTER + INTRA:          -8.582
REMARK INTER:                  -8.101
REMARK INTRA:                  -0.481
REMARK UNBOUND:                -0.622
REMARK  Name = 
REMARK  7 active torsions:
REMARK  status: ('A' for Active; 'I' for Inactive)
REMARK    1  A    between atoms: C_1  and  O_2
REMARK    2  A    between atoms: O_2  and  C_3
REMARK    3  A    between atoms: C_6  and  C_7
REMARK    4  A    between atoms: C_7  and  C_8
REMARK    5  A    between atoms: C_7  and  N_9
REMARK    6  A    between atoms: N_9  and  C_10
REMARK    7  A    between atoms: C_13  and  C_14
REMARK                            x       y       z     vdW  Elec       q    Type
REMARK                         _______ _______ _______ _____ _____    ______ ____
ROOT
ATOM      1  N   UNL     1      45.724   4.071  13.613  0.00  0.00    +0.000 N 
ATOM      2  H   UNL     1      46.113   3.286  13.089  0.00  0.00    +0.000 HD
ENDROOT
BRANCH   1   3
ATOM      3  C   UNL     1      46.711   4.725  14.343  0.00  0.00    +0.000 A 
ATOM      4  C   UNL     1      47.212   4.344  15.577  0.00  0.00    +0.000 A 
ATOM      5  N   UNL     1      48.238   4.943  16.226  0.00  0.00    +0.000 NA
ATOM      6  C   UNL     1      48.813   5.983  15.576  0.00  0.00    +0.000 A 
ATOM      7  N   UNL     1      48.447   6.443  14.367  0.00  0.00    +0.000 NA
ATOM      8  C   UNL     1      47.421   5.786  13.785  0.00  0.00    +0.000 A 
BRANCH   6   9
ATOM      9  C   UNL     1      49.979   6.653  16.267  0.00  0.00    +0.000 C 
ATOM     10  N   UNL     1      49.861   6.781  17.634  0.00  0.00    +0.000 N 
ATOM     11  O   UNL     1      50.982   7.059  15.693  0.00  0.00    +0.000 OA
ATOM     12  H   UNL     1      49.045   6.418  18.109  0.00  0.00    +0.000 HD
ATOM     13  H   UNL     1      50.623   7.190  18.155  0.00  0.00    +0.000 HD
ENDBRANCH   6   9
ENDBRANCH   1   3
BRANCH   1  14
ATOM     14  C   UNL     1      44.714   4.782  12.816  0.00  0.00    +0.000 C 
ATOM     15  C   UNL     1      43.293   4.349  13.187  0.00  0.00    +0.000 C 
BRANCH  14  19
ATOM     16  C   UNL     1      45.346   3.958   8.590  0.00  0.00    +0.000 A 
ATOM     17  C   UNL     1      44.811   2.983   9.431  0.00  0.00    +0.000 A 
ATOM     18  C   UNL     1      44.628   3.247  10.794  0.00  0.00    +0.000 A 
ATOM     19  C   UNL     1      44.984   4.483  11.342  0.00  0.00    +0.000 A 
ATOM     20  C   UNL     1      45.558   5.447  10.494  0.00  0.00    +0.000 A 
ATOM     21  C   UNL     1      45.734   5.185   9.131  0.00  0.00    +0.000 A 
BRANCH  16  23
ATOM     22  C   UNL     1      46.764   3.252   6.822  0.00  0.00    +0.000 C 
ATOM     23  O   UNL     1      45.536   3.837   7.240  0.00  0.00    +0.000 OA
ENDBRANCH  16  23
ENDBRANCH  14  19
ENDBRANCH   1  14
TORSDOF 5
ENDMDL
MODEL 7
REMARK VINA RESULT:    -6.022      1.180      2.198
REMARK INTER + INTRA:          -8.404
REMARK INTER:                  -8.851
REMARK INTRA:                   0.447
REMARK UNBOUND:                -0.622
REMARK  Name = 
REMARK  7 active torsions:
REMARK  status: ('A' for Active; 'I' for Inactive)
REMARK    1  A    between atoms: C_1  and  O_2
REMARK    2  A    between atoms: O_2  and  C_3
REMARK    3  A    between atoms: C_6  and  C_7
REMARK    4  A    between atoms: C_7  and  C_8
REMARK    5  A    between atoms: C_7  and  N_9
REMARK    6  A    between atoms: N_9  and  C_10
REMARK    7  A    between atoms: C_13  and  C_14
REMARK                            x       y       z     vdW  Elec       q    Type
REMARK                         _______ _______ _______ _____ _____    ______ ____
ROOT
ATOM      1  N   UNL     1      43.865   4.516  10.414  0.00  0.00    +0.000 N 
ATOM      2  H   UNL     1      42.937   4.704  10.031  0.00  0.00    +0.000 HD
ENDROOT
BRANCH   1   3
ATOM      3  C   UNL     1      44.688   3.919   9.463  0.00  0.00    +0.000 A 
ATOM      4  C   UNL     1      45.501   4.572   8.551  0.00  0.00    +0.000 A 
ATOM      5  N   UNL     1      46.364   3.971   7.699  0.00  0.00    +0.000 NA
ATOM      6  C   UNL     1      46.429   2.621   7.789  0.00  0.00    +0.000 A 
ATOM      7  N   UNL     1      45.719   1.863   8.643  0.00  0.00    +0.000 NA
ATOM      8  C   UNL     1      44.887   2.541   9.463  0.00  0.00    +0.000 A 
BRANCH   6   9
ATOM      9  C   UNL     1      47.405   1.926   6.867  0.00  0.00    +0.000 C 
ATOM     10  N   UNL     1      48.499   2.676   6.493  0.00  0.00    +0.000 N 
ATOM     11  O   UNL     1      47.277   0.776   6.465  0.00  0.00    +0.000 OA
ATOM     12  H   UNL     1      48.617   3.615   6.851  0.00  0.00    +0.000 HD
ATOM     13  H   UNL     1      49.204   2.254   5.904  0.00  0.00    +0.000 HD
ENDBRANCH   6   9
ENDBRANCH   1   3
BRANCH   1  14
ATOM     14  C   UNL     1      44.309   5.620  11.278  0.00  0.00    +0.000 C 
ATOM     15  C   UNL     1      44.931   6.758  10.466  0.00  0.00    +0.000 C 
BRANCH  14  19
ATOM     16  C   UNL     1      47.144   4.065  14.191  0.00  0.00    +0.000 A 
ATOM     17  C   UNL     1      47.135   5.420  13.861  0.00  0.00    +0.000 A 
ATOM     18  C   UNL     1      46.235   5.911  12.909  0.00  0.00    +0.000 A 
ATOM     19  C   UNL     1      45.334   5.059  12.263  0.00  0.00    +0.000 A 
ATOM     20  C   UNL     1      45.375   3.688  12.574  0.00  0.00    +0.000 A 
ATOM     21  C   UNL     1      46.270   3.199  13.530  0.00  0.00    +0.000 A 
BRANCH  16  23
ATOM     22  C   UNL     1      47.683   3.810  16.488  0.00  0.00    +0.000 C 
ATOM     23  O   UNL     1      47.944   3.473  15.130  0.00  0.00    +0.000 OA
ENDBRANCH  16  23
ENDBRANCH  14  19
ENDBRANCH   1  14
TORSDOF 5
ENDMDL
MODEL 8
REMARK VINA RESULT:    -5.537      4.705      7.631
REMARK INTER + INTRA:          -7.777
REMARK INTER:                  -7.299
REMARK INTRA:                  -0.479
REMARK UNBOUND:                -0.622
REMARK  Name = 
REMARK  7 active torsions:
REMARK  status: ('A' for Active; 'I' for Inactive)
REMARK    1  A    between atoms: C_1  and  O_2
REMARK    2  A    between atoms: O_2  and  C_3
REMARK    3  A    between atoms: C_6  and  C_7
REMARK    4  A    between atoms: C_7  and  C_8
REMARK    5  A    between atoms: C_7  and  N_9
REMARK    6  A    between atoms: N_9  and  C_10
REMARK    7  A    between atoms: C_13  and  C_14
REMARK                            x       y       z     vdW  Elec       q    Type
REMARK                         _______ _______ _______ _____ _____    ______ ____
ROOT
ATOM      1  N   UNL     1      46.569   5.500  14.471  0.00  0.00    +0.000 N 
ATOM      2  H   UNL     1      45.822   4.804  14.472  0.00  0.00    +0.000 HD
ENDROOT
BRANCH   1   3
ATOM      3  C   UNL     1      47.626   5.101  15.283  0.00  0.00    +0.000 A 
ATOM      4  C   UNL     1      48.638   5.909  15.774  0.00  0.00    +0.000 A 
ATOM      5  N   UNL     1      49.604   5.519  16.638  0.00  0.00    +0.000 NA
ATOM      6  C   UNL     1      49.531   4.232  17.054  0.00  0.00    +0.000 A 
ATOM      7  N   UNL     1      48.591   3.346  16.681  0.00  0.00    +0.000 NA
ATOM      8  C   UNL     1      47.660   3.817  15.822  0.00  0.00    +0.000 A 
BRANCH   6   9
ATOM      9  C   UNL     1      50.581   3.778  18.042  0.00  0.00    +0.000 C 
ATOM     10  N   UNL     1      51.033   2.487  17.871  0.00  0.00    +0.000 N 
ATOM     11  O   UNL     1      51.035   4.478  18.939  0.00  0.00    +0.000 OA
ATOM     12  H   UNL     1      50.678   1.922  17.111  0.00  0.00    +0.000 HD
ATOM     13  H   UNL     1      51.760   2.138  18.480  0.00  0.00    +0.000 HD
ENDBRANCH   6   9
ENDBRANCH   1   3
BRANCH   1  14
ATOM     14  C   UNL     1      46.760   6.062  13.126  0.00  0.00    +0.000 C 
ATOM     15  C   UNL     1      46.274   7.511  13.045  0.00  0.00    +0.000 C 
BRANCH  14  19
ATOM     16  C   UNL     1      44.666   3.542  10.262  0.00  0.00    +0.000 A 
ATOM     17  C   UNL     1      45.126   4.805   9.893  0.00  0.00    +0.000 A 
ATOM     18  C   UNL     1      45.782   5.620  10.824  0.00  0.00    +0.000 A 
ATOM     19  C   UNL     1      45.981   5.193  12.140  0.00  0.00    +0.000 A 
ATOM     20  C   UNL     1      45.480   3.933  12.514  0.00  0.00    +0.000 A 
ATOM     21  C   UNL     1      44.832   3.117  11.582  0.00  0.00    +0.000 A 
BRANCH  16  23
ATOM     22  C   UNL     1      44.876   1.628   8.876  0.00  0.00    +0.000 C 
ATOM     23  O   UNL     1      44.049   2.640   9.438  0.00  0.00    +0.000 OA
ENDBRANCH  16  23
ENDBRANCH  14  19
ENDBRANCH   1  14
TORSDOF 5
ENDMDL
MODEL 9
REMARK VINA RESULT:    -5.452      4.636      6.308
REMARK INTER + INTRA:          -7.667
REMARK INTER:                  -7.194
REMARK INTRA:                  -0.473
REMARK UNBOUND:                -0.622
REMARK  Name = 
REMARK  7 active torsions:
REMARK  status: ('A' for Active; 'I' for Inactive)
REMARK    1  A    between atoms: C_1  and  O_2
REMARK    2  A    between atoms: O_2  and  C_3
REMARK    3  A    between atoms: C_6  and  C_7
REMARK    4  A    between atoms: C_7  and  C_8
REMARK    5  A    between atoms: C_7  and  N_9
REMARK    6  A    between atoms: N_9  and  C_10
REMARK    7  A    between atoms: C_13  and  C_14
REMARK                            x       y       z     vdW  Elec       q    Type
REMARK                         _______ _______ _______ _____ _____    ______ ____
ROOT
ATOM      1  N   UNL     1      47.591   4.931  15.462  0.00  0.00    +0.000 N 
ATOM      2  H   UNL     1      48.563   5.004  15.159  0.00  0.00    +0.000 HD
ENDROOT
BRANCH   1   3
ATOM      3  C   UNL     1      46.740   4.741  14.378  0.00  0.00    +0.000 A 
ATOM      4  C   UNL     1      46.141   5.731  13.617  0.00  0.00    +0.000 A 
ATOM      5  N   UNL     1      45.392   5.524  12.509  0.00  0.00    +0.000 NA
ATOM      6  C   UNL     1      45.256   4.231  12.129  0.00  0.00    +0.000 A 
ATOM      7  N   UNL     1      45.802   3.175  12.755  0.00  0.00    +0.000 NA
ATOM      8  C   UNL     1      46.541   3.468  13.848  0.00  0.00    +0.000 A 
BRANCH   6   9
ATOM      9  C   UNL     1      44.447   3.974  10.878  0.00  0.00    +0.000 C 
ATOM     10  N   UNL     1      44.688   4.837   9.831  0.00  0.00    +0.000 N 
ATOM     11  O   UNL     1      43.631   3.068  10.757  0.00  0.00    +0.000 OA
ATOM     12  H   UNL     1      45.383   5.565   9.924  0.00  0.00    +0.000 HD
ATOM     13  H   UNL     1      44.201   4.695   8.957  0.00  0.00    +0.000 HD
ENDBRANCH   6   9
ENDBRANCH   1   3
BRANCH   1  14
ATOM     14  C   UNL     1      47.488   4.154  16.707  0.00  0.00    +0.000 C 
ATOM     15  C   UNL     1      46.971   5.010  17.865  0.00  0.00    +0.000 C 
BRANCH  14  19
ATOM     16  C   UNL     1      51.481   2.620  17.507  0.00  0.00    +0.000 A 
ATOM     17  C   UNL     1      50.482   1.779  17.019  0.00  0.00    +0.000 A 
ATOM     18  C   UNL     1      49.194   2.273  16.782  0.00  0.00    +0.000 A 
ATOM     19  C   UNL     1      48.878   3.611  17.036  0.00  0.00    +0.000 A 
ATOM     20  C   UNL     1      49.881   4.444  17.564  0.00  0.00    +0.000 A 
ATOM     21  C   UNL     1      51.170   3.951  17.794  0.00  0.00    +0.000 A 
BRANCH  16  23
ATOM     22  C   UNL     1      53.689   3.333  18.006  0.00  0.00    +0.000 C 
ATOM     23  O   UNL     1      52.783   2.269  17.740  0.00  0.00    +0.000 OA
ENDBRANCH  16  23
ENDBRANCH  14  19
ENDBRANCH   1  14
TORSDOF 5
ENDMDL
