MODEL 1
REMARK VINA RESULT:    -7.117      0.000      0.000
REMARK INTER + INTRA:          -8.520
REMARK INTER:                  -8.989
REMARK INTRA:                   0.468
REMARK UNBOUND:                 0.468
REMARK  Name = 
REMARK  5 active torsions:
REMARK  status: ('A' for Active; 'I' for Inactive)
REMARK    1  A    between atoms: C_2  and  O_3
REMARK    2  A    between atoms: C_2  and  C_4
REMARK    3  A    between atoms: C_7  and  C_8
REMARK    4  A    between atoms: C_11  and  O_12
REMARK    5  A    between atoms: O_12  and  C_13
REMARK                            x       y       z     vdW  Elec       q    Type
REMARK                         _______ _______ _______ _____ _____    ______ ____
ROOT
ATOM      1  C   UNL     1      45.739   5.287  11.916  0.00  0.00    +0.000 A 
ATOM      2  N   UNL     1      45.660   5.756  10.658  0.00  0.00    +0.000 NA
ATOM      3  C   UNL     1      45.170   4.912   9.729  0.00  0.00    +0.000 A 
ATOM      4  C   UNL     1      44.760   3.621   9.991  0.00  0.00    +0.000 A 
ATOM      5  C   UNL     1      44.899   3.244  11.312  0.00  0.00    +0.000 A 
ATOM      6  N   UNL     1      45.376   4.048  12.290  0.00  0.00    +0.000 NA
ENDROOT
BRANCH   1  10
ATOM      7  C   UNL     1      48.076   8.425  13.788  0.00  0.00    +0.000 C 
ATOM      8  C   UNL     1      46.594   8.697  13.509  0.00  0.00    +0.000 C 
ATOM      9  C   UNL     1      46.027   7.693  12.511  0.00  0.00    +0.000 C 
ATOM     10  C   UNL     1      46.237   6.242  12.973  0.00  0.00    +0.000 C 
ATOM     11  C   UNL     1      47.713   5.970  13.303  0.00  0.00    +0.000 C 
ATOM     12  C   UNL     1      48.264   6.989  14.298  0.00  0.00    +0.000 C 
BRANCH   7  14
ATOM     13  O   UNL     1      49.665  10.067  14.627  0.00  0.00    +0.000 OA
ATOM     14  C   UNL     1      48.629   9.438  14.772  0.00  0.00    +0.000 C 
BRANCH  14  15
ATOM     15  O   UNL     1      47.836   9.608  15.858  0.00  0.00    +0.000 OA
ATOM     16  H   UNL     1      47.338   8.810  16.118  0.00  0.00    +0.000 HD
ENDBRANCH  14  15
ENDBRANCH   7  14
ENDBRANCH   1  10
BRANCH   4  17
ATOM     17  O   UNL     1      44.251   2.722   9.112  0.00  0.00    +0.000 OA
BRANCH  17  18
ATOM     18  C   UNL     1      45.047   2.379   7.968  0.00  0.00    +0.000 C 
ATOM     19  C   UNL     1      46.045   1.302   8.409  0.00  0.00    +0.000 C 
ATOM     20  C   UNL     1      47.082   1.001   7.332  0.00  0.00    +0.000 C 
ATOM     21  C   UNL     1      47.791   2.271   6.876  0.00  0.00    +0.000 C 
ATOM     22  C   UNL     1      46.790   3.295   6.360  0.00  0.00    +0.000 C 
ATOM     23  C   UNL     1      45.749   3.631   7.421  0.00  0.00    +0.000 C 
ENDBRANCH  17  18
ENDBRANCH   4  17
TORSDOF 5
ENDMDL
MODEL 2
REMARK VINA RESULT:    -7.076      1.762      2.156
REMARK INTER + INTRA:          -8.469
REMARK INTER:                  -8.729
REMARK INTRA:                   0.260
REMARK UNBOUND:                 0.468
REMARK  Name = 
REMARK  5 active torsions:
REMARK  status: ('A' for Active; 'I' for Inactive)
REMARK    1  A    between atoms: C_2  and  O_3
REMARK    2  A    between atoms: C_2  and  C_4
REMARK    3  A    between atoms: C_7  and  C_8
REMARK    4  A    between atoms: C_11  and  O_12
REMARK    5  A    between atoms: O_12  and  C_13
REMARK                            x       y       z     vdW  Elec       q    Type
REMARK                         _______ _______ _______ _____ _____    ______ ____
ROOT
ATOM      1  C   UNL     1      45.901   4.834  12.728  0.00  0.00    +0.000 A 
ATOM      2  N   UNL     1      45.816   5.584  11.615  0.00  0.00    +0.000 NA
ATOM      3  C   UNL     1      45.173   5.035  10.565  0.00  0.00    +0.000 A 
ATOM      4  C   UNL     1      44.616   3.773  10.569  0.00  0.00    +0.000 A 
ATOM      5  C   UNL     1      44.775   3.092  11.759  0.00  0.00    +0.000 A 
ATOM      6  N   UNL     1      45.403   3.592  12.848  0.00  0.00    +0.000 NA
ENDROOT
BRANCH   1  10
ATOM      7  C   UNL     1      48.993   5.818  15.606  0.00  0.00    +0.000 C 
ATOM      8  C   UNL     1      48.521   6.918  14.651  0.00  0.00    +0.000 C 
ATOM      9  C   UNL     1      47.756   6.331  13.469  0.00  0.00    +0.000 C 
ATOM     10  C   UNL     1      46.573   5.460  13.925  0.00  0.00    +0.000 C 
ATOM     11  C   UNL     1      47.026   4.383  14.923  0.00  0.00    +0.000 C 
ATOM     12  C   UNL     1      47.796   4.990  16.094  0.00  0.00    +0.000 C 
BRANCH   7  14
ATOM     13  O   UNL     1      49.297   7.176  17.603  0.00  0.00    +0.000 OA
ATOM     14  C   UNL     1      49.762   6.415  16.769  0.00  0.00    +0.000 C 
BRANCH  14  15
ATOM     15  O   UNL     1      51.051   6.000  16.821  0.00  0.00    +0.000 OA
ATOM     16  H   UNL     1      51.221   5.307  17.487  0.00  0.00    +0.000 HD
ENDBRANCH  14  15
ENDBRANCH   7  14
ENDBRANCH   1  10
BRANCH   4  17
ATOM     17  O   UNL     1      43.950   3.162   9.558  0.00  0.00    +0.000 OA
BRANCH  17  18
ATOM     18  C   UNL     1      44.700   2.783   8.394  0.00  0.00    +0.000 C 
ATOM     19  C   UNL     1      45.581   1.589   8.784  0.00  0.00    +0.000 C 
ATOM     20  C   UNL     1      46.576   1.225   7.687  0.00  0.00    +0.000 C 
ATOM     21  C   UNL     1      47.412   2.430   7.275  0.00  0.00    +0.000 C 
ATOM     22  C   UNL     1      46.522   3.573   6.808  0.00  0.00    +0.000 C 
ATOM     23  C   UNL     1      45.528   3.974   7.890  0.00  0.00    +0.000 C 
ENDBRANCH  17  18
ENDBRANCH   4  17
TORSDOF 5
ENDMDL
MODEL 3
REMARK VINA RESULT:    -7.046      3.272      4.203
REMARK INTER + INTRA:          -8.431
REMARK INTER:                  -8.755
REMARK INTRA:                   0.324
REMARK UNBOUND:                 0.468
REMARK  Name = 
REMARK  5 active torsions:
REMARK  status: ('A' for Active; 'I' for Inactive)
REMARK    1  A    between atoms: C_2  and  O_3
REMARK    2  A    between atoms: C_2  and  C_4
REMARK    3  A    between atoms: C_7  and  C_8
REMARK    4  A    between atoms: C_11  and  O_12
REMARK    5  A    between atoms: O_12  and  C_13
REMARK                            x       y       z     vdW  Elec       q    Type
REMARK                         _______ _______ _______ _____ _____    ______ ____
ROOT
ATOM      1  C   UNL     1      46.761   4.772  13.998  0.00  0.00    +0.000 A 
ATOM      2  N   UNL     1      45.628   4.052  13.923  0.00  0.00    +0.000 NA
ATOM      3  C   UNL     1      44.839   4.280  12.854  0.00  0.00    +0.000 A 
ATOM      4  C   UNL     1      45.122   5.193  11.860  0.00  0.00    +0.000 A 
ATOM      5  C   UNL     1      46.303   5.882  12.049  0.00  0.00    +0.000 A 
ATOM      6  N   UNL     1      47.139   5.693  13.095  0.00  0.00    +0.000 NA
ENDROOT
BRANCH   1  10
ATOM      7  C   UNL     1      48.280   4.722  18.061  0.00  0.00    +0.000 C 
ATOM      8  C   UNL     1      47.796   3.401  17.455  0.00  0.00    +0.000 C 
ATOM      9  C   UNL     1      46.939   3.643  16.217  0.00  0.00    +0.000 C 
ATOM     10  C   UNL     1      47.676   4.487  15.164  0.00  0.00    +0.000 C 
ATOM     11  C   UNL     1      48.210   5.794  15.772  0.00  0.00    +0.000 C 
ATOM     12  C   UNL     1      49.059   5.531  17.013  0.00  0.00    +0.000 C 
BRANCH   7  14
ATOM     13  O   UNL     1      50.229   4.935  19.503  0.00  0.00    +0.000 OA
ATOM     14  C   UNL     1      49.120   4.467  19.297  0.00  0.00    +0.000 C 
BRANCH  14  15
ATOM     15  O   UNL     1      48.506   3.664  20.199  0.00  0.00    +0.000 OA
ATOM     16  H   UNL     1      47.812   3.093  19.817  0.00  0.00    +0.000 HD
ENDBRANCH  14  15
ENDBRANCH   7  14
ENDBRANCH   1  10
BRANCH   4  17
ATOM     17  O   UNL     1      44.382   5.467  10.756  0.00  0.00    +0.000 OA
BRANCH  17  18
ATOM     18  C   UNL     1      44.385   4.505   9.691  0.00  0.00    +0.000 C 
ATOM     19  C   UNL     1      44.343   3.112  10.331  0.00  0.00    +0.000 C 
ATOM     20  C   UNL     1      44.548   2.001   9.307  0.00  0.00    +0.000 C 
ATOM     21  C   UNL     1      45.827   2.214   8.506  0.00  0.00    +0.000 C 
ATOM     22  C   UNL     1      45.810   3.566   7.808  0.00  0.00    +0.000 C 
ATOM     23  C   UNL     1      45.626   4.701   8.808  0.00  0.00    +0.000 C 
ENDBRANCH  17  18
ENDBRANCH   4  17
TORSDOF 5
ENDMDL
MODEL 4
REMARK VINA RESULT:    -6.988      3.927      8.437
REMARK INTER + INTRA:          -8.358
REMARK INTER:                  -7.939
REMARK INTRA:                  -0.420
REMARK UNBOUND:                 0.468
REMARK  Name = 
REMARK  5 active torsions:
REMARK  status: ('A' for Active; 'I' for Inactive)
REMARK    1  A    between atoms: C_2  and  O_3
REMARK    2  A    between atoms: C_2  and  C_4
REMARK    3  A    between atoms: C_7  and  C_8
REMARK    4  A    between atoms: C_11  and  O_12
REMARK    5  A    between atoms: O_12  and  C_13
REMARK                            x       y       z     vdW  Elec       q    Type
REMARK                         _______ _______ _______ _____ _____    ______ ____
ROOT
ATOM      1  C   UNL     1      46.914   4.958  14.432  0.00  0.00    +0.000 A 
ATOM      2  N   UNL     1      46.676   4.000  15.345  0.00  0.00    +0.000 NA
ATOM      3  C   UNL     1      47.468   3.997  16.436  0.00  0.00    +0.000 A 
ATOM      4  C   UNL     1      48.487   4.899  16.659  0.00  0.00    +0.000 A 
ATOM      5  C   UNL     1      48.646   5.828  15.650  0.00  0.00    +0.000 A 
ATOM      6  N   UNL     1      47.880   5.886  14.537  0.00  0.00    +0.000 NA
ENDROOT
BRANCH   1  10
ATOM      7  C   UNL     1      45.544   4.500  10.342  0.00  0.00    +0.000 C 
ATOM      8  C   UNL     1      44.941   3.584  11.412  0.00  0.00    +0.000 C 
ATOM      9  C   UNL     1      45.790   3.583  12.679  0.00  0.00    +0.000 C 
ATOM     10  C   UNL     1      46.000   5.002  13.232  0.00  0.00    +0.000 C 
ATOM     11  C   UNL     1      46.558   5.944  12.154  0.00  0.00    +0.000 C 
ATOM     12  C   UNL     1      45.698   5.926  10.892  0.00  0.00    +0.000 C 
BRANCH   7  14
ATOM     13  O   UNL     1      45.103   4.212   7.966  0.00  0.00    +0.000 OA
ATOM     14  C   UNL     1      44.696   4.482   9.085  0.00  0.00    +0.000 C 
BRANCH  14  15
ATOM     15  O   UNL     1      43.395   4.781   9.319  0.00  0.00    +0.000 OA
ATOM     16  H   UNL     1      42.794   4.014   9.264  0.00  0.00    +0.000 HD
ENDBRANCH  14  15
ENDBRANCH   7  14
ENDBRANCH   1  10
BRANCH   4  17
ATOM     17  O   UNL     1      49.314   4.962  17.732  0.00  0.00    +0.000 OA
BRANCH  17  18
ATOM     18  C   UNL     1      50.676   4.544  17.555  0.00  0.00    +0.000 C 
ATOM     19  C   UNL     1      50.712   3.019  17.702  0.00  0.00    +0.000 C 
ATOM     20  C   UNL     1      52.136   2.476  17.737  0.00  0.00    +0.000 C 
ATOM     21  C   UNL     1      52.965   3.165  18.815  0.00  0.00    +0.000 C 
ATOM     22  C   UNL     1      52.989   4.672  18.600  0.00  0.00    +0.000 C 
ATOM     23  C   UNL     1      51.579   5.248  18.579  0.00  0.00    +0.000 C 
ENDBRANCH  17  18
ENDBRANCH   4  17
TORSDOF 5
ENDMDL
MODEL 5
REMARK VINA RESULT:    -6.609      3.588      9.040
REMARK INTER + INTRA:          -7.879
REMARK INTER:                  -7.459
REMARK INTRA:                  -0.419
REMARK UNBOUND:                 0.468
REMARK  Name = 
REMARK  5 active torsions:
REMARK  status: ('A' for Active; 'I' for Inactive)
REMARK    1  A    between atoms: C_2  and  O_3
REMARK    2  A    between atoms: C_2  and  C_4
REMARK    3  A    between atoms: C_7  and  C_8
REMARK    4  A    between atoms: C_11  and  O_12
REMARK    5  A    between atoms: O_12  and  C_13
REMARK                            x       y       z     vdW  Elec       q    Type
REMARK                         _______ _______ _______ _____ _____    ______ ____
ROOT
ATOM      1  C   UNL     1      46.754   5.004  14.391  0.00  0.00    +0.000 A 
ATOM      2  N   UNL     1      46.543   4.035  15.300  0.00  0.00    +0.000 NA
ATOM      3  C   UNL     1      47.303   4.076  16.413  0.00  0.00    +0.000 A 
ATOM      4  C   UNL     1      48.266   5.031  16.660  0.00  0.00    +0.000 A 
ATOM      5  C   UNL     1      48.404   5.966  15.654  0.00  0.00    +0.000 A 
ATOM      6  N   UNL     1      47.667   5.981  14.520  0.00  0.00    +0.000 NA
ENDROOT
BRANCH   1  10
ATOM      7  C   UNL     1      45.517   4.444  10.272  0.00  0.00    +0.000 C 
ATOM      8  C   UNL     1      44.922   3.517  11.336  0.00  0.00    +0.000 C 
ATOM      9  C   UNL     1      45.736   3.564  12.625  0.00  0.00    +0.000 C 
ATOM     10  C   UNL     1      45.873   4.996  13.167  0.00  0.00    +0.000 C 
ATOM     11  C   UNL     1      46.422   5.948  12.092  0.00  0.00    +0.000 C 
ATOM     12  C   UNL     1      45.599   5.881  10.807  0.00  0.00    +0.000 C 
BRANCH   7  14
ATOM     13  O   UNL     1      45.128   4.002   7.909  0.00  0.00    +0.000 OA
ATOM     14  C   UNL     1      44.705   4.378   8.992  0.00  0.00    +0.000 C 
BRANCH  14  15
ATOM     15  O   UNL     1      43.418   4.763   9.161  0.00  0.00    +0.000 OA
ATOM     16  H   UNL     1      43.134   4.808  10.093  0.00  0.00    +0.000 HD
ENDBRANCH  14  15
ENDBRANCH   7  14
ENDBRANCH   1  10
BRANCH   4  17
ATOM     17  O   UNL     1      49.058   5.139  17.756  0.00  0.00    +0.000 OA
BRANCH  17  18
ATOM     18  C   UNL     1      49.041   6.381  18.476  0.00  0.00    +0.000 C 
ATOM     19  C   UNL     1      50.165   6.324  19.518  0.00  0.00    +0.000 C 
ATOM     20  C   UNL     1      50.118   7.504  20.482  0.00  0.00    +0.000 C 
ATOM     21  C   UNL     1      48.748   7.628  21.139  0.00  0.00    +0.000 C 
ATOM     22  C   UNL     1      47.655   7.772  20.090  0.00  0.00    +0.000 C 
ATOM     23  C   UNL     1      47.664   6.597  19.120  0.00  0.00    +0.000 C 
ENDBRANCH  17  18
ENDBRANCH   4  17
TORSDOF 5
ENDMDL
MODEL 6
REMARK VINA RESULT:    -6.323      4.194      8.991
REMARK INTER + INTRA:          -7.518
REMARK INTER:                  -7.072
REMARK INTRA:                  -0.445
REMARK UNBOUND:                 0.468
REMARK  Name = 
REMARK  5 active torsions:
REMARK  status: ('A' for Active; 'I' for Inactive)
REMARK    1  A    between atoms: C_2  and  O_3
REMARK    2  A    between atoms: C_2  and  C_4
REMARK    3  A    between atoms: C_7  and  C_8
REMARK    4  A    between atoms: C_11  and  O_12
REMARK    5  A    between atoms: O_12  and  C_13
REMARK                            x       y       z     vdW  Elec       q    Type
REMARK                         _______ _______ _______ _____ _____    ______ ____
ROOT
ATOM      1  C   UNL     1      48.001   5.650  14.545  0.00  0.00    +0.000 A 
ATOM      2  N   UNL     1      48.888   6.647  14.379  0.00  0.00    +0.000 NA
ATOM      3  C   UNL     1      49.676   6.937  15.433  0.00  0.00    +0.000 A 
ATOM      4  C   UNL     1      49.619   6.284  16.647  0.00  0.00    +0.000 A 
ATOM      5  C   UNL     1      48.664   5.289  16.707  0.00  0.00    +0.000 A 
ATOM      6  N   UNL     1      47.851   4.948  15.681  0.00  0.00    +0.000 NA
ENDROOT
BRANCH   1  10
ATOM      7  C   UNL     1      44.475   4.748  12.186  0.00  0.00    +0.000 C 
ATOM      8  C   UNL     1      45.217   6.058  11.903  0.00  0.00    +0.000 C 
ATOM      9  C   UNL     1      46.158   6.417  13.048  0.00  0.00    +0.000 C 
ATOM     10  C   UNL     1      47.151   5.284  13.354  0.00  0.00    +0.000 C 
ATOM     11  C   UNL     1      46.421   3.953  13.591  0.00  0.00    +0.000 C 
ATOM     12  C   UNL     1      45.479   3.614  12.438  0.00  0.00    +0.000 C 
BRANCH   7  14
ATOM     13  O   UNL     1      43.085   3.299  10.810  0.00  0.00    +0.000 OA
ATOM     14  C   UNL     1      43.535   4.410  11.045  0.00  0.00    +0.000 C 
BRANCH  14  15
ATOM     15  O   UNL     1      43.205   5.487  10.293  0.00  0.00    +0.000 OA
ATOM     16  H   UNL     1      42.383   5.932  10.571  0.00  0.00    +0.000 HD
ENDBRANCH  14  15
ENDBRANCH   7  14
ENDBRANCH   1  10
BRANCH   4  17
ATOM     17  O   UNL     1      50.382   6.514  17.744  0.00  0.00    +0.000 OA
BRANCH  17  18
ATOM     18  C   UNL     1      50.764   5.385  18.545  0.00  0.00    +0.000 C 
ATOM     19  C   UNL     1      50.939   5.881  19.985  0.00  0.00    +0.000 C 
ATOM     20  C   UNL     1      51.542   4.815  20.892  0.00  0.00    +0.000 C 
ATOM     21  C   UNL     1      52.848   4.275  20.321  0.00  0.00    +0.000 C 
ATOM     22  C   UNL     1      52.636   3.708  18.925  0.00  0.00    +0.000 C 
ATOM     23  C   UNL     1      52.050   4.757  17.987  0.00  0.00    +0.000 C 
ENDBRANCH  17  18
ENDBRANCH   4  17
TORSDOF 5
ENDMDL
MODEL 7
REMARK VINA RESULT:    -6.303      3.249      9.391
REMARK INTER + INTRA:          -7.493
REMARK INTER:                  -7.026
REMARK INTRA:                  -0.467
REMARK UNBOUND:                 0.468
REMARK  Name = 
REMARK  5 active torsions:
REMARK  status: ('A' for Active; 'I' for Inactive)
REMARK    1  A    between atoms: C_2  and  O_3
REMARK    2  A    between atoms: C_2  and  C_4
REMARK    3  A    between atoms: C_7  and  C_8
REMARK    4  A    between atoms: C_11  and  O_12
REMARK    5  A    between atoms: O_12  and  C_13
REMARK                            x       y       z     vdW  Elec       q    Type
REMARK                         _______ _______ _______ _____ _____    ______ ____
ROOT
ATOM      1  C   UNL     1      47.856   5.863  14.427  0.00  0.00    +0.000 A 
ATOM      2  N   UNL     1      47.993   5.050  15.490  0.00  0.00    +0.000 NA
ATOM      3  C   UNL     1      48.550   5.588  16.593  0.00  0.00    +0.000 A 
ATOM      4  C   UNL     1      48.983   6.894  16.687  0.00  0.00    +0.000 A 
ATOM      5  C   UNL     1      48.805   7.630  15.533  0.00  0.00    +0.000 A 
ATOM      6  N   UNL     1      48.245   7.148  14.399  0.00  0.00    +0.000 NA
ENDROOT
BRANCH   1  10
ATOM      7  C   UNL     1      44.703   4.667  11.700  0.00  0.00    +0.000 C 
ATOM      8  C   UNL     1      45.619   5.822  11.282  0.00  0.00    +0.000 C 
ATOM      9  C   UNL     1      46.386   6.377  12.478  0.00  0.00    +0.000 C 
ATOM     10  C   UNL     1      47.185   5.284  13.206  0.00  0.00    +0.000 C 
ATOM     11  C   UNL     1      46.286   4.097  13.587  0.00  0.00    +0.000 C 
ATOM     12  C   UNL     1      45.523   3.560  12.378  0.00  0.00    +0.000 C 
BRANCH   7  14
ATOM     13  O   UNL     1      43.709   2.954  10.285  0.00  0.00    +0.000 OA
ATOM     14  C   UNL     1      43.938   4.133  10.504  0.00  0.00    +0.000 C 
BRANCH  14  15
ATOM     15  O   UNL     1      43.494   5.112   9.679  0.00  0.00    +0.000 OA
ATOM     16  H   UNL     1      44.012   5.938   9.725  0.00  0.00    +0.000 HD
ENDBRANCH  14  15
ENDBRANCH   7  14
ENDBRANCH   1  10
BRANCH   4  17
ATOM     17  O   UNL     1      49.543   7.503  17.762  0.00  0.00    +0.000 OA
BRANCH  17  18
ATOM     18  C   UNL     1      48.920   8.698  18.255  0.00  0.00    +0.000 C 
ATOM     19  C   UNL     1      49.911   9.372  19.211  0.00  0.00    +0.000 C 
ATOM     20  C   UNL     1      49.285  10.546  19.957  0.00  0.00    +0.000 C 
ATOM     21  C   UNL     1      48.008  10.127  20.675  0.00  0.00    +0.000 C 
ATOM     22  C   UNL     1      47.002   9.541  19.695  0.00  0.00    +0.000 C 
ATOM     23  C   UNL     1      47.592   8.352  18.945  0.00  0.00    +0.000 C 
ENDBRANCH  17  18
ENDBRANCH   4  17
TORSDOF 5
ENDMDL
MODEL 8
REMARK VINA RESULT:    -6.299      5.821      7.472
REMARK INTER + INTRA:          -7.488
REMARK INTER:                  -7.084
REMARK INTRA:                  -0.404
REMARK UNBOUND:                 0.468
REMARK  Name = 
REMARK  5 active torsions:
REMARK  status: ('A' for Active; 'I' for Inactive)
REMARK    1  A    between atoms: C_2  and  O_3
REMARK    2  A    between atoms: C_2  and  C_4
REMARK    3  A    between atoms: C_7  and  C_8
REMARK    4  A    between atoms: C_11  and  O_12
REMARK    5  A    between atoms: O_12  and  C_13
REMARK                            x       y       z     vdW  Elec       q    Type
REMARK                         _______ _______ _______ _____ _____    ______ ____
ROOT
ATOM      1  C   UNL     1      49.286   3.590  16.823  0.00  0.00    +0.000 A 
ATOM      2  N   UNL     1      48.489   2.719  16.180  0.00  0.00    +0.000 NA
ATOM      3  C   UNL     1      47.522   3.246  15.402  0.00  0.00    +0.000 A 
ATOM      4  C   UNL     1      47.309   4.599  15.239  0.00  0.00    +0.000 A 
ATOM      5  C   UNL     1      48.178   5.397  15.955  0.00  0.00    +0.000 A 
ATOM      6  N   UNL     1      49.171   4.927  16.745  0.00  0.00    +0.000 NA
ENDROOT
BRANCH   1  10
ATOM      7  C   UNL     1      53.236   2.157  17.897  0.00  0.00    +0.000 C 
ATOM      8  C   UNL     1      52.740   3.455  18.542  0.00  0.00    +0.000 C 
ATOM      9  C   UNL     1      51.549   4.028  17.781  0.00  0.00    +0.000 C 
ATOM     10  C   UNL     1      50.403   3.010  17.654  0.00  0.00    +0.000 C 
ATOM     11  C   UNL     1      50.900   1.685  17.054  0.00  0.00    +0.000 C 
ATOM     12  C   UNL     1      52.096   1.131  17.825  0.00  0.00    +0.000 C 
BRANCH   7  14
ATOM     13  O   UNL     1      55.404   1.077  18.147  0.00  0.00    +0.000 OA
ATOM     14  C   UNL     1      54.428   1.605  18.657  0.00  0.00    +0.000 C 
BRANCH  14  15
ATOM     15  O   UNL     1      54.325   1.773  19.997  0.00  0.00    +0.000 OA
ATOM     16  H   UNL     1      54.817   2.542  20.341  0.00  0.00    +0.000 HD
ENDBRANCH  14  15
ENDBRANCH   7  14
ENDBRANCH   1  10
BRANCH   4  17
ATOM     17  O   UNL     1      46.366   5.199  14.469  0.00  0.00    +0.000 OA
BRANCH  17  18
ATOM     18  C   UNL     1      46.349   4.890  13.067  0.00  0.00    +0.000 C 
ATOM     19  C   UNL     1      46.264   6.218  12.305  0.00  0.00    +0.000 C 
ATOM     20  C   UNL     1      46.033   6.011  10.812  0.00  0.00    +0.000 C 
ATOM     21  C   UNL     1      44.812   5.137  10.556  0.00  0.00    +0.000 C 
ATOM     22  C   UNL     1      44.955   3.790  11.249  0.00  0.00    +0.000 C 
ATOM     23  C   UNL     1      45.168   3.961  12.748  0.00  0.00    +0.000 C 
ENDBRANCH  17  18
ENDBRANCH   4  17
TORSDOF 5
ENDMDL
MODEL 9
REMARK VINA RESULT:    -6.192      1.828      2.624
REMARK INTER + INTRA:          -7.353
REMARK INTER:                  -7.395
REMARK INTRA:                   0.043
REMARK UNBOUND:                 0.468
REMARK  Name = 
REMARK  5 active torsions:
REMARK  status: ('A' for Active; 'I' for Inactive)
REMARK    1  A    between atoms: C_2  and  O_3
REMARK    2  A    between atoms: C_2  and  C_4
REMARK    3  A    between atoms: C_7  and  C_8
REMARK    4  A    between atoms: C_11  and  O_12
REMARK    5  A    between atoms: O_12  and  C_13
REMARK                            x       y       z     vdW  Elec       q    Type
REMARK                         _______ _______ _______ _____ _____    ______ ____
ROOT
ATOM      1  C   UNL     1      46.667   6.762  12.561  0.00  0.00    +0.000 A 
ATOM      2  N   UNL     1      46.655   5.427  12.722  0.00  0.00    +0.000 NA
ATOM      3  C   UNL     1      45.697   4.748  12.059  0.00  0.00    +0.000 A 
ATOM      4  C   UNL     1      44.749   5.335  11.248  0.00  0.00    +0.000 A 
ATOM      5  C   UNL     1      44.850   6.709  11.168  0.00  0.00    +0.000 A 
ATOM      6  N   UNL     1      45.792   7.444  11.802  0.00  0.00    +0.000 NA
ENDROOT
BRANCH   1  10
ATOM      7  C   UNL     1      50.605   7.723  14.103  0.00  0.00    +0.000 C 
ATOM      8  C   UNL     1      50.065   8.554  12.936  0.00  0.00    +0.000 C 
ATOM      9  C   UNL     1      48.889   7.857  12.260  0.00  0.00    +0.000 C 
ATOM     10  C   UNL     1      47.767   7.525  13.257  0.00  0.00    +0.000 C 
ATOM     11  C   UNL     1      48.306   6.732  14.458  0.00  0.00    +0.000 C 
ATOM     12  C   UNL     1      49.486   7.443  15.117  0.00  0.00    +0.000 C 
BRANCH   7  14
ATOM     13  O   UNL     1      52.900   8.516  14.278  0.00  0.00    +0.000 OA
ATOM     14  C   UNL     1      51.781   8.422  14.758  0.00  0.00    +0.000 C 
BRANCH  14  15
ATOM     15  O   UNL     1      51.469   8.974  15.955  0.00  0.00    +0.000 OA
ATOM     16  H   UNL     1      51.275   8.323  16.656  0.00  0.00    +0.000 HD
ENDBRANCH  14  15
ENDBRANCH   7  14
ENDBRANCH   1  10
BRANCH   4  17
ATOM     17  O   UNL     1      43.766   4.717  10.547  0.00  0.00    +0.000 OA
BRANCH  17  18
ATOM     18  C   UNL     1      44.144   3.958   9.389  0.00  0.00    +0.000 C 
ATOM     19  C   UNL     1      44.322   2.501   9.831  0.00  0.00    +0.000 C 
ATOM     20  C   UNL     1      44.922   1.633   8.731  0.00  0.00    +0.000 C 
ATOM     21  C   UNL     1      46.226   2.225   8.208  0.00  0.00    +0.000 C 
ATOM     22  C   UNL     1      46.010   3.640   7.692  0.00  0.00    +0.000 C 
ATOM     23  C   UNL     1      45.427   4.539   8.776  0.00  0.00    +0.000 C 
ENDBRANCH  17  18
ENDBRANCH   4  17
TORSDOF 5
ENDMDL
