MODEL 1
REMARK VINA RESULT:    -8.101      0.000      0.000
REMARK INTER + INTRA:         -11.903
REMARK INTER:                 -10.942
REMARK INTRA:                  -0.961
REMARK UNBOUND:                -0.961
REMARK  Name = 
REMARK  7 active torsions:
REMARK  status: ('A' for Active; 'I' for Inactive)
REMARK    1  A    between atoms: C_1  and  C_2
REMARK    2  A    between atoms: C_5  and  C_6
REMARK    3  A    between atoms: N_8  and  C_9
REMARK    4  A    between atoms: C_9  and  C_10
REMARK    5  A    between atoms: C_13  and  C_14
REMARK    6  A    between atoms: C_14  and  N_15
REMARK    7  A    between atoms: C_16  and  C_18
REMARK                            x       y       z     vdW  Elec       q    Type
REMARK                         _______ _______ _______ _____ _____    ______ ____
ROOT
ATOM      1  C   UNL     1      44.820   6.099  11.042  0.00  0.00    +0.000 A 
ATOM      2  C   UNL     1      44.460   7.397  11.434  0.00  0.00    +0.000 A 
ATOM      3  C   UNL     1      45.267   8.135  12.316  0.00  0.00    +0.000 A 
ATOM      4  C   UNL     1      46.466   7.604  12.808  0.00  0.00    +0.000 A 
ATOM      5  C   UNL     1      46.825   6.307  12.420  0.00  0.00    +0.000 A 
ATOM      6  C   UNL     1      46.018   5.568  11.541  0.00  0.00    +0.000 A 
ENDROOT
BRANCH   1   7
ATOM      7  C   UNL     1      43.941   5.294  10.112  0.00  0.00    +0.000 C 
BRANCH   7  10
ATOM      8  C   UNL     1      44.817   3.100   9.376  0.00  0.00    +0.000 C 
ATOM      9  O   UNL     1      44.271   2.498  10.300  0.00  0.00    +0.000 OA
ATOM     10  N   UNL     1      44.705   4.465   9.215  0.00  0.00    +0.000 N 
ATOM     11  H   UNL     1      45.144   4.871   8.396  0.00  0.00    +0.000 HD
BRANCH   8  16
ATOM     12  C   UNL     1      47.236   2.935   5.195  0.00  0.00    +0.000 C 
ATOM     13  C   UNL     1      46.740   2.347   6.457  0.00  0.00    +0.000 A 
ATOM     14  C   UNL     1      46.869   1.109   7.043  0.00  0.00    +0.000 A 
ATOM     15  C   UNL     1      46.154   1.173   8.268  0.00  0.00    +0.000 A 
ATOM     16  C   UNL     1      45.627   2.449   8.358  0.00  0.00    +0.000 A 
ATOM     17  O   UNL     1      45.988   3.165   7.245  0.00  0.00    +0.000 OA
ENDBRANCH   8  16
ENDBRANCH   7  10
ENDBRANCH   1   7
BRANCH   4  18
ATOM     18  C   UNL     1      47.350   8.400  13.743  0.00  0.00    +0.000 C 
BRANCH  18  19
ATOM     19  N   UNL     1      47.739   7.640  14.904  0.00  0.00    +0.000 N 
ATOM     20  C   UNL     1      48.957   7.014  14.989  0.00  0.00    +0.000 C 
ATOM     21  O   UNL     1      49.794   7.088  14.093  0.00  0.00    +0.000 OA
ATOM     22  H   UNL     1      46.991   7.342  15.525  0.00  0.00    +0.000 HD
BRANCH  20  23
ATOM     23  C   UNL     1      49.239   6.298  16.242  0.00  0.00    +0.000 A 
ATOM     24  C   UNL     1      50.257   6.734  17.081  0.00  0.00    +0.000 A 
ATOM     25  S   UNL     1      50.414   5.807  18.507  0.00  0.00    +0.000 S 
ATOM     26  C   UNL     1      49.163   4.758  18.028  0.00  0.00    +0.000 A 
ATOM     27  N   UNL     1      48.803   3.697  18.799  0.00  0.00    +0.000 NA
ATOM     28  C   UNL     1      47.856   2.971  18.302  0.00  0.00    +0.000 A 
ATOM     29  N   UNL     1      47.235   3.217  17.106  0.00  0.00    +0.000 N 
ATOM     30  C   UNL     1      47.538   4.295  16.312  0.00  0.00    +0.000 A 
ATOM     31  O   UNL     1      46.918   4.519  15.278  0.00  0.00    +0.000 OA
ATOM     32  C   UNL     1      48.613   5.128  16.814  0.00  0.00    +0.000 A 
ATOM     33  H   UNL     1      46.486   2.622  16.780  0.00  0.00    +0.000 HD
ENDBRANCH  20  23
ENDBRANCH  18  19
ENDBRANCH   4  18
TORSDOF 6
ENDMDL
MODEL 2
REMARK VINA RESULT:    -7.511      4.908      9.873
REMARK INTER + INTRA:         -11.106
REMARK INTER:                 -10.295
REMARK INTRA:                  -0.811
REMARK UNBOUND:                -0.961
REMARK  Name = 
REMARK  7 active torsions:
REMARK  status: ('A' for Active; 'I' for Inactive)
REMARK    1  A    between atoms: C_1  and  C_2
REMARK    2  A    between atoms: C_5  and  C_6
REMARK    3  A    between atoms: N_8  and  C_9
REMARK    4  A    between atoms: C_9  and  C_10
REMARK    5  A    between atoms: C_13  and  C_14
REMARK    6  A    between atoms: C_14  and  N_15
REMARK    7  A    between atoms: C_16  and  C_18
REMARK                            x       y       z     vdW  Elec       q    Type
REMARK                         _______ _______ _______ _____ _____    ______ ____
ROOT
ATOM      1  C   UNL     1      51.416   3.100  17.740  0.00  0.00    +0.000 A 
ATOM      2  C   UNL     1      50.741   2.055  17.091  0.00  0.00    +0.000 A 
ATOM      3  C   UNL     1      49.363   2.134  16.836  0.00  0.00    +0.000 A 
ATOM      4  C   UNL     1      48.628   3.270  17.200  0.00  0.00    +0.000 A 
ATOM      5  C   UNL     1      49.301   4.313  17.851  0.00  0.00    +0.000 A 
ATOM      6  C   UNL     1      50.678   4.233  18.109  0.00  0.00    +0.000 A 
ENDROOT
BRANCH   1   7
ATOM      7  C   UNL     1      52.896   3.006  18.037  0.00  0.00    +0.000 C 
BRANCH   7  10
ATOM      8  C   UNL     1      54.171   0.895  17.856  0.00  0.00    +0.000 C 
ATOM      9  O   UNL     1      54.704   1.229  16.798  0.00  0.00    +0.000 OA
ATOM     10  N   UNL     1      53.278   1.705  18.523  0.00  0.00    +0.000 N 
ATOM     11  H   UNL     1      52.928   1.373  19.414  0.00  0.00    +0.000 HD
BRANCH   8  16
ATOM     12  C   UNL     1      52.850  -3.206  20.046  0.00  0.00    +0.000 C 
ATOM     13  C   UNL     1      53.851  -2.254  19.519  0.00  0.00    +0.000 A 
ATOM     14  C   UNL     1      55.226  -2.250  19.475  0.00  0.00    +0.000 A 
ATOM     15  C   UNL     1      55.598  -1.041  18.831  0.00  0.00    +0.000 A 
ATOM     16  C   UNL     1      54.426  -0.375  18.519  0.00  0.00    +0.000 A 
ATOM     17  O   UNL     1      53.357  -1.123  18.945  0.00  0.00    +0.000 OA
ENDBRANCH   8  16
ENDBRANCH   7  10
ENDBRANCH   1   7
BRANCH   4  18
ATOM     18  C   UNL     1      47.146   3.371  16.912  0.00  0.00    +0.000 C 
BRANCH  18  19
ATOM     19  N   UNL     1      46.854   4.349  15.895  0.00  0.00    +0.000 N 
ATOM     20  C   UNL     1      46.964   4.063  14.557  0.00  0.00    +0.000 C 
ATOM     21  O   UNL     1      47.291   2.951  14.152  0.00  0.00    +0.000 OA
ATOM     22  H   UNL     1      46.845   5.323  16.188  0.00  0.00    +0.000 HD
BRANCH  20  23
ATOM     23  C   UNL     1      46.605   5.143  13.626  0.00  0.00    +0.000 A 
ATOM     24  C   UNL     1      47.528   6.136  13.321  0.00  0.00    +0.000 A 
ATOM     25  S   UNL     1      46.953   7.283  12.194  0.00  0.00    +0.000 S 
ATOM     26  C   UNL     1      45.432   6.523  12.114  0.00  0.00    +0.000 A 
ATOM     27  N   UNL     1      44.436   7.027  11.338  0.00  0.00    +0.000 NA
ATOM     28  C   UNL     1      43.328   6.364  11.393  0.00  0.00    +0.000 A 
ATOM     29  N   UNL     1      43.132   5.238  12.149  0.00  0.00    +0.000 N 
ATOM     30  C   UNL     1      44.118   4.673  12.918  0.00  0.00    +0.000 A 
ATOM     31  O   UNL     1      43.926   3.629  13.533  0.00  0.00    +0.000 OA
ATOM     32  C   UNL     1      45.375   5.394  12.912  0.00  0.00    +0.000 A 
ATOM     33  H   UNL     1      42.246   4.753  12.134  0.00  0.00    +0.000 HD
ENDBRANCH  20  23
ENDBRANCH  18  19
ENDBRANCH   4  18
TORSDOF 6
ENDMDL
MODEL 3
REMARK VINA RESULT:    -7.190      4.947      9.763
REMARK INTER + INTRA:         -10.672
REMARK INTER:                  -9.547
REMARK INTRA:                  -1.126
REMARK UNBOUND:                -0.961
REMARK  Name = 
REMARK  7 active torsions:
REMARK  status: ('A' for Active; 'I' for Inactive)
REMARK    1  A    between atoms: C_1  and  C_2
REMARK    2  A    between atoms: C_5  and  C_6
REMARK    3  A    between atoms: N_8  and  C_9
REMARK    4  A    between atoms: C_9  and  C_10
REMARK    5  A    between atoms: C_13  and  C_14
REMARK    6  A    between atoms: C_14  and  N_15
REMARK    7  A    between atoms: C_16  and  C_18
REMARK                            x       y       z     vdW  Elec       q    Type
REMARK                         _______ _______ _______ _____ _____    ______ ____
ROOT
ATOM      1  C   UNL     1      51.464   2.923  17.761  0.00  0.00    +0.000 A 
ATOM      2  C   UNL     1      50.700   1.935  17.122  0.00  0.00    +0.000 A 
ATOM      3  C   UNL     1      49.341   2.145  16.837  0.00  0.00    +0.000 A 
ATOM      4  C   UNL     1      48.717   3.357  17.162  0.00  0.00    +0.000 A 
ATOM      5  C   UNL     1      49.478   4.342  17.803  0.00  0.00    +0.000 A 
ATOM      6  C   UNL     1      50.836   4.132  18.090  0.00  0.00    +0.000 A 
ENDROOT
BRANCH   1   7
ATOM      7  C   UNL     1      52.921   2.690  18.089  0.00  0.00    +0.000 C 
BRANCH   7  10
ATOM      8  C   UNL     1      54.135   0.578  17.659  0.00  0.00    +0.000 C 
ATOM      9  O   UNL     1      54.782   1.062  16.730  0.00  0.00    +0.000 OA
ATOM     10  N   UNL     1      53.207   1.307  18.372  0.00  0.00    +0.000 N 
ATOM     11  H   UNL     1      52.757   0.845  19.154  0.00  0.00    +0.000 HD
BRANCH   8  16
ATOM     12  C   UNL     1      53.116  -3.191  20.507  0.00  0.00    +0.000 C 
ATOM     13  C   UNL     1      53.829  -2.535  19.391  0.00  0.00    +0.000 A 
ATOM     14  C   UNL     1      54.771  -2.962  18.484  0.00  0.00    +0.000 A 
ATOM     15  C   UNL     1      55.060  -1.846  17.656  0.00  0.00    +0.000 A 
ATOM     16  C   UNL     1      54.276  -0.798  18.108  0.00  0.00    +0.000 A 
ATOM     17  O   UNL     1      53.525  -1.225  19.173  0.00  0.00    +0.000 OA
ENDBRANCH   8  16
ENDBRANCH   7  10
ENDBRANCH   1   7
BRANCH   4  18
ATOM     18  C   UNL     1      47.258   3.598  16.842  0.00  0.00    +0.000 C 
BRANCH  18  19
ATOM     19  N   UNL     1      47.080   4.618  15.841  0.00  0.00    +0.000 N 
ATOM     20  C   UNL     1      47.064   4.327  14.500  0.00  0.00    +0.000 C 
ATOM     21  O   UNL     1      47.174   3.178  14.079  0.00  0.00    +0.000 OA
ATOM     22  H   UNL     1      47.254   5.577  16.132  0.00  0.00    +0.000 HD
BRANCH  20  23
ATOM     23  C   UNL     1      46.844   5.459  13.587  0.00  0.00    +0.000 A 
ATOM     24  C   UNL     1      45.743   5.466  12.739  0.00  0.00    +0.000 A 
ATOM     25  S   UNL     1      45.627   6.875  11.781  0.00  0.00    +0.000 S 
ATOM     26  C   UNL     1      47.072   7.500  12.427  0.00  0.00    +0.000 A 
ATOM     27  N   UNL     1      47.573   8.691  12.003  0.00  0.00    +0.000 NA
ATOM     28  C   UNL     1      48.688   9.031  12.560  0.00  0.00    +0.000 A 
ATOM     29  N   UNL     1      49.341   8.289  13.509  0.00  0.00    +0.000 N 
ATOM     30  C   UNL     1      48.855   7.100  13.994  0.00  0.00    +0.000 A 
ATOM     31  O   UNL     1      49.435   6.494  14.889  0.00  0.00    +0.000 OA
ATOM     32  C   UNL     1      47.617   6.661  13.382  0.00  0.00    +0.000 A 
ATOM     33  H   UNL     1      50.202   8.619  13.921  0.00  0.00    +0.000 HD
ENDBRANCH  20  23
ENDBRANCH  18  19
ENDBRANCH   4  18
TORSDOF 6
ENDMDL
MODEL 4
REMARK VINA RESULT:    -6.987      4.145      8.628
REMARK INTER + INTRA:         -10.398
REMARK INTER:                  -9.312
REMARK INTRA:                  -1.086
REMARK UNBOUND:                -0.961
REMARK  Name = 
REMARK  7 active torsions:
REMARK  status: ('A' for Active; 'I' for Inactive)
REMARK    1  A    between atoms: C_1  and  C_2
REMARK    2  A    between atoms: C_5  and  C_6
REMARK    3  A    between atoms: N_8  and  C_9
REMARK    4  A    between atoms: C_9  and  C_10
REMARK    5  A    between atoms: C_13  and  C_14
REMARK    6  A    between atoms: C_14  and  N_15
REMARK    7  A    between atoms: C_16  and  C_18
REMARK                            x       y       z     vdW  Elec       q    Type
REMARK                         _______ _______ _______ _____ _____    ______ ____
ROOT
ATOM      1  C   UNL     1      49.739   4.704  17.646  0.00  0.00    +0.000 A 
ATOM      2  C   UNL     1      48.502   4.449  17.033  0.00  0.00    +0.000 A 
ATOM      3  C   UNL     1      48.018   5.282  16.011  0.00  0.00    +0.000 A 
ATOM      4  C   UNL     1      48.768   6.375  15.558  0.00  0.00    +0.000 A 
ATOM      5  C   UNL     1      50.002   6.631  16.172  0.00  0.00    +0.000 A 
ATOM      6  C   UNL     1      50.485   5.801  17.195  0.00  0.00    +0.000 A 
ENDROOT
BRANCH   1   7
ATOM      7  C   UNL     1      50.251   3.822  18.762  0.00  0.00    +0.000 C 
BRANCH   7  10
ATOM      8  C   UNL     1      51.633   2.065  17.702  0.00  0.00    +0.000 C 
ATOM      9  O   UNL     1      50.652   1.471  17.254  0.00  0.00    +0.000 OA
ATOM     10  N   UNL     1      51.521   3.219  18.448  0.00  0.00    +0.000 N 
ATOM     11  H   UNL     1      52.382   3.671  18.733  0.00  0.00    +0.000 HD
BRANCH   8  16
ATOM     12  C   UNL     1      55.025  -1.069  16.279  0.00  0.00    +0.000 C 
ATOM     13  C   UNL     1      54.572   0.217  16.850  0.00  0.00    +0.000 A 
ATOM     14  C   UNL     1      55.229   1.328  17.326  0.00  0.00    +0.000 A 
ATOM     15  C   UNL     1      54.221   2.238  17.740  0.00  0.00    +0.000 A 
ATOM     16  C   UNL     1      53.004   1.627  17.494  0.00  0.00    +0.000 A 
ATOM     17  O   UNL     1      53.225   0.387  16.950  0.00  0.00    +0.000 OA
ENDBRANCH   8  16
ENDBRANCH   7  10
ENDBRANCH   1   7
BRANCH   4  18
ATOM     18  C   UNL     1      48.263   7.266  14.445  0.00  0.00    +0.000 C 
BRANCH  18  19
ATOM     19  N   UNL     1      47.021   6.793  13.889  0.00  0.00    +0.000 N 
ATOM     20  C   UNL     1      46.776   6.806  12.539  0.00  0.00    +0.000 C 
ATOM     21  O   UNL     1      47.611   7.197  11.728  0.00  0.00    +0.000 OA
ATOM     22  H   UNL     1      46.233   6.721  14.529  0.00  0.00    +0.000 HD
BRANCH  20  23
ATOM     23  C   UNL     1      45.480   6.266  12.104  0.00  0.00    +0.000 A 
ATOM     24  C   UNL     1      44.520   7.110  11.559  0.00  0.00    +0.000 A 
ATOM     25  S   UNL     1      43.094   6.304  11.075  0.00  0.00    +0.000 S 
ATOM     26  C   UNL     1      43.688   4.807  11.625  0.00  0.00    +0.000 A 
ATOM     27  N   UNL     1      42.935   3.677  11.538  0.00  0.00    +0.000 NA
ATOM     28  C   UNL     1      43.501   2.619  12.016  0.00  0.00    +0.000 A 
ATOM     29  N   UNL     1      44.756   2.590  12.567  0.00  0.00    +0.000 N 
ATOM     30  C   UNL     1      45.566   3.695  12.643  0.00  0.00    +0.000 A 
ATOM     31  O   UNL     1      46.707   3.618  13.084  0.00  0.00    +0.000 OA
ATOM     32  C   UNL     1      44.968   4.916  12.142  0.00  0.00    +0.000 A 
ATOM     33  H   UNL     1      45.151   1.724  12.907  0.00  0.00    +0.000 HD
ENDBRANCH  20  23
ENDBRANCH  18  19
ENDBRANCH   4  18
TORSDOF 6
ENDMDL
MODEL 5
REMARK VINA RESULT:    -6.926      1.991      3.131
REMARK INTER + INTRA:         -10.316
REMARK INTER:                  -9.954
REMARK INTRA:                  -0.362
REMARK UNBOUND:                -0.961
REMARK  Name = 
REMARK  7 active torsions:
REMARK  status: ('A' for Active; 'I' for Inactive)
REMARK    1  A    between atoms: C_1  and  C_2
REMARK    2  A    between atoms: C_5  and  C_6
REMARK    3  A    between atoms: N_8  and  C_9
REMARK    4  A    between atoms: C_9  and  C_10
REMARK    5  A    between atoms: C_13  and  C_14
REMARK    6  A    between atoms: C_14  and  N_15
REMARK    7  A    between atoms: C_16  and  C_18
REMARK                            x       y       z     vdW  Elec       q    Type
REMARK                         _______ _______ _______ _____ _____    ______ ____
ROOT
ATOM      1  C   UNL     1      44.777   5.571  11.383  0.00  0.00    +0.000 A 
ATOM      2  C   UNL     1      45.839   5.013  12.110  0.00  0.00    +0.000 A 
ATOM      3  C   UNL     1      46.714   5.826  12.848  0.00  0.00    +0.000 A 
ATOM      4  C   UNL     1      46.536   7.214  12.899  0.00  0.00    +0.000 A 
ATOM      5  C   UNL     1      45.477   7.772  12.170  0.00  0.00    +0.000 A 
ATOM      6  C   UNL     1      44.603   6.961  11.430  0.00  0.00    +0.000 A 
ENDROOT
BRANCH   1   7
ATOM      7  C   UNL     1      43.847   4.699  10.569  0.00  0.00    +0.000 C 
BRANCH   7  10
ATOM      8  C   UNL     1      45.482   4.337   8.748  0.00  0.00    +0.000 C 
ATOM      9  O   UNL     1      45.764   5.533   8.673  0.00  0.00    +0.000 OA
ATOM     10  N   UNL     1      44.557   3.851   9.646  0.00  0.00    +0.000 N 
ATOM     11  H   UNL     1      44.425   2.846   9.676  0.00  0.00    +0.000 HD
BRANCH   8  16
ATOM     12  C   UNL     1      46.765  -0.195   7.668  0.00  0.00    +0.000 C 
ATOM     13  C   UNL     1      46.685   1.255   7.393  0.00  0.00    +0.000 A 
ATOM     14  C   UNL     1      47.109   2.049   6.352  0.00  0.00    +0.000 A 
ATOM     15  C   UNL     1      46.726   3.375   6.684  0.00  0.00    +0.000 A 
ATOM     16  C   UNL     1      46.090   3.314   7.912  0.00  0.00    +0.000 A 
ATOM     17  O   UNL     1      46.069   2.011   8.343  0.00  0.00    +0.000 OA
ENDBRANCH   8  16
ENDBRANCH   7  10
ENDBRANCH   1   7
BRANCH   4  18
ATOM     18  C   UNL     1      47.463   8.095  13.707  0.00  0.00    +0.000 C 
BRANCH  18  19
ATOM     19  N   UNL     1      48.408   7.329  14.479  0.00  0.00    +0.000 N 
ATOM     20  C   UNL     1      48.725   7.657  15.773  0.00  0.00    +0.000 C 
ATOM     21  O   UNL     1      48.202   8.604  16.354  0.00  0.00    +0.000 OA
ATOM     22  H   UNL     1      49.039   6.725  13.958  0.00  0.00    +0.000 HD
BRANCH  20  23
ATOM     23  C   UNL     1      49.681   6.773  16.456  0.00  0.00    +0.000 A 
ATOM     24  C   UNL     1      49.243   5.913  17.456  0.00  0.00    +0.000 A 
ATOM     25  S   UNL     1      50.482   4.935  18.109  0.00  0.00    +0.000 S 
ATOM     26  C   UNL     1      51.656   5.664  17.116  0.00  0.00    +0.000 A 
ATOM     27  N   UNL     1      52.965   5.304  17.196  0.00  0.00    +0.000 NA
ATOM     28  C   UNL     1      53.749   5.956  16.402  0.00  0.00    +0.000 A 
ATOM     29  N   UNL     1      53.338   6.932  15.532  0.00  0.00    +0.000 N 
ATOM     30  C   UNL     1      52.024   7.303  15.390  0.00  0.00    +0.000 A 
ATOM     31  O   UNL     1      51.684   8.135  14.556  0.00  0.00    +0.000 OA
ATOM     32  C   UNL     1      51.105   6.617  16.277  0.00  0.00    +0.000 A 
ATOM     33  H   UNL     1      53.999   7.393  14.922  0.00  0.00    +0.000 HD
ENDBRANCH  20  23
ENDBRANCH  18  19
ENDBRANCH   4  18
TORSDOF 6
ENDMDL
MODEL 6
REMARK VINA RESULT:    -6.663      3.463      8.906
REMARK INTER + INTRA:          -9.961
REMARK INTER:                  -9.020
REMARK INTRA:                  -0.941
REMARK UNBOUND:                -0.961
REMARK  Name = 
REMARK  7 active torsions:
REMARK  status: ('A' for Active; 'I' for Inactive)
REMARK    1  A    between atoms: C_1  and  C_2
REMARK    2  A    between atoms: C_5  and  C_6
REMARK    3  A    between atoms: N_8  and  C_9
REMARK    4  A    between atoms: C_9  and  C_10
REMARK    5  A    between atoms: C_13  and  C_14
REMARK    6  A    between atoms: C_14  and  N_15
REMARK    7  A    between atoms: C_16  and  C_18
REMARK                            x       y       z     vdW  Elec       q    Type
REMARK                         _______ _______ _______ _____ _____    ______ ____
ROOT
ATOM      1  C   UNL     1      50.354   7.491  15.127  0.00  0.00    +0.000 A 
ATOM      2  C   UNL     1      50.585   8.346  14.039  0.00  0.00    +0.000 A 
ATOM      3  C   UNL     1      49.663   8.437  12.984  0.00  0.00    +0.000 A 
ATOM      4  C   UNL     1      48.475   7.695  13.001  0.00  0.00    +0.000 A 
ATOM      5  C   UNL     1      48.245   6.839  14.086  0.00  0.00    +0.000 A 
ATOM      6  C   UNL     1      49.167   6.745  15.140  0.00  0.00    +0.000 A 
ENDROOT
BRANCH   1   7
ATOM      7  C   UNL     1      51.357   7.374  16.253  0.00  0.00    +0.000 C 
BRANCH   7  10
ATOM      8  C   UNL     1      51.174   5.334  17.640  0.00  0.00    +0.000 C 
ATOM      9  O   UNL     1      50.392   5.862  18.431  0.00  0.00    +0.000 OA
ATOM     10  N   UNL     1      51.690   6.005  16.552  0.00  0.00    +0.000 N 
ATOM     11  H   UNL     1      52.285   5.478  15.923  0.00  0.00    +0.000 HD
BRANCH   8  16
ATOM     12  C   UNL     1      54.369   1.903  18.812  0.00  0.00    +0.000 C 
ATOM     13  C   UNL     1      53.070   2.372  18.286  0.00  0.00    +0.000 A 
ATOM     14  C   UNL     1      51.960   1.731  17.785  0.00  0.00    +0.000 A 
ATOM     15  C   UNL     1      51.033   2.751  17.445  0.00  0.00    +0.000 A 
ATOM     16  C   UNL     1      51.632   3.959  17.758  0.00  0.00    +0.000 A 
ATOM     17  O   UNL     1      52.882   3.721  18.271  0.00  0.00    +0.000 OA
ENDBRANCH   8  16
ENDBRANCH   7  10
ENDBRANCH   1   7
BRANCH   4  18
ATOM     18  C   UNL     1      47.467   7.801  11.878  0.00  0.00    +0.000 C 
BRANCH  18  19
ATOM     19  N   UNL     1      46.771   6.560  11.651  0.00  0.00    +0.000 N 
ATOM     20  C   UNL     1      45.401   6.479  11.679  0.00  0.00    +0.000 C 
ATOM     21  O   UNL     1      44.692   7.463  11.872  0.00  0.00    +0.000 OA
ATOM     22  H   UNL     1      47.314   5.707  11.756  0.00  0.00    +0.000 HD
BRANCH  20  23
ATOM     23  C   UNL     1      44.818   5.158  11.400  0.00  0.00    +0.000 A 
ATOM     24  C   UNL     1      44.049   4.518  12.364  0.00  0.00    +0.000 A 
ATOM     25  S   UNL     1      43.423   3.014  11.853  0.00  0.00    +0.000 S 
ATOM     26  C   UNL     1      44.201   3.140  10.345  0.00  0.00    +0.000 A 
ATOM     27  N   UNL     1      44.103   2.149   9.419  0.00  0.00    +0.000 NA
ATOM     28  C   UNL     1      44.765   2.367   8.330  0.00  0.00    +0.000 A 
ATOM     29  N   UNL     1      45.509   3.490   8.084  0.00  0.00    +0.000 N 
ATOM     30  C   UNL     1      45.607   4.532   8.972  0.00  0.00    +0.000 A 
ATOM     31  O   UNL     1      46.231   5.551   8.693  0.00  0.00    +0.000 OA
ATOM     32  C   UNL     1      44.903   4.327  10.222  0.00  0.00    +0.000 A 
ATOM     33  H   UNL     1      45.989   3.610   7.203  0.00  0.00    +0.000 HD
ENDBRANCH  20  23
ENDBRANCH  18  19
ENDBRANCH   4  18
TORSDOF 6
ENDMDL
MODEL 7
REMARK VINA RESULT:    -6.559      5.730      7.984
REMARK INTER + INTRA:          -9.820
REMARK INTER:                  -8.865
REMARK INTRA:                  -0.955
REMARK UNBOUND:                -0.961
REMARK  Name = 
REMARK  7 active torsions:
REMARK  status: ('A' for Active; 'I' for Inactive)
REMARK    1  A    between atoms: C_1  and  C_2
REMARK    2  A    between atoms: C_5  and  C_6
REMARK    3  A    between atoms: N_8  and  C_9
REMARK    4  A    between atoms: C_9  and  C_10
REMARK    5  A    between atoms: C_13  and  C_14
REMARK    6  A    between atoms: C_14  and  N_15
REMARK    7  A    between atoms: C_16  and  C_18
REMARK                            x       y       z     vdW  Elec       q    Type
REMARK                         _______ _______ _______ _____ _____    ______ ____
ROOT
ATOM      1  C   UNL     1      48.842   6.790  13.982  0.00  0.00    +0.000 A 
ATOM      2  C   UNL     1      48.826   6.801  12.579  0.00  0.00    +0.000 A 
ATOM      3  C   UNL     1      49.713   7.612  11.853  0.00  0.00    +0.000 A 
ATOM      4  C   UNL     1      50.655   8.414  12.510  0.00  0.00    +0.000 A 
ATOM      5  C   UNL     1      50.670   8.406  13.911  0.00  0.00    +0.000 A 
ATOM      6  C   UNL     1      49.782   7.597  14.637  0.00  0.00    +0.000 A 
ENDROOT
BRANCH   1   7
ATOM      7  C   UNL     1      47.872   5.935  14.766  0.00  0.00    +0.000 C 
BRANCH   7  10
ATOM      8  C   UNL     1      46.492   4.228  13.626  0.00  0.00    +0.000 C 
ATOM      9  O   UNL     1      47.240   3.307  13.955  0.00  0.00    +0.000 OA
ATOM     10  N   UNL     1      46.731   5.538  13.981  0.00  0.00    +0.000 N 
ATOM     11  H   UNL     1      46.036   6.224  13.712  0.00  0.00    +0.000 HD
BRANCH   8  16
ATOM     12  C   UNL     1      42.238   5.611  11.798  0.00  0.00    +0.000 C 
ATOM     13  C   UNL     1      43.341   4.646  11.989  0.00  0.00    +0.000 A 
ATOM     14  C   UNL     1      43.578   3.372  11.528  0.00  0.00    +0.000 A 
ATOM     15  C   UNL     1      44.829   2.980  12.074  0.00  0.00    +0.000 A 
ATOM     16  C   UNL     1      45.283   4.040  12.839  0.00  0.00    +0.000 A 
ATOM     17  O   UNL     1      44.366   5.059  12.785  0.00  0.00    +0.000 OA
ENDBRANCH   8  16
ENDBRANCH   7  10
ENDBRANCH   1   7
BRANCH   4  18
ATOM     18  C   UNL     1      51.627   9.277  11.736  0.00  0.00    +0.000 C 
BRANCH  18  19
ATOM     19  N   UNL     1      51.885   8.759  10.416  0.00  0.00    +0.000 N 
ATOM     20  C   UNL     1      52.994   9.123   9.695  0.00  0.00    +0.000 C 
ATOM     21  O   UNL     1      53.841   9.891  10.143  0.00  0.00    +0.000 OA
ATOM     22  H   UNL     1      51.094   8.349   9.925  0.00  0.00    +0.000 HD
BRANCH  20  23
ATOM     23  C   UNL     1      53.151   8.496   8.375  0.00  0.00    +0.000 A 
ATOM     24  C   UNL     1      53.081   9.269   7.222  0.00  0.00    +0.000 A 
ATOM     25  S   UNL     1      53.324   8.379   5.785  0.00  0.00    +0.000 S 
ATOM     26  C   UNL     1      53.479   6.921   6.649  0.00  0.00    +0.000 A 
ATOM     27  N   UNL     1      53.675   5.740   6.003  0.00  0.00    +0.000 NA
ATOM     28  C   UNL     1      53.750   4.711   6.781  0.00  0.00    +0.000 A 
ATOM     29  N   UNL     1      53.653   4.761   8.147  0.00  0.00    +0.000 N 
ATOM     30  C   UNL     1      53.493   5.932   8.844  0.00  0.00    +0.000 A 
ATOM     31  O   UNL     1      53.473   5.946  10.070  0.00  0.00    +0.000 OA
ATOM     32  C   UNL     1      53.378   7.115   8.015  0.00  0.00    +0.000 A 
ATOM     33  H   UNL     1      53.739   3.921   8.703  0.00  0.00    +0.000 HD
ENDBRANCH  20  23
ENDBRANCH  18  19
ENDBRANCH   4  18
TORSDOF 6
ENDMDL
MODEL 8
REMARK VINA RESULT:    -6.348      4.788      7.447
REMARK INTER + INTRA:          -9.535
REMARK INTER:                  -8.592
REMARK INTRA:                  -0.943
REMARK UNBOUND:                -0.961
REMARK  Name = 
REMARK  7 active torsions:
REMARK  status: ('A' for Active; 'I' for Inactive)
REMARK    1  A    between atoms: C_1  and  C_2
REMARK    2  A    between atoms: C_5  and  C_6
REMARK    3  A    between atoms: N_8  and  C_9
REMARK    4  A    between atoms: C_9  and  C_10
REMARK    5  A    between atoms: C_13  and  C_14
REMARK    6  A    between atoms: C_14  and  N_15
REMARK    7  A    between atoms: C_16  and  C_18
REMARK                            x       y       z     vdW  Elec       q    Type
REMARK                         _______ _______ _______ _____ _____    ______ ____
ROOT
ATOM      1  C   UNL     1      49.925   9.193  11.537  0.00  0.00    +0.000 A 
ATOM      2  C   UNL     1      48.890  10.138  11.479  0.00  0.00    +0.000 A 
ATOM      3  C   UNL     1      47.594   9.817  11.917  0.00  0.00    +0.000 A 
ATOM      4  C   UNL     1      47.307   8.553  12.449  0.00  0.00    +0.000 A 
ATOM      5  C   UNL     1      48.340   7.609  12.505  0.00  0.00    +0.000 A 
ATOM      6  C   UNL     1      49.634   7.927  12.064  0.00  0.00    +0.000 A 
ENDROOT
BRANCH   1   7
ATOM      7  C   UNL     1      51.314   9.529  11.044  0.00  0.00    +0.000 C 
BRANCH   7  10
ATOM      8  C   UNL     1      52.703   8.349   9.371  0.00  0.00    +0.000 C 
ATOM      9  O   UNL     1      52.747   9.325   8.621  0.00  0.00    +0.000 OA
ATOM     10  N   UNL     1      52.024   8.369  10.571  0.00  0.00    +0.000 N 
ATOM     11  H   UNL     1      52.085   7.538  11.149  0.00  0.00    +0.000 HD
BRANCH   8  16
ATOM     12  C   UNL     1      53.430   4.316   6.809  0.00  0.00    +0.000 C 
ATOM     13  C   UNL     1      53.713   5.236   7.931  0.00  0.00    +0.000 A 
ATOM     14  C   UNL     1      54.608   5.213   8.976  0.00  0.00    +0.000 A 
ATOM     15  C   UNL     1      54.381   6.401   9.719  0.00  0.00    +0.000 A 
ATOM     16  C   UNL     1      53.359   7.083   9.082  0.00  0.00    +0.000 A 
ATOM     17  O   UNL     1      52.951   6.363   7.988  0.00  0.00    +0.000 OA
ENDBRANCH   8  16
ENDBRANCH   7  10
ENDBRANCH   1   7
BRANCH   4  18
ATOM     18  C   UNL     1      45.919   8.206  12.941  0.00  0.00    +0.000 C 
BRANCH  18  19
ATOM     19  N   UNL     1      45.383   7.042  12.283  0.00  0.00    +0.000 N 
ATOM     20  C   UNL     1      45.451   5.792  12.845  0.00  0.00    +0.000 C 
ATOM     21  O   UNL     1      45.949   5.600  13.951  0.00  0.00    +0.000 OA
ATOM     22  H   UNL     1      45.215   7.120  11.283  0.00  0.00    +0.000 HD
BRANCH  20  23
ATOM     23  C   UNL     1      44.837   4.696  12.081  0.00  0.00    +0.000 A 
ATOM     24  C   UNL     1      44.014   3.777  12.719  0.00  0.00    +0.000 A 
ATOM     25  S   UNL     1      43.359   2.600  11.669  0.00  0.00    +0.000 S 
ATOM     26  C   UNL     1      44.194   3.245  10.335  0.00  0.00    +0.000 A 
ATOM     27  N   UNL     1      44.098   2.676   9.103  0.00  0.00    +0.000 NA
ATOM     28  C   UNL     1      44.805   3.254   8.190  0.00  0.00    +0.000 A 
ATOM     29  N   UNL     1      45.593   4.356   8.398  0.00  0.00    +0.000 N 
ATOM     30  C   UNL     1      45.692   4.987   9.613  0.00  0.00    +0.000 A 
ATOM     31  O   UNL     1      46.358   6.008   9.747  0.00  0.00    +0.000 OA
ATOM     32  C   UNL     1      44.937   4.361  10.679  0.00  0.00    +0.000 A 
ATOM     33  H   UNL     1      46.108   4.775   7.635  0.00  0.00    +0.000 HD
ENDBRANCH  20  23
ENDBRANCH  18  19
ENDBRANCH   4  18
TORSDOF 6
ENDMDL
MODEL 9
REMARK VINA RESULT:    -6.287      4.951      7.754
REMARK INTER + INTRA:          -9.453
REMARK INTER:                  -8.487
REMARK INTRA:                  -0.966
REMARK UNBOUND:                -0.961
REMARK  Name = 
REMARK  7 active torsions:
REMARK  status: ('A' for Active; 'I' for Inactive)
REMARK    1  A    between atoms: C_1  and  C_2
REMARK    2  A    between atoms: C_5  and  C_6
REMARK    3  A    between atoms: N_8  and  C_9
REMARK    4  A    between atoms: C_9  and  C_10
REMARK    5  A    between atoms: C_13  and  C_14
REMARK    6  A    between atoms: C_14  and  N_15
REMARK    7  A    between atoms: C_16  and  C_18
REMARK                            x       y       z     vdW  Elec       q    Type
REMARK                         _______ _______ _______ _____ _____    ______ ____
ROOT
ATOM      1  C   UNL     1      50.430   8.741  12.139  0.00  0.00    +0.000 A 
ATOM      2  C   UNL     1      49.479   9.689  11.731  0.00  0.00    +0.000 A 
ATOM      3  C   UNL     1      48.111   9.490  11.977  0.00  0.00    +0.000 A 
ATOM      4  C   UNL     1      47.660   8.353  12.659  0.00  0.00    +0.000 A 
ATOM      5  C   UNL     1      48.609   7.405  13.064  0.00  0.00    +0.000 A 
ATOM      6  C   UNL     1      49.976   7.601  12.816  0.00  0.00    +0.000 A 
ENDROOT
BRANCH   1   7
ATOM      7  C   UNL     1      51.901   8.942  11.854  0.00  0.00    +0.000 C 
BRANCH   7  10
ATOM      8  C   UNL     1      52.569   7.776   9.777  0.00  0.00    +0.000 C 
ATOM      9  O   UNL     1      52.676   6.688  10.343  0.00  0.00    +0.000 OA
ATOM     10  N   UNL     1      52.196   8.923  10.445  0.00  0.00    +0.000 N 
ATOM     11  H   UNL     1      52.082   9.765   9.890  0.00  0.00    +0.000 HD
BRANCH   8  16
ATOM     12  C   UNL     1      54.039  10.304   5.929  0.00  0.00    +0.000 C 
ATOM     13  C   UNL     1      53.480   9.102   6.584  0.00  0.00    +0.000 A 
ATOM     14  C   UNL     1      53.052   7.880   6.120  0.00  0.00    +0.000 A 
ATOM     15  C   UNL     1      52.623   7.151   7.260  0.00  0.00    +0.000 A 
ATOM     16  C   UNL     1      52.815   7.972   8.357  0.00  0.00    +0.000 A 
ATOM     17  O   UNL     1      53.338   9.169   7.937  0.00  0.00    +0.000 OA
ENDBRANCH   8  16
ENDBRANCH   7  10
ENDBRANCH   1   7
BRANCH   4  18
ATOM     18  C   UNL     1      46.190   8.140  12.944  0.00  0.00    +0.000 C 
BRANCH  18  19
ATOM     19  N   UNL     1      45.754   6.810  12.603  0.00  0.00    +0.000 N 
ATOM     20  C   UNL     1      44.789   6.580  11.656  0.00  0.00    +0.000 C 
ATOM     21  O   UNL     1      44.262   7.493  11.026  0.00  0.00    +0.000 OA
ATOM     22  H   UNL     1      45.966   6.075  13.274  0.00  0.00    +0.000 HD
BRANCH  20  23
ATOM     23  C   UNL     1      44.461   5.173  11.383  0.00  0.00    +0.000 A 
ATOM     24  C   UNL     1      43.703   4.445  12.292  0.00  0.00    +0.000 A 
ATOM     25  S   UNL     1      43.388   2.843  11.793  0.00  0.00    +0.000 S 
ATOM     26  C   UNL     1      44.298   3.049  10.370  0.00  0.00    +0.000 A 
ATOM     27  N   UNL     1      44.464   2.026   9.489  0.00  0.00    +0.000 NA
ATOM     28  C   UNL     1      45.199   2.316   8.466  0.00  0.00    +0.000 A 
ATOM     29  N   UNL     1      45.775   3.539   8.244  0.00  0.00    +0.000 N 
ATOM     30  C   UNL     1      45.605   4.610   9.085  0.00  0.00    +0.000 A 
ATOM     31  O   UNL     1      46.083   5.708   8.822  0.00  0.00    +0.000 OA
ATOM     32  C   UNL     1      44.808   4.331  10.263  0.00  0.00    +0.000 A 
ATOM     33  H   UNL     1      46.324   3.709   7.413  0.00  0.00    +0.000 HD
ENDBRANCH  20  23
ENDBRANCH  18  19
ENDBRANCH   4  18
TORSDOF 6
ENDMDL
