MODEL 1
REMARK VINA RESULT:    -8.863      0.000      0.000
REMARK INTER + INTRA:         -12.270
REMARK INTER:                 -11.712
REMARK INTRA:                  -0.558
REMARK UNBOUND:                -0.558
REMARK  Name = 
REMARK  6 active torsions:
REMARK  status: ('A' for Active; 'I' for Inactive)
REMARK    1  A    between atoms: N_1  and  C_2
REMARK    2  A    between atoms: C_4  and  C_5
REMARK    3  A    between atoms: C_5  and  N_6
REMARK    4  A    between atoms: C_7  and  C_9
REMARK    5  A    between atoms: C_21  and  C_22
REMARK    6  A    between atoms: C_22  and  C_23
REMARK                            x       y       z     vdW  Elec       q    Type
REMARK                         _______ _______ _______ _____ _____    ______ ____
ROOT
ATOM      1  C   UNL     1      45.039   3.945  11.795  0.00  0.00    +0.000 A 
ATOM      2  N   UNL     1      45.461   4.998  12.521  0.00  0.00    +0.000 NA
ATOM      3  C   UNL     1      45.896   6.105  11.872  0.00  0.00    +0.000 A 
ATOM      4  C   UNL     1      45.920   6.185  10.485  0.00  0.00    +0.000 A 
ATOM      5  C   UNL     1      45.467   5.095   9.747  0.00  0.00    +0.000 A 
ATOM      6  C   UNL     1      44.999   3.945  10.402  0.00  0.00    +0.000 A 
ENDROOT
BRANCH   1   7
ATOM      7  N   UNL     1      44.735   2.815  12.543  0.00  0.00    +0.000 N 
ATOM      8  H   UNL     1      44.714   2.027  11.901  0.00  0.00    +0.000 HD
ATOM      9  H   UNL     1      45.400   2.679  13.306  0.00  0.00    +0.000 HD
ENDBRANCH   1   7
BRANCH   3  10
ATOM     10  C   UNL     1      46.262   7.297  12.723  0.00  0.00    +0.000 C 
BRANCH  10  11
ATOM     11  N   UNL     1      46.850   6.874  13.976  0.00  0.00    +0.000 N 
ATOM     12  C   UNL     1      48.198   6.667  14.097  0.00  0.00    +0.000 C 
ATOM     13  O   UNL     1      48.975   6.900  13.174  0.00  0.00    +0.000 OA
ATOM     14  H   UNL     1      46.219   6.410  14.624  0.00  0.00    +0.000 HD
BRANCH  12  15
ATOM     15  C   UNL     1      48.681   6.226  15.412  0.00  0.00    +0.000 A 
ATOM     16  C   UNL     1      49.667   6.959  16.060  0.00  0.00    +0.000 A 
ATOM     17  S   UNL     1      50.066   6.359  17.605  0.00  0.00    +0.000 S 
ATOM     18  C   UNL     1      48.977   5.062  17.442  0.00  0.00    +0.000 A 
ATOM     19  N   UNL     1      48.840   4.137  18.431  0.00  0.00    +0.000 NA
ATOM     20  C   UNL     1      48.007   3.190  18.162  0.00  0.00    +0.000 A 
ATOM     21  N   UNL     1      47.294   3.085  16.996  0.00  0.00    +0.000 N 
ATOM     22  C   UNL     1      47.373   4.013  15.986  0.00  0.00    +0.000 A 
ATOM     23  O   UNL     1      46.680   3.917  14.978  0.00  0.00    +0.000 OA
ATOM     24  C   UNL     1      48.304   5.097  16.232  0.00  0.00    +0.000 A 
ATOM     25  H   UNL     1      46.650   2.321  16.849  0.00  0.00    +0.000 HD
ENDBRANCH  12  15
ENDBRANCH  10  11
ENDBRANCH   3  10
BRANCH   6  26
ATOM     26  C   UNL     1      44.544   2.750   9.597  0.00  0.00    +0.000 C 
BRANCH  26  27
ATOM     27  C   UNL     1      45.399   2.362   8.405  0.00  0.00    +0.000 A 
ATOM     28  N   UNL     1      45.541   3.270   7.417  0.00  0.00    +0.000 NA
ATOM     29  C   UNL     1      46.440   2.985   6.454  0.00  0.00    +0.000 A 
ATOM     30  C   UNL     1      47.199   1.840   6.436  0.00  0.00    +0.000 A 
ATOM     31  C   UNL     1      46.971   0.966   7.469  0.00  0.00    +0.000 A 
ATOM     32  N   UNL     1      46.083   1.196   8.458  0.00  0.00    +0.000 NA
ENDBRANCH  26  27
ENDBRANCH   6  26
TORSDOF 6
ENDMDL
MODEL 2
REMARK VINA RESULT:    -8.358      1.358      1.824
REMARK INTER + INTRA:         -11.602
REMARK INTER:                 -10.719
REMARK INTRA:                  -0.883
REMARK UNBOUND:                -0.558
REMARK  Name = 
REMARK  6 active torsions:
REMARK  status: ('A' for Active; 'I' for Inactive)
REMARK    1  A    between atoms: N_1  and  C_2
REMARK    2  A    between atoms: C_4  and  C_5
REMARK    3  A    between atoms: C_5  and  N_6
REMARK    4  A    between atoms: C_7  and  C_9
REMARK    5  A    between atoms: C_21  and  C_22
REMARK    6  A    between atoms: C_22  and  C_23
REMARK                            x       y       z     vdW  Elec       q    Type
REMARK                         _______ _______ _______ _____ _____    ______ ____
ROOT
ATOM      1  C   UNL     1      44.366   6.972  11.402  0.00  0.00    +0.000 A 
ATOM      2  N   UNL     1      45.122   7.734  12.216  0.00  0.00    +0.000 NA
ATOM      3  C   UNL     1      46.267   7.214  12.718  0.00  0.00    +0.000 A 
ATOM      4  C   UNL     1      46.683   5.922  12.420  0.00  0.00    +0.000 A 
ATOM      5  C   UNL     1      45.900   5.151  11.566  0.00  0.00    +0.000 A 
ATOM      6  C   UNL     1      44.718   5.678  11.024  0.00  0.00    +0.000 A 
ENDROOT
BRANCH   1   7
ATOM      7  N   UNL     1      43.151   7.543  11.042  0.00  0.00    +0.000 N 
ATOM      8  H   UNL     1      42.838   7.073  10.198  0.00  0.00    +0.000 HD
ATOM      9  H   UNL     1      42.469   7.484  11.799  0.00  0.00    +0.000 HD
ENDBRANCH   1   7
BRANCH   3  10
ATOM     10  C   UNL     1      47.133   8.136  13.543  0.00  0.00    +0.000 C 
BRANCH  10  11
ATOM     11  N   UNL     1      47.592   7.473  14.745  0.00  0.00    +0.000 N 
ATOM     12  C   UNL     1      48.842   6.918  14.820  0.00  0.00    +0.000 C 
ATOM     13  O   UNL     1      49.652   7.020  13.902  0.00  0.00    +0.000 OA
ATOM     14  H   UNL     1      46.863   7.134  15.367  0.00  0.00    +0.000 HD
BRANCH  12  15
ATOM     15  C   UNL     1      49.195   6.259  16.084  0.00  0.00    +0.000 A 
ATOM     16  C   UNL     1      50.250   6.752  16.841  0.00  0.00    +0.000 A 
ATOM     17  S   UNL     1      50.486   5.925  18.313  0.00  0.00    +0.000 S 
ATOM     18  C   UNL     1      49.223   4.839  17.966  0.00  0.00    +0.000 A 
ATOM     19  N   UNL     1      48.906   3.839  18.833  0.00  0.00    +0.000 NA
ATOM     20  C   UNL     1      47.953   3.067  18.431  0.00  0.00    +0.000 A 
ATOM     21  N   UNL     1      47.284   3.209  17.243  0.00  0.00    +0.000 N 
ATOM     22  C   UNL     1      47.546   4.223  16.354  0.00  0.00    +0.000 A 
ATOM     23  O   UNL     1      46.892   4.351  15.323  0.00  0.00    +0.000 OA
ATOM     24  C   UNL     1      48.617   5.116  16.753  0.00  0.00    +0.000 A 
ATOM     25  H   UNL     1      46.540   2.575  16.988  0.00  0.00    +0.000 HD
ENDBRANCH  12  15
ENDBRANCH  10  11
ENDBRANCH   3  10
BRANCH   6  26
ATOM     26  C   UNL     1      43.852   4.825  10.127  0.00  0.00    +0.000 C 
BRANCH  26  27
ATOM     27  C   UNL     1      44.569   3.857   9.203  0.00  0.00    +0.000 A 
ATOM     28  N   UNL     1      45.286   4.380   8.187  0.00  0.00    +0.000 NA
ATOM     29  C   UNL     1      46.057   3.525   7.485  0.00  0.00    +0.000 A 
ATOM     30  C   UNL     1      46.143   2.180   7.754  0.00  0.00    +0.000 A 
ATOM     31  C   UNL     1      45.360   1.736   8.790  0.00  0.00    +0.000 A 
ATOM     32  N   UNL     1      44.568   2.542   9.525  0.00  0.00    +0.000 NA
ENDBRANCH  26  27
ENDBRANCH   6  26
TORSDOF 6
ENDMDL
MODEL 3
REMARK VINA RESULT:    -8.115      1.915      2.375
REMARK INTER + INTRA:         -11.282
REMARK INTER:                 -10.562
REMARK INTRA:                  -0.720
REMARK UNBOUND:                -0.558
REMARK  Name = 
REMARK  6 active torsions:
REMARK  status: ('A' for Active; 'I' for Inactive)
REMARK    1  A    between atoms: N_1  and  C_2
REMARK    2  A    between atoms: C_4  and  C_5
REMARK    3  A    between atoms: C_5  and  N_6
REMARK    4  A    between atoms: C_7  and  C_9
REMARK    5  A    between atoms: C_21  and  C_22
REMARK    6  A    between atoms: C_22  and  C_23
REMARK                            x       y       z     vdW  Elec       q    Type
REMARK                         _______ _______ _______ _____ _____    ______ ____
ROOT
ATOM      1  C   UNL     1      45.592   4.173  12.119  0.00  0.00    +0.000 A 
ATOM      2  N   UNL     1      46.336   4.881  12.991  0.00  0.00    +0.000 NA
ATOM      3  C   UNL     1      46.801   6.097  12.615  0.00  0.00    +0.000 A 
ATOM      4  C   UNL     1      46.534   6.632  11.362  0.00  0.00    +0.000 A 
ATOM      5  C   UNL     1      45.751   5.897  10.476  0.00  0.00    +0.000 A 
ATOM      6  C   UNL     1      45.249   4.642  10.853  0.00  0.00    +0.000 A 
ENDROOT
BRANCH   1   7
ATOM      7  N   UNL     1      45.271   2.890  12.545  0.00  0.00    +0.000 N 
ATOM      8  H   UNL     1      44.280   2.889  12.769  0.00  0.00    +0.000 HD
ATOM      9  H   UNL     1      45.515   2.189  11.844  0.00  0.00    +0.000 HD
ENDBRANCH   1   7
BRANCH   3  10
ATOM     10  C   UNL     1      47.543   6.898  13.658  0.00  0.00    +0.000 C 
BRANCH  10  11
ATOM     11  N   UNL     1      47.555   6.205  14.928  0.00  0.00    +0.000 N 
ATOM     12  C   UNL     1      48.706   6.074  15.658  0.00  0.00    +0.000 C 
ATOM     13  O   UNL     1      49.759   6.599  15.307  0.00  0.00    +0.000 OA
ATOM     14  H   UNL     1      46.799   5.540  15.074  0.00  0.00    +0.000 HD
BRANCH  12  15
ATOM     15  C   UNL     1      48.601   5.339  16.926  0.00  0.00    +0.000 A 
ATOM     16  C   UNL     1      48.651   3.951  16.917  0.00  0.00    +0.000 A 
ATOM     17  S   UNL     1      48.590   3.251  18.471  0.00  0.00    +0.000 S 
ATOM     18  C   UNL     1      48.435   4.776  19.210  0.00  0.00    +0.000 A 
ATOM     19  N   UNL     1      48.315   4.887  20.561  0.00  0.00    +0.000 NA
ATOM     20  C   UNL     1      48.169   6.097  20.985  0.00  0.00    +0.000 A 
ATOM     21  N   UNL     1      48.138   7.207  20.181  0.00  0.00    +0.000 N 
ATOM     22  C   UNL     1      48.291   7.146  18.817  0.00  0.00    +0.000 A 
ATOM     23  O   UNL     1      48.311   8.164  18.132  0.00  0.00    +0.000 OA
ATOM     24  C   UNL     1      48.449   5.806  18.285  0.00  0.00    +0.000 A 
ATOM     25  H   UNL     1      48.028   8.130  20.576  0.00  0.00    +0.000 HD
ENDBRANCH  12  15
ENDBRANCH  10  11
ENDBRANCH   3  10
BRANCH   6  26
ATOM     26  C   UNL     1      44.431   3.831   9.875  0.00  0.00    +0.000 C 
BRANCH  26  27
ATOM     27  C   UNL     1      45.187   3.160   8.743  0.00  0.00    +0.000 A 
ATOM     28  N   UNL     1      45.563   3.931   7.701  0.00  0.00    +0.000 NA
ATOM     29  C   UNL     1      46.383   3.365   6.792  0.00  0.00    +0.000 A 
ATOM     30  C   UNL     1      46.839   2.072   6.878  0.00  0.00    +0.000 A 
ATOM     31  C   UNL     1      46.385   1.359   7.959  0.00  0.00    +0.000 A 
ATOM     32  N   UNL     1      45.564   1.869   8.898  0.00  0.00    +0.000 NA
ENDBRANCH  26  27
ENDBRANCH   6  26
TORSDOF 6
ENDMDL
MODEL 4
REMARK VINA RESULT:    -7.960      2.111      3.766
REMARK INTER + INTRA:         -11.077
REMARK INTER:                 -10.064
REMARK INTRA:                  -1.014
REMARK UNBOUND:                -0.558
REMARK  Name = 
REMARK  6 active torsions:
REMARK  status: ('A' for Active; 'I' for Inactive)
REMARK    1  A    between atoms: N_1  and  C_2
REMARK    2  A    between atoms: C_4  and  C_5
REMARK    3  A    between atoms: C_5  and  N_6
REMARK    4  A    between atoms: C_7  and  C_9
REMARK    5  A    between atoms: C_21  and  C_22
REMARK    6  A    between atoms: C_22  and  C_23
REMARK                            x       y       z     vdW  Elec       q    Type
REMARK                         _______ _______ _______ _____ _____    ______ ____
ROOT
ATOM      1  C   UNL     1      45.159   4.650  10.101  0.00  0.00    +0.000 A 
ATOM      2  N   UNL     1      45.225   5.088  11.373  0.00  0.00    +0.000 NA
ATOM      3  C   UNL     1      44.644   4.349  12.348  0.00  0.00    +0.000 A 
ATOM      4  C   UNL     1      43.984   3.158  12.075  0.00  0.00    +0.000 A 
ATOM      5  C   UNL     1      43.937   2.708  10.759  0.00  0.00    +0.000 A 
ATOM      6  C   UNL     1      44.546   3.453   9.737  0.00  0.00    +0.000 A 
ENDROOT
BRANCH   1   7
ATOM      7  N   UNL     1      45.670   5.535   9.160  0.00  0.00    +0.000 N 
ATOM      8  H   UNL     1      45.324   6.460   9.400  0.00  0.00    +0.000 HD
ATOM      9  H   UNL     1      46.690   5.496   9.121  0.00  0.00    +0.000 HD
ENDBRANCH   1   7
BRANCH   3  10
ATOM     10  C   UNL     1      44.829   4.825  13.769  0.00  0.00    +0.000 C 
BRANCH  10  11
ATOM     11  N   UNL     1      45.964   5.718  13.870  0.00  0.00    +0.000 N 
ATOM     12  C   UNL     1      47.187   5.270  14.292  0.00  0.00    +0.000 C 
ATOM     13  O   UNL     1      47.396   4.084  14.533  0.00  0.00    +0.000 OA
ATOM     14  H   UNL     1      45.740   6.705  13.962  0.00  0.00    +0.000 HD
BRANCH  12  15
ATOM     15  C   UNL     1      48.262   6.269  14.369  0.00  0.00    +0.000 A 
ATOM     16  C   UNL     1      48.951   6.441  15.563  0.00  0.00    +0.000 A 
ATOM     17  S   UNL     1      50.214   7.582  15.469  0.00  0.00    +0.000 S 
ATOM     18  C   UNL     1      49.848   7.933  13.845  0.00  0.00    +0.000 A 
ATOM     19  N   UNL     1      50.560   8.865  13.155  0.00  0.00    +0.000 NA
ATOM     20  C   UNL     1      50.155   9.057  11.945  0.00  0.00    +0.000 A 
ATOM     21  N   UNL     1      49.105   8.398  11.360  0.00  0.00    +0.000 N 
ATOM     22  C   UNL     1      48.381   7.425  12.006  0.00  0.00    +0.000 A 
ATOM     23  O   UNL     1      47.481   6.817  11.435  0.00  0.00    +0.000 OA
ATOM     24  C   UNL     1      48.789   7.175  13.375  0.00  0.00    +0.000 A 
ATOM     25  H   UNL     1      48.841   8.589  10.405  0.00  0.00    +0.000 HD
ENDBRANCH  12  15
ENDBRANCH  10  11
ENDBRANCH   3  10
BRANCH   6  26
ATOM     26  C   UNL     1      44.461   2.981   8.304  0.00  0.00    +0.000 C 
BRANCH  26  27
ATOM     27  C   UNL     1      45.774   2.732   7.587  0.00  0.00    +0.000 A 
ATOM     28  N   UNL     1      46.456   1.610   7.904  0.00  0.00    +0.000 NA
ATOM     29  C   UNL     1      47.524   1.312   7.138  0.00  0.00    +0.000 A 
ATOM     30  C   UNL     1      47.938   2.078   6.076  0.00  0.00    +0.000 A 
ATOM     31  C   UNL     1      47.198   3.210   5.843  0.00  0.00    +0.000 A 
ATOM     32  N   UNL     1      46.123   3.562   6.577  0.00  0.00    +0.000 NA
ENDBRANCH  26  27
ENDBRANCH   6  26
TORSDOF 6
ENDMDL
MODEL 5
REMARK VINA RESULT:    -7.798      2.062      2.620
REMARK INTER + INTRA:         -10.863
REMARK INTER:                  -9.896
REMARK INTRA:                  -0.968
REMARK UNBOUND:                -0.558
REMARK  Name = 
REMARK  6 active torsions:
REMARK  status: ('A' for Active; 'I' for Inactive)
REMARK    1  A    between atoms: N_1  and  C_2
REMARK    2  A    between atoms: C_4  and  C_5
REMARK    3  A    between atoms: C_5  and  N_6
REMARK    4  A    between atoms: C_7  and  C_9
REMARK    5  A    between atoms: C_21  and  C_22
REMARK    6  A    between atoms: C_22  and  C_23
REMARK                            x       y       z     vdW  Elec       q    Type
REMARK                         _______ _______ _______ _____ _____    ______ ____
ROOT
ATOM      1  C   UNL     1      44.655   3.524  10.724  0.00  0.00    +0.000 A 
ATOM      2  N   UNL     1      44.936   3.911  11.983  0.00  0.00    +0.000 NA
ATOM      3  C   UNL     1      45.563   5.096  12.176  0.00  0.00    +0.000 A 
ATOM      4  C   UNL     1      45.923   5.921  11.119  0.00  0.00    +0.000 A 
ATOM      5  C   UNL     1      45.613   5.516   9.823  0.00  0.00    +0.000 A 
ATOM      6  C   UNL     1      44.951   4.299   9.604  0.00  0.00    +0.000 A 
ENDROOT
BRANCH   1   7
ATOM      7  N   UNL     1      44.130   2.242  10.619  0.00  0.00    +0.000 N 
ATOM      8  H   UNL     1      43.307   2.206  11.214  0.00  0.00    +0.000 HD
ATOM      9  H   UNL     1      43.922   1.999   9.649  0.00  0.00    +0.000 HD
ENDBRANCH   1   7
BRANCH   3  10
ATOM     10  C   UNL     1      45.767   5.537  13.606  0.00  0.00    +0.000 C 
BRANCH  10  11
ATOM     11  N   UNL     1      47.142   5.926  13.834  0.00  0.00    +0.000 N 
ATOM     12  C   UNL     1      47.528   7.239  13.791  0.00  0.00    +0.000 C 
ATOM     13  O   UNL     1      46.717   8.148  13.631  0.00  0.00    +0.000 OA
ATOM     14  H   UNL     1      47.837   5.201  13.673  0.00  0.00    +0.000 HD
BRANCH  12  15
ATOM     15  C   UNL     1      48.952   7.515  14.024  0.00  0.00    +0.000 A 
ATOM     16  C   UNL     1      49.660   8.277  13.103  0.00  0.00    +0.000 A 
ATOM     17  S   UNL     1      51.279   8.568  13.552  0.00  0.00    +0.000 S 
ATOM     18  C   UNL     1      51.110   7.636  14.966  0.00  0.00    +0.000 A 
ATOM     19  N   UNL     1      52.160   7.459  15.814  0.00  0.00    +0.000 NA
ATOM     20  C   UNL     1      51.904   6.704  16.828  0.00  0.00    +0.000 A 
ATOM     21  N   UNL     1      50.692   6.112  17.074  0.00  0.00    +0.000 N 
ATOM     22  C   UNL     1      49.595   6.291  16.265  0.00  0.00    +0.000 A 
ATOM     23  O   UNL     1      48.511   5.789  16.544  0.00  0.00    +0.000 OA
ATOM     24  C   UNL     1      49.830   7.126  15.103  0.00  0.00    +0.000 A 
ATOM     25  H   UNL     1      50.553   5.535  17.891  0.00  0.00    +0.000 HD
ENDBRANCH  12  15
ENDBRANCH  10  11
ENDBRANCH   3  10
BRANCH   6  26
ATOM     26  C   UNL     1      44.650   3.846   8.194  0.00  0.00    +0.000 C 
BRANCH  26  27
ATOM     27  C   UNL     1      45.721   3.029   7.495  0.00  0.00    +0.000 A 
ATOM     28  N   UNL     1      46.373   3.607   6.465  0.00  0.00    +0.000 NA
ATOM     29  C   UNL     1      47.437   2.943   5.970  0.00  0.00    +0.000 A 
ATOM     30  C   UNL     1      47.873   1.734   6.455  0.00  0.00    +0.000 A 
ATOM     31  C   UNL     1      47.134   1.213   7.488  0.00  0.00    +0.000 A 
ATOM     32  N   UNL     1      46.061   1.830   8.022  0.00  0.00    +0.000 NA
ENDBRANCH  26  27
ENDBRANCH   6  26
TORSDOF 6
ENDMDL
MODEL 6
REMARK VINA RESULT:    -7.650      3.035      7.755
REMARK INTER + INTRA:         -10.667
REMARK INTER:                  -9.610
REMARK INTRA:                  -1.057
REMARK UNBOUND:                -0.558
REMARK  Name = 
REMARK  6 active torsions:
REMARK  status: ('A' for Active; 'I' for Inactive)
REMARK    1  A    between atoms: N_1  and  C_2
REMARK    2  A    between atoms: C_4  and  C_5
REMARK    3  A    between atoms: C_5  and  N_6
REMARK    4  A    between atoms: C_7  and  C_9
REMARK    5  A    between atoms: C_21  and  C_22
REMARK    6  A    between atoms: C_22  and  C_23
REMARK                            x       y       z     vdW  Elec       q    Type
REMARK                         _______ _______ _______ _____ _____    ______ ____
ROOT
ATOM      1  C   UNL     1      48.306   5.556  15.887  0.00  0.00    +0.000 A 
ATOM      2  N   UNL     1      47.964   6.104  14.705  0.00  0.00    +0.000 NA
ATOM      3  C   UNL     1      48.801   7.006  14.139  0.00  0.00    +0.000 A 
ATOM      4  C   UNL     1      49.995   7.382  14.740  0.00  0.00    +0.000 A 
ATOM      5  C   UNL     1      50.343   6.797  15.954  0.00  0.00    +0.000 A 
ATOM      6  C   UNL     1      49.497   5.849  16.549  0.00  0.00    +0.000 A 
ENDROOT
BRANCH   1   7
ATOM      7  N   UNL     1      47.329   4.742  16.448  0.00  0.00    +0.000 N 
ATOM      8  H   UNL     1      47.772   3.856  16.676  0.00  0.00    +0.000 HD
ATOM      9  H   UNL     1      46.894   5.183  17.261  0.00  0.00    +0.000 HD
ENDBRANCH   1   7
BRANCH   3  10
ATOM     10  C   UNL     1      48.429   7.518  12.768  0.00  0.00    +0.000 C 
BRANCH  10  11
ATOM     11  N   UNL     1      47.674   6.525  12.035  0.00  0.00    +0.000 N 
ATOM     12  C   UNL     1      46.367   6.738  11.686  0.00  0.00    +0.000 C 
ATOM     13  O   UNL     1      45.800   7.804  11.914  0.00  0.00    +0.000 OA
ATOM     14  H   UNL     1      48.017   5.570  12.105  0.00  0.00    +0.000 HD
BRANCH  12  15
ATOM     15  C   UNL     1      45.696   5.654  10.956  0.00  0.00    +0.000 A 
ATOM     16  C   UNL     1      45.770   5.616   9.569  0.00  0.00    +0.000 A 
ATOM     17  S   UNL     1      45.003   4.259   8.877  0.00  0.00    +0.000 S 
ATOM     18  C   UNL     1      44.491   3.704  10.402  0.00  0.00    +0.000 A 
ATOM     19  N   UNL     1      43.751   2.568  10.517  0.00  0.00    +0.000 NA
ATOM     20  C   UNL     1      43.402   2.281  11.726  0.00  0.00    +0.000 A 
ATOM     21  N   UNL     1      43.729   3.024  12.830  0.00  0.00    +0.000 N 
ATOM     22  C   UNL     1      44.503   4.157  12.765  0.00  0.00    +0.000 A 
ATOM     23  O   UNL     1      44.822   4.769  13.780  0.00  0.00    +0.000 OA
ATOM     24  C   UNL     1      44.916   4.532  11.426  0.00  0.00    +0.000 A 
ATOM     25  H   UNL     1      43.430   2.741  13.752  0.00  0.00    +0.000 HD
ENDBRANCH  12  15
ENDBRANCH  10  11
ENDBRANCH   3  10
BRANCH   6  26
ATOM     26  C   UNL     1      49.860   5.244  17.884  0.00  0.00    +0.000 C 
BRANCH  26  27
ATOM     27  C   UNL     1      50.559   3.897  17.858  0.00  0.00    +0.000 A 
ATOM     28  N   UNL     1      49.946   2.889  17.201  0.00  0.00    +0.000 NA
ATOM     29  C   UNL     1      50.655   1.754  17.034  0.00  0.00    +0.000 A 
ATOM     30  C   UNL     1      51.939   1.584  17.490  0.00  0.00    +0.000 A 
ATOM     31  C   UNL     1      52.471   2.654  18.165  0.00  0.00    +0.000 A 
ATOM     32  N   UNL     1      51.810   3.812  18.366  0.00  0.00    +0.000 NA
ENDBRANCH  26  27
ENDBRANCH   6  26
TORSDOF 6
ENDMDL
MODEL 7
REMARK VINA RESULT:    -7.529      2.092      2.709
REMARK INTER + INTRA:         -10.508
REMARK INTER:                  -9.476
REMARK INTRA:                  -1.032
REMARK UNBOUND:                -0.558
REMARK  Name = 
REMARK  6 active torsions:
REMARK  status: ('A' for Active; 'I' for Inactive)
REMARK    1  A    between atoms: N_1  and  C_2
REMARK    2  A    between atoms: C_4  and  C_5
REMARK    3  A    between atoms: C_5  and  N_6
REMARK    4  A    between atoms: C_7  and  C_9
REMARK    5  A    between atoms: C_21  and  C_22
REMARK    6  A    between atoms: C_22  and  C_23
REMARK                            x       y       z     vdW  Elec       q    Type
REMARK                         _______ _______ _______ _____ _____    ______ ____
ROOT
ATOM      1  C   UNL     1      46.292   4.886  12.819  0.00  0.00    +0.000 A 
ATOM      2  N   UNL     1      47.332   5.332  13.549  0.00  0.00    +0.000 NA
ATOM      3  C   UNL     1      47.913   6.506  13.205  0.00  0.00    +0.000 A 
ATOM      4  C   UNL     1      47.470   7.260  12.126  0.00  0.00    +0.000 A 
ATOM      5  C   UNL     1      46.384   6.795  11.390  0.00  0.00    +0.000 A 
ATOM      6  C   UNL     1      45.759   5.589  11.739  0.00  0.00    +0.000 A 
ENDROOT
BRANCH   1   7
ATOM      7  N   UNL     1      45.846   3.617  13.168  0.00  0.00    +0.000 N 
ATOM      8  H   UNL     1      46.668   3.026  13.261  0.00  0.00    +0.000 HD
ATOM      9  H   UNL     1      45.280   3.637  14.017  0.00  0.00    +0.000 HD
ENDBRANCH   1   7
BRANCH   3  10
ATOM     10  C   UNL     1      49.009   7.018  14.109  0.00  0.00    +0.000 C 
BRANCH  10  11
ATOM     11  N   UNL     1      48.657   6.831  15.501  0.00  0.00    +0.000 N 
ATOM     12  C   UNL     1      49.037   7.732  16.459  0.00  0.00    +0.000 C 
ATOM     13  O   UNL     1      49.627   8.772  16.175  0.00  0.00    +0.000 OA
ATOM     14  H   UNL     1      48.446   5.876  15.777  0.00  0.00    +0.000 HD
BRANCH  12  15
ATOM     15  C   UNL     1      48.637   7.433  17.840  0.00  0.00    +0.000 A 
ATOM     16  C   UNL     1      48.025   8.418  18.605  0.00  0.00    +0.000 A 
ATOM     17  S   UNL     1      47.556   7.893  20.157  0.00  0.00    +0.000 S 
ATOM     18  C   UNL     1      48.206   6.344  19.887  0.00  0.00    +0.000 A 
ATOM     19  N   UNL     1      48.152   5.387  20.854  0.00  0.00    +0.000 NA
ATOM     20  C   UNL     1      48.712   4.271  20.530  0.00  0.00    +0.000 A 
ATOM     21  N   UNL     1      49.317   4.022  19.325  0.00  0.00    +0.000 N 
ATOM     22  C   UNL     1      49.364   4.945  18.308  0.00  0.00    +0.000 A 
ATOM     23  O   UNL     1      49.867   4.671  17.223  0.00  0.00    +0.000 OA
ATOM     24  C   UNL     1      48.756   6.223  18.623  0.00  0.00    +0.000 A 
ATOM     25  H   UNL     1      49.733   3.123  19.130  0.00  0.00    +0.000 HD
ENDBRANCH  12  15
ENDBRANCH  10  11
ENDBRANCH   3  10
BRANCH   6  26
ATOM     26  C   UNL     1      44.605   5.068  10.915  0.00  0.00    +0.000 C 
BRANCH  26  27
ATOM     27  C   UNL     1      44.949   4.137   9.767  0.00  0.00    +0.000 A 
ATOM     28  N   UNL     1      45.476   4.688   8.653  0.00  0.00    +0.000 NA
ATOM     29  C   UNL     1      45.940   3.838   7.716  0.00  0.00    +0.000 A 
ATOM     30  C   UNL     1      45.900   2.470   7.842  0.00  0.00    +0.000 A 
ATOM     31  C   UNL     1      45.327   2.002   8.998  0.00  0.00    +0.000 A 
ATOM     32  N   UNL     1      44.844   2.803   9.968  0.00  0.00    +0.000 NA
ENDBRANCH  26  27
ENDBRANCH   6  26
TORSDOF 6
ENDMDL
MODEL 8
REMARK VINA RESULT:    -7.227      3.875      8.664
REMARK INTER + INTRA:         -10.108
REMARK INTER:                  -9.591
REMARK INTRA:                  -0.517
REMARK UNBOUND:                -0.558
REMARK  Name = 
REMARK  6 active torsions:
REMARK  status: ('A' for Active; 'I' for Inactive)
REMARK    1  A    between atoms: N_1  and  C_2
REMARK    2  A    between atoms: C_4  and  C_5
REMARK    3  A    between atoms: C_5  and  N_6
REMARK    4  A    between atoms: C_7  and  C_9
REMARK    5  A    between atoms: C_21  and  C_22
REMARK    6  A    between atoms: C_22  and  C_23
REMARK                            x       y       z     vdW  Elec       q    Type
REMARK                         _______ _______ _______ _____ _____    ______ ____
ROOT
ATOM      1  C   UNL     1      50.616   4.363  17.952  0.00  0.00    +0.000 A 
ATOM      2  N   UNL     1      49.298   4.392  17.674  0.00  0.00    +0.000 NA
ATOM      3  C   UNL     1      48.724   3.295  17.126  0.00  0.00    +0.000 A 
ATOM      4  C   UNL     1      49.451   2.146  16.842  0.00  0.00    +0.000 A 
ATOM      5  C   UNL     1      50.809   2.124  17.148  0.00  0.00    +0.000 A 
ATOM      6  C   UNL     1      51.419   3.246  17.730  0.00  0.00    +0.000 A 
ENDROOT
BRANCH   1   7
ATOM      7  N   UNL     1      51.138   5.574  18.391  0.00  0.00    +0.000 N 
ATOM      8  H   UNL     1      51.793   5.892  17.681  0.00  0.00    +0.000 HD
ATOM      9  H   UNL     1      50.401   6.255  18.578  0.00  0.00    +0.000 HD
ENDBRANCH   1   7
BRANCH   3  10
ATOM     10  C   UNL     1      47.228   3.334  16.926  0.00  0.00    +0.000 C 
BRANCH  10  11
ATOM     11  N   UNL     1      46.865   4.336  15.947  0.00  0.00    +0.000 N 
ATOM     12  C   UNL     1      46.946   4.083  14.604  0.00  0.00    +0.000 C 
ATOM     13  O   UNL     1      47.259   2.978  14.170  0.00  0.00    +0.000 OA
ATOM     14  H   UNL     1      46.895   5.300  16.272  0.00  0.00    +0.000 HD
BRANCH  12  15
ATOM     15  C   UNL     1      46.566   5.180  13.704  0.00  0.00    +0.000 A 
ATOM     16  C   UNL     1      47.472   6.200  13.446  0.00  0.00    +0.000 A 
ATOM     17  S   UNL     1      46.908   7.356  12.328  0.00  0.00    +0.000 S 
ATOM     18  C   UNL     1      45.407   6.568  12.190  0.00  0.00    +0.000 A 
ATOM     19  N   UNL     1      44.430   7.064  11.383  0.00  0.00    +0.000 NA
ATOM     20  C   UNL     1      43.331   6.388  11.398  0.00  0.00    +0.000 A 
ATOM     21  N   UNL     1      43.121   5.258  12.145  0.00  0.00    +0.000 N 
ATOM     22  C   UNL     1      44.089   4.701  12.946  0.00  0.00    +0.000 A 
ATOM     23  O   UNL     1      43.885   3.658  13.559  0.00  0.00    +0.000 OA
ATOM     24  C   UNL     1      45.344   5.427  12.972  0.00  0.00    +0.000 A 
ATOM     25  H   UNL     1      42.239   4.769  12.108  0.00  0.00    +0.000 HD
ENDBRANCH  12  15
ENDBRANCH  10  11
ENDBRANCH   3  10
BRANCH   6  26
ATOM     26  C   UNL     1      52.900   3.232  18.026  0.00  0.00    +0.000 C 
BRANCH  26  27
ATOM     27  C   UNL     1      53.636   1.929  17.772  0.00  0.00    +0.000 A 
ATOM     28  N   UNL     1      54.627   1.941  16.856  0.00  0.00    +0.000 NA
ATOM     29  C   UNL     1      55.386   0.830  16.768  0.00  0.00    +0.000 A 
ATOM     30  C   UNL     1      55.200  -0.283  17.552  0.00  0.00    +0.000 A 
ATOM     31  C   UNL     1      54.156  -0.211  18.439  0.00  0.00    +0.000 A 
ATOM     32  N   UNL     1      53.361   0.870  18.569  0.00  0.00    +0.000 NA
ENDBRANCH  26  27
ENDBRANCH   6  26
TORSDOF 6
ENDMDL
MODEL 9
REMARK VINA RESULT:    -7.130      3.306      4.296
REMARK INTER + INTRA:          -9.981
REMARK INTER:                  -8.902
REMARK INTRA:                  -1.079
REMARK UNBOUND:                -0.558
REMARK  Name = 
REMARK  6 active torsions:
REMARK  status: ('A' for Active; 'I' for Inactive)
REMARK    1  A    between atoms: N_1  and  C_2
REMARK    2  A    between atoms: C_4  and  C_5
REMARK    3  A    between atoms: C_5  and  N_6
REMARK    4  A    between atoms: C_7  and  C_9
REMARK    5  A    between atoms: C_21  and  C_22
REMARK    6  A    between atoms: C_22  and  C_23
REMARK                            x       y       z     vdW  Elec       q    Type
REMARK                         _______ _______ _______ _____ _____    ______ ____
ROOT
ATOM      1  C   UNL     1      45.626   4.218  12.328  0.00  0.00    +0.000 A 
ATOM      2  N   UNL     1      46.419   4.712  13.298  0.00  0.00    +0.000 NA
ATOM      3  C   UNL     1      46.930   5.958  13.150  0.00  0.00    +0.000 A 
ATOM      4  C   UNL     1      46.662   6.737  12.032  0.00  0.00    +0.000 A 
ATOM      5  C   UNL     1      45.829   6.220  11.044  0.00  0.00    +0.000 A 
ATOM      6  C   UNL     1      45.278   4.938  11.186  0.00  0.00    +0.000 A 
ENDROOT
BRANCH   1   7
ATOM      7  N   UNL     1      45.256   2.891  12.507  0.00  0.00    +0.000 N 
ATOM      8  H   UNL     1      44.466   2.884  13.146  0.00  0.00    +0.000 HD
ATOM      9  H   UNL     1      45.044   2.437  11.617  0.00  0.00    +0.000 HD
ENDBRANCH   1   7
BRANCH   3  10
ATOM     10  C   UNL     1      47.729   6.511  14.306  0.00  0.00    +0.000 C 
BRANCH  10  11
ATOM     11  N   UNL     1      49.022   6.984  13.859  0.00  0.00    +0.000 N 
ATOM     12  C   UNL     1      49.303   8.322  13.780  0.00  0.00    +0.000 C 
ATOM     13  O   UNL     1      48.502   9.175  14.151  0.00  0.00    +0.000 OA
ATOM     14  H   UNL     1      49.557   6.332  13.291  0.00  0.00    +0.000 HD
BRANCH  12  15
ATOM     15  C   UNL     1      50.642   8.685  13.300  0.00  0.00    +0.000 A 
ATOM     16  C   UNL     1      50.775   9.393  12.112  0.00  0.00    +0.000 A 
ATOM     17  S   UNL     1      52.385   9.801  11.730  0.00  0.00    +0.000 S 
ATOM     18  C   UNL     1      52.972   8.995  13.109  0.00  0.00    +0.000 A 
ATOM     19  N   UNL     1      54.306   8.947  13.372  0.00  0.00    +0.000 NA
ATOM     20  C   UNL     1      54.616   8.275  14.430  0.00  0.00    +0.000 A 
ATOM     21  N   UNL     1      53.713   7.651  15.250  0.00  0.00    +0.000 N 
ATOM     22  C   UNL     1      52.355   7.703  15.043  0.00  0.00    +0.000 A 
ATOM     23  O   UNL     1      51.571   7.177  15.827  0.00  0.00    +0.000 OA
ATOM     24  C   UNL     1      51.952   8.439  13.860  0.00  0.00    +0.000 A 
ATOM     25  H   UNL     1      54.019   7.145  16.069  0.00  0.00    +0.000 HD
ENDBRANCH  12  15
ENDBRANCH  10  11
ENDBRANCH   3  10
BRANCH   6  26
ATOM     26  C   UNL     1      44.404   4.365  10.094  0.00  0.00    +0.000 C 
BRANCH  26  27
ATOM     27  C   UNL     1      45.102   3.567   9.009  0.00  0.00    +0.000 A 
ATOM     28  N   UNL     1      45.651   4.253   7.984  0.00  0.00    +0.000 NA
ATOM     29  C   UNL     1      46.416   3.552   7.124  0.00  0.00    +0.000 A 
ATOM     30  C   UNL     1      46.655   2.204   7.242  0.00  0.00    +0.000 A 
ATOM     31  C   UNL     1      46.037   1.587   8.301  0.00  0.00    +0.000 A 
ATOM     32  N   UNL     1      45.259   2.235   9.191  0.00  0.00    +0.000 NA
ENDBRANCH  26  27
ENDBRANCH   6  26
TORSDOF 6
ENDMDL
