MODEL 1
REMARK VINA RESULT:    -8.073      0.000      0.000
REMARK INTER + INTRA:         -12.231
REMARK INTER:                 -11.376
REMARK INTRA:                  -0.855
REMARK UNBOUND:                -0.855
REMARK  Name = 
REMARK  8 active torsions:
REMARK  status: ('A' for Active; 'I' for Inactive)
REMARK    1  A    between atoms: C_1  and  O_2
REMARK    2  A    between atoms: O_2  and  C_3
REMARK    3  A    between atoms: C_5  and  C_6
REMARK    4  A    between atoms: C_11  and  N_12
REMARK    5  A    between atoms: N_12  and  C_13
REMARK    6  A    between atoms: C_13  and  C_14
REMARK    7  A    between atoms: C_18  and  C_19
REMARK    8  A    between atoms: C_23  and  C_24
REMARK                            x       y       z     vdW  Elec       q    Type
REMARK                         _______ _______ _______ _____ _____    ______ ____
ROOT
ATOM      1  N   UNL     1      43.798   5.501  10.244  0.00  0.00    +0.000 N 
ATOM      2  H   UNL     1      43.187   6.025   9.634  0.00  0.00    +0.000 HD
ENDROOT
BRANCH   1   8
ATOM      3  C   UNL     1      44.188   3.068   9.975  0.00  0.00    +0.000 A 
ATOM      4  C   UNL     1      44.907   2.083   9.290  0.00  0.00    +0.000 A 
ATOM      5  C   UNL     1      45.863   2.431   8.345  0.00  0.00    +0.000 A 
ATOM      6  C   UNL     1      46.045   3.781   8.106  0.00  0.00    +0.000 A 
ATOM      7  N   UNL     1      45.355   4.768   8.741  0.00  0.00    +0.000 NA
ATOM      8  C   UNL     1      44.427   4.424   9.667  0.00  0.00    +0.000 A 
BRANCH   5   9
ATOM      9  C   UNL     1      46.606   1.336   7.674  0.00  0.00    +0.000 C 
ATOM     10  N   UNL     1      47.449   1.635   6.649  0.00  0.00    +0.000 N 
ATOM     11  O   UNL     1      46.476   0.171   8.035  0.00  0.00    +0.000 OA
ATOM     12  H   UNL     1      47.639   2.556   6.282  0.00  0.00    +0.000 HD
ATOM     13  H   UNL     1      47.939   0.854   6.227  0.00  0.00    +0.000 HD
ENDBRANCH   5   9
BRANCH   3  15
ATOM     14  C   UNL     1      43.707   2.524  12.233  0.00  0.00    +0.000 C 
ATOM     15  O   UNL     1      43.232   2.736  10.906  0.00  0.00    +0.000 OA
ENDBRANCH   3  15
ENDBRANCH   1   8
BRANCH   1  16
ATOM     16  C   UNL     1      43.968   5.890  11.619  0.00  0.00    +0.000 C 
BRANCH  16  17
ATOM     17  C   UNL     1      45.416   6.049  12.017  0.00  0.00    +0.000 A 
ATOM     18  C   UNL     1      46.270   6.908  11.320  0.00  0.00    +0.000 A 
ATOM     19  C   UNL     1      47.557   7.152  11.794  0.00  0.00    +0.000 A 
ATOM     20  C   UNL     1      47.993   6.554  12.979  0.00  0.00    +0.000 A 
ATOM     21  C   UNL     1      47.157   5.700  13.718  0.00  0.00    +0.000 A 
ATOM     22  C   UNL     1      45.882   5.429  13.188  0.00  0.00    +0.000 A 
BRANCH  21  23
ATOM     23  C   UNL     1      47.571   5.152  15.029  0.00  0.00    +0.000 A 
ATOM     24  C   UNL     1      47.163   3.873  15.450  0.00  0.00    +0.000 A 
ATOM     25  C   UNL     1      47.544   3.357  16.690  0.00  0.00    +0.000 A 
ATOM     26  C   UNL     1      48.363   4.103  17.533  0.00  0.00    +0.000 A 
ATOM     27  C   UNL     1      48.786   5.375  17.147  0.00  0.00    +0.000 A 
ATOM     28  C   UNL     1      48.372   5.900  15.915  0.00  0.00    +0.000 A 
BRANCH  27  29
ATOM     29  C   UNL     1      49.660   6.133  17.992  0.00  0.00    +0.000 C 
ATOM     30  N   UNL     1      50.384   6.748  18.665  0.00  0.00    +0.000 NA
ENDBRANCH  27  29
ENDBRANCH  21  23
ENDBRANCH  16  17
ENDBRANCH   1  16
TORSDOF 7
ENDMDL
MODEL 2
REMARK VINA RESULT:    -8.020      2.407      4.026
REMARK INTER + INTRA:         -12.158
REMARK INTER:                 -11.280
REMARK INTRA:                  -0.878
REMARK UNBOUND:                -0.855
REMARK  Name = 
REMARK  8 active torsions:
REMARK  status: ('A' for Active; 'I' for Inactive)
REMARK    1  A    between atoms: C_1  and  O_2
REMARK    2  A    between atoms: O_2  and  C_3
REMARK    3  A    between atoms: C_5  and  C_6
REMARK    4  A    between atoms: C_11  and  N_12
REMARK    5  A    between atoms: N_12  and  C_13
REMARK    6  A    between atoms: C_13  and  C_14
REMARK    7  A    between atoms: C_18  and  C_19
REMARK    8  A    between atoms: C_23  and  C_24
REMARK                            x       y       z     vdW  Elec       q    Type
REMARK                         _______ _______ _______ _____ _____    ______ ____
ROOT
ATOM      1  N   UNL     1      43.914   5.538  10.101  0.00  0.00    +0.000 N 
ATOM      2  H   UNL     1      43.585   6.212   9.424  0.00  0.00    +0.000 HD
ENDROOT
BRANCH   1   8
ATOM      3  C   UNL     1      44.251   3.092   9.893  0.00  0.00    +0.000 A 
ATOM      4  C   UNL     1      44.982   2.076   9.267  0.00  0.00    +0.000 A 
ATOM      5  C   UNL     1      46.001   2.383   8.375  0.00  0.00    +0.000 A 
ATOM      6  C   UNL     1      46.235   3.723   8.127  0.00  0.00    +0.000 A 
ATOM      7  N   UNL     1      45.536   4.739   8.704  0.00  0.00    +0.000 NA
ATOM      8  C   UNL     1      44.546   4.436   9.579  0.00  0.00    +0.000 A 
BRANCH   5   9
ATOM      9  C   UNL     1      46.752   1.258   7.767  0.00  0.00    +0.000 C 
ATOM     10  N   UNL     1      47.832   1.524   6.984  0.00  0.00    +0.000 N 
ATOM     11  O   UNL     1      46.417   0.094   7.965  0.00  0.00    +0.000 OA
ATOM     12  H   UNL     1      48.200   2.439   6.767  0.00  0.00    +0.000 HD
ATOM     13  H   UNL     1      48.316   0.722   6.596  0.00  0.00    +0.000 HD
ENDBRANCH   5   9
BRANCH   3  15
ATOM     14  C   UNL     1      43.633   2.237  12.017  0.00  0.00    +0.000 C 
ATOM     15  O   UNL     1      43.234   2.802  10.771  0.00  0.00    +0.000 OA
ENDBRANCH   3  15
ENDBRANCH   1   8
BRANCH   1  16
ATOM     16  C   UNL     1      43.712   5.759  11.509  0.00  0.00    +0.000 C 
BRANCH  16  17
ATOM     17  C   UNL     1      45.003   5.892  12.281  0.00  0.00    +0.000 A 
ATOM     18  C   UNL     1      45.393   4.926  13.214  0.00  0.00    +0.000 A 
ATOM     19  C   UNL     1      46.654   4.991  13.803  0.00  0.00    +0.000 A 
ATOM     20  C   UNL     1      47.541   6.012  13.449  0.00  0.00    +0.000 A 
ATOM     21  C   UNL     1      47.193   6.988  12.501  0.00  0.00    +0.000 A 
ATOM     22  C   UNL     1      45.894   6.929  11.963  0.00  0.00    +0.000 A 
BRANCH  21  23
ATOM     23  C   UNL     1      48.165   8.004  12.040  0.00  0.00    +0.000 A 
ATOM     24  C   UNL     1      47.800   9.355  11.894  0.00  0.00    +0.000 A 
ATOM     25  C   UNL     1      48.712  10.314  11.451  0.00  0.00    +0.000 A 
ATOM     26  C   UNL     1      50.023   9.946  11.160  0.00  0.00    +0.000 A 
ATOM     27  C   UNL     1      50.419   8.616  11.293  0.00  0.00    +0.000 A 
ATOM     28  C   UNL     1      49.489   7.652  11.707  0.00  0.00    +0.000 A 
BRANCH  27  29
ATOM     29  C   UNL     1      51.776   8.236  11.032  0.00  0.00    +0.000 C 
ATOM     30  N   UNL     1      52.872   7.910  10.815  0.00  0.00    +0.000 NA
ENDBRANCH  27  29
ENDBRANCH  21  23
ENDBRANCH  16  17
ENDBRANCH   1  16
TORSDOF 7
ENDMDL
MODEL 3
REMARK VINA RESULT:    -7.836      3.288      8.721
REMARK INTER + INTRA:         -11.897
REMARK INTER:                 -11.274
REMARK INTRA:                  -0.624
REMARK UNBOUND:                -0.855
REMARK  Name = 
REMARK  8 active torsions:
REMARK  status: ('A' for Active; 'I' for Inactive)
REMARK    1  A    between atoms: C_1  and  O_2
REMARK    2  A    between atoms: O_2  and  C_3
REMARK    3  A    between atoms: C_5  and  C_6
REMARK    4  A    between atoms: C_11  and  N_12
REMARK    5  A    between atoms: N_12  and  C_13
REMARK    6  A    between atoms: C_13  and  C_14
REMARK    7  A    between atoms: C_18  and  C_19
REMARK    8  A    between atoms: C_23  and  C_24
REMARK                            x       y       z     vdW  Elec       q    Type
REMARK                         _______ _______ _______ _____ _____    ______ ____
ROOT
ATOM      1  N   UNL     1      46.548   4.311  14.405  0.00  0.00    +0.000 N 
ATOM      2  H   UNL     1      46.626   3.428  13.920  0.00  0.00    +0.000 HD
ENDROOT
BRANCH   1   8
ATOM      3  C   UNL     1      48.270   5.289  15.894  0.00  0.00    +0.000 A 
ATOM      4  C   UNL     1      48.854   5.253  17.165  0.00  0.00    +0.000 A 
ATOM      5  C   UNL     1      48.433   4.328  18.112  0.00  0.00    +0.000 A 
ATOM      6  C   UNL     1      47.408   3.476  17.744  0.00  0.00    +0.000 A 
ATOM      7  N   UNL     1      46.805   3.491  16.523  0.00  0.00    +0.000 NA
ATOM      8  C   UNL     1      47.223   4.391  15.600  0.00  0.00    +0.000 A 
BRANCH   5   9
ATOM      9  C   UNL     1      49.112   4.328  19.431  0.00  0.00    +0.000 C 
ATOM     10  N   UNL     1      48.454   3.841  20.517  0.00  0.00    +0.000 N 
ATOM     11  O   UNL     1      50.256   4.753  19.552  0.00  0.00    +0.000 OA
ATOM     12  H   UNL     1      47.521   3.458  20.528  0.00  0.00    +0.000 HD
ATOM     13  H   UNL     1      48.962   3.857  21.395  0.00  0.00    +0.000 HD
ENDBRANCH   5   9
BRANCH   3  15
ATOM     14  C   UNL     1      49.751   7.054  15.332  0.00  0.00    +0.000 C 
ATOM     15  O   UNL     1      48.672   6.206  14.951  0.00  0.00    +0.000 OA
ENDBRANCH   3  15
ENDBRANCH   1   8
BRANCH   1  16
ATOM     16  C   UNL     1      45.770   5.386  13.848  0.00  0.00    +0.000 C 
BRANCH  16  17
ATOM     17  C   UNL     1      44.909   4.957  12.685  0.00  0.00    +0.000 A 
ATOM     18  C   UNL     1      43.549   5.275  12.632  0.00  0.00    +0.000 A 
ATOM     19  C   UNL     1      42.809   5.001  11.484  0.00  0.00    +0.000 A 
ATOM     20  C   UNL     1      43.428   4.423  10.373  0.00  0.00    +0.000 A 
ATOM     21  C   UNL     1      44.797   4.107  10.380  0.00  0.00    +0.000 A 
ATOM     22  C   UNL     1      45.507   4.345  11.571  0.00  0.00    +0.000 A 
BRANCH  21  23
ATOM     23  C   UNL     1      45.483   3.598   9.171  0.00  0.00    +0.000 A 
ATOM     24  C   UNL     1      45.950   4.472   8.172  0.00  0.00    +0.000 A 
ATOM     25  C   UNL     1      46.590   3.996   7.027  0.00  0.00    +0.000 A 
ATOM     26  C   UNL     1      46.795   2.629   6.862  0.00  0.00    +0.000 A 
ATOM     27  C   UNL     1      46.345   1.734   7.832  0.00  0.00    +0.000 A 
ATOM     28  C   UNL     1      45.674   2.218   8.964  0.00  0.00    +0.000 A 
BRANCH  27  29
ATOM     29  C   UNL     1      46.587   0.329   7.688  0.00  0.00    +0.000 C 
ATOM     30  N   UNL     1      46.800  -0.810   7.581  0.00  0.00    +0.000 NA
ENDBRANCH  27  29
ENDBRANCH  21  23
ENDBRANCH  16  17
ENDBRANCH   1  16
TORSDOF 7
ENDMDL
MODEL 4
REMARK VINA RESULT:    -7.252      3.071      8.263
REMARK INTER + INTRA:         -11.075
REMARK INTER:                  -9.933
REMARK INTRA:                  -1.142
REMARK UNBOUND:                -0.855
REMARK  Name = 
REMARK  8 active torsions:
REMARK  status: ('A' for Active; 'I' for Inactive)
REMARK    1  A    between atoms: C_1  and  O_2
REMARK    2  A    between atoms: O_2  and  C_3
REMARK    3  A    between atoms: C_5  and  C_6
REMARK    4  A    between atoms: C_11  and  N_12
REMARK    5  A    between atoms: N_12  and  C_13
REMARK    6  A    between atoms: C_13  and  C_14
REMARK    7  A    between atoms: C_18  and  C_19
REMARK    8  A    between atoms: C_23  and  C_24
REMARK                            x       y       z     vdW  Elec       q    Type
REMARK                         _______ _______ _______ _____ _____    ______ ____
ROOT
ATOM      1  N   UNL     1      46.773   7.638  12.075  0.00  0.00    +0.000 N 
ATOM      2  H   UNL     1      47.361   7.722  11.257  0.00  0.00    +0.000 HD
ENDROOT
BRANCH   1   8
ATOM      3  C   UNL     1      47.910   6.414  13.905  0.00  0.00    +0.000 A 
ATOM      4  C   UNL     1      48.580   6.527  15.128  0.00  0.00    +0.000 A 
ATOM      5  C   UNL     1      48.752   7.767  15.730  0.00  0.00    +0.000 A 
ATOM      6  C   UNL     1      48.253   8.865  15.055  0.00  0.00    +0.000 A 
ATOM      7  N   UNL     1      47.610   8.798  13.857  0.00  0.00    +0.000 NA
ATOM      8  C   UNL     1      47.438   7.586  13.276  0.00  0.00    +0.000 A 
BRANCH   5   9
ATOM      9  C   UNL     1      49.450   7.811  17.039  0.00  0.00    +0.000 C 
ATOM     10  N   UNL     1      50.158   6.726  17.452  0.00  0.00    +0.000 N 
ATOM     11  O   UNL     1      49.402   8.812  17.746  0.00  0.00    +0.000 OA
ATOM     12  H   UNL     1      50.273   5.860  16.945  0.00  0.00    +0.000 HD
ATOM     13  H   UNL     1      50.622   6.807  18.350  0.00  0.00    +0.000 HD
ENDBRANCH   5   9
BRANCH   3  15
ATOM     14  C   UNL     1      46.804   4.316  13.911  0.00  0.00    +0.000 C 
ATOM     15  O   UNL     1      47.742   5.194  13.294  0.00  0.00    +0.000 OA
ENDBRANCH   3  15
ENDBRANCH   1   8
BRANCH   1  16
ATOM     16  C   UNL     1      45.341   7.582  11.945  0.00  0.00    +0.000 C 
BRANCH  16  17
ATOM     17  C   UNL     1      44.836   6.227  11.512  0.00  0.00    +0.000 A 
ATOM     18  C   UNL     1      43.617   5.725  11.978  0.00  0.00    +0.000 A 
ATOM     19  C   UNL     1      43.099   4.544  11.451  0.00  0.00    +0.000 A 
ATOM     20  C   UNL     1      43.788   3.865  10.442  0.00  0.00    +0.000 A 
ATOM     21  C   UNL     1      45.006   4.349   9.935  0.00  0.00    +0.000 A 
ATOM     22  C   UNL     1      45.531   5.514  10.522  0.00  0.00    +0.000 A 
BRANCH  21  23
ATOM     23  C   UNL     1      45.684   3.697   8.792  0.00  0.00    +0.000 A 
ATOM     24  C   UNL     1      46.210   4.451   7.726  0.00  0.00    +0.000 A 
ATOM     25  C   UNL     1      46.842   3.840   6.642  0.00  0.00    +0.000 A 
ATOM     26  C   UNL     1      46.982   2.455   6.609  0.00  0.00    +0.000 A 
ATOM     27  C   UNL     1      46.472   1.677   7.648  0.00  0.00    +0.000 A 
ATOM     28  C   UNL     1      45.809   2.296   8.717  0.00  0.00    +0.000 A 
BRANCH  27  29
ATOM     29  C   UNL     1      46.646   0.255   7.639  0.00  0.00    +0.000 C 
ATOM     30  N   UNL     1      46.773  -0.902   7.645  0.00  0.00    +0.000 NA
ENDBRANCH  27  29
ENDBRANCH  21  23
ENDBRANCH  16  17
ENDBRANCH   1  16
TORSDOF 7
ENDMDL
MODEL 5
REMARK VINA RESULT:    -6.999      3.074      8.454
REMARK INTER + INTRA:         -10.718
REMARK INTER:                  -9.977
REMARK INTRA:                  -0.741
REMARK UNBOUND:                -0.855
REMARK  Name = 
REMARK  8 active torsions:
REMARK  status: ('A' for Active; 'I' for Inactive)
REMARK    1  A    between atoms: C_1  and  O_2
REMARK    2  A    between atoms: O_2  and  C_3
REMARK    3  A    between atoms: C_5  and  C_6
REMARK    4  A    between atoms: C_11  and  N_12
REMARK    5  A    between atoms: N_12  and  C_13
REMARK    6  A    between atoms: C_13  and  C_14
REMARK    7  A    between atoms: C_18  and  C_19
REMARK    8  A    between atoms: C_23  and  C_24
REMARK                            x       y       z     vdW  Elec       q    Type
REMARK                         _______ _______ _______ _____ _____    ______ ____
ROOT
ATOM      1  N   UNL     1      46.439   5.119  14.368  0.00  0.00    +0.000 N 
ATOM      2  H   UNL     1      45.991   4.223  14.498  0.00  0.00    +0.000 HD
ENDROOT
BRANCH   1   8
ATOM      3  C   UNL     1      47.832   4.679  16.369  0.00  0.00    +0.000 A 
ATOM      4  C   UNL     1      48.992   5.030  17.069  0.00  0.00    +0.000 A 
ATOM      5  C   UNL     1      49.817   6.047  16.608  0.00  0.00    +0.000 A 
ATOM      6  C   UNL     1      49.448   6.668  15.429  0.00  0.00    +0.000 A 
ATOM      7  N   UNL     1      48.337   6.345  14.712  0.00  0.00    +0.000 NA
ATOM      8  C   UNL     1      47.531   5.356  15.169  0.00  0.00    +0.000 A 
BRANCH   5   9
ATOM      9  C   UNL     1      51.017   6.384  17.412  0.00  0.00    +0.000 C 
ATOM     10  N   UNL     1      50.954   7.409  18.304  0.00  0.00    +0.000 N 
ATOM     11  O   UNL     1      52.059   5.748  17.290  0.00  0.00    +0.000 OA
ATOM     12  H   UNL     1      50.148   7.987  18.493  0.00  0.00    +0.000 HD
ATOM     13  H   UNL     1      51.798   7.597  18.834  0.00  0.00    +0.000 HD
ENDBRANCH   5   9
BRANCH   3  15
ATOM     14  C   UNL     1      47.592   2.763  17.746  0.00  0.00    +0.000 C 
ATOM     15  O   UNL     1      47.012   3.668  16.810  0.00  0.00    +0.000 OA
ENDBRANCH   3  15
ENDBRANCH   1   8
BRANCH   1  16
ATOM     16  C   UNL     1      45.934   6.056  13.400  0.00  0.00    +0.000 C 
BRANCH  16  17
ATOM     17  C   UNL     1      45.057   5.414  12.352  0.00  0.00    +0.000 A 
ATOM     18  C   UNL     1      43.671   5.599  12.354  0.00  0.00    +0.000 A 
ATOM     19  C   UNL     1      42.899   5.123  11.296  0.00  0.00    +0.000 A 
ATOM     20  C   UNL     1      43.510   4.475  10.219  0.00  0.00    +0.000 A 
ATOM     21  C   UNL     1      44.902   4.288  10.172  0.00  0.00    +0.000 A 
ATOM     22  C   UNL     1      45.650   4.731  11.278  0.00  0.00    +0.000 A 
BRANCH  21  23
ATOM     23  C   UNL     1      45.567   3.704   8.985  0.00  0.00    +0.000 A 
ATOM     24  C   UNL     1      46.050   4.516   7.942  0.00  0.00    +0.000 A 
ATOM     25  C   UNL     1      46.670   3.968   6.818  0.00  0.00    +0.000 A 
ATOM     26  C   UNL     1      46.839   2.589   6.719  0.00  0.00    +0.000 A 
ATOM     27  C   UNL     1      46.372   1.755   7.735  0.00  0.00    +0.000 A 
ATOM     28  C   UNL     1      45.722   2.310   8.845  0.00  0.00    +0.000 A 
BRANCH  27  29
ATOM     29  C   UNL     1      46.578   0.339   7.658  0.00  0.00    +0.000 C 
ATOM     30  N   UNL     1      46.748  -0.812   7.616  0.00  0.00    +0.000 NA
ENDBRANCH  27  29
ENDBRANCH  21  23
ENDBRANCH  16  17
ENDBRANCH   1  16
TORSDOF 7
ENDMDL
MODEL 6
REMARK VINA RESULT:    -6.872      3.548      7.836
REMARK INTER + INTRA:         -10.539
REMARK INTER:                  -9.655
REMARK INTRA:                  -0.884
REMARK UNBOUND:                -0.855
REMARK  Name = 
REMARK  8 active torsions:
REMARK  status: ('A' for Active; 'I' for Inactive)
REMARK    1  A    between atoms: C_1  and  O_2
REMARK    2  A    between atoms: O_2  and  C_3
REMARK    3  A    between atoms: C_5  and  C_6
REMARK    4  A    between atoms: C_11  and  N_12
REMARK    5  A    between atoms: N_12  and  C_13
REMARK    6  A    between atoms: C_13  and  C_14
REMARK    7  A    between atoms: C_18  and  C_19
REMARK    8  A    between atoms: C_23  and  C_24
REMARK                            x       y       z     vdW  Elec       q    Type
REMARK                         _______ _______ _______ _____ _____    ______ ____
ROOT
ATOM      1  N   UNL     1      46.446   6.366  14.028  0.00  0.00    +0.000 N 
ATOM      2  H   UNL     1      45.854   7.038  14.496  0.00  0.00    +0.000 HD
ENDROOT
BRANCH   1   8
ATOM      3  C   UNL     1      48.715   7.328  14.283  0.00  0.00    +0.000 A 
ATOM      4  C   UNL     1      49.851   7.800  13.616  0.00  0.00    +0.000 A 
ATOM      5  C   UNL     1      49.892   7.842  12.228  0.00  0.00    +0.000 A 
ATOM      6  C   UNL     1      48.777   7.379  11.554  0.00  0.00    +0.000 A 
ATOM      7  N   UNL     1      47.660   6.899  12.167  0.00  0.00    +0.000 NA
ATOM      8  C   UNL     1      47.622   6.865  13.521  0.00  0.00    +0.000 A 
BRANCH   5   9
ATOM      9  C   UNL     1      51.117   8.378  11.587  0.00  0.00    +0.000 C 
ATOM     10  N   UNL     1      52.178   7.551  11.385  0.00  0.00    +0.000 N 
ATOM     11  O   UNL     1      51.183   9.550  11.230  0.00  0.00    +0.000 OA
ATOM     12  H   UNL     1      52.226   6.572  11.627  0.00  0.00    +0.000 HD
ATOM     13  H   UNL     1      52.990   7.961  10.938  0.00  0.00    +0.000 HD
ENDBRANCH   5   9
BRANCH   3  15
ATOM     14  C   UNL     1      49.182   6.084  16.247  0.00  0.00    +0.000 C 
ATOM     15  O   UNL     1      48.666   7.273  15.656  0.00  0.00    +0.000 OA
ENDBRANCH   3  15
ENDBRANCH   1   8
BRANCH   1  16
ATOM     16  C   UNL     1      46.046   4.987  13.924  0.00  0.00    +0.000 C 
BRANCH  16  17
ATOM     17  C   UNL     1      45.126   4.721  12.758  0.00  0.00    +0.000 A 
ATOM     18  C   UNL     1      43.809   5.191  12.751  0.00  0.00    +0.000 A 
ATOM     19  C   UNL     1      43.026   5.065  11.605  0.00  0.00    +0.000 A 
ATOM     20  C   UNL     1      43.560   4.484  10.452  0.00  0.00    +0.000 A 
ATOM     21  C   UNL     1      44.885   4.017  10.414  0.00  0.00    +0.000 A 
ATOM     22  C   UNL     1      45.635   4.110  11.601  0.00  0.00    +0.000 A 
BRANCH  21  23
ATOM     23  C   UNL     1      45.492   3.504   9.165  0.00  0.00    +0.000 A 
ATOM     24  C   UNL     1      45.854   4.370   8.117  0.00  0.00    +0.000 A 
ATOM     25  C   UNL     1      46.419   3.889   6.935  0.00  0.00    +0.000 A 
ATOM     26  C   UNL     1      46.653   2.525   6.781  0.00  0.00    +0.000 A 
ATOM     27  C   UNL     1      46.306   1.638   7.799  0.00  0.00    +0.000 A 
ATOM     28  C   UNL     1      45.709   2.125   8.970  0.00  0.00    +0.000 A 
BRANCH  27  29
ATOM     29  C   UNL     1      46.579   0.238   7.663  0.00  0.00    +0.000 C 
ATOM     30  N   UNL     1      46.789  -0.900   7.537  0.00  0.00    +0.000 NA
ENDBRANCH  27  29
ENDBRANCH  21  23
ENDBRANCH  16  17
ENDBRANCH   1  16
TORSDOF 7
ENDMDL
MODEL 7
REMARK VINA RESULT:    -6.835      3.102      8.021
REMARK INTER + INTRA:         -10.487
REMARK INTER:                  -9.522
REMARK INTRA:                  -0.965
REMARK UNBOUND:                -0.855
REMARK  Name = 
REMARK  8 active torsions:
REMARK  status: ('A' for Active; 'I' for Inactive)
REMARK    1  A    between atoms: C_1  and  O_2
REMARK    2  A    between atoms: O_2  and  C_3
REMARK    3  A    between atoms: C_5  and  C_6
REMARK    4  A    between atoms: C_11  and  N_12
REMARK    5  A    between atoms: N_12  and  C_13
REMARK    6  A    between atoms: C_13  and  C_14
REMARK    7  A    between atoms: C_18  and  C_19
REMARK    8  A    between atoms: C_23  and  C_24
REMARK                            x       y       z     vdW  Elec       q    Type
REMARK                         _______ _______ _______ _____ _____    ______ ____
ROOT
ATOM      1  N   UNL     1      48.519   6.826  14.181  0.00  0.00    +0.000 N 
ATOM      2  H   UNL     1      48.980   6.369  13.406  0.00  0.00    +0.000 HD
ENDROOT
BRANCH   1   8
ATOM      3  C   UNL     1      47.722   5.100  15.771  0.00  0.00    +0.000 A 
ATOM      4  C   UNL     1      47.912   4.509  17.025  0.00  0.00    +0.000 A 
ATOM      5  C   UNL     1      48.902   4.971  17.883  0.00  0.00    +0.000 A 
ATOM      6  C   UNL     1      49.690   6.012  17.429  0.00  0.00    +0.000 A 
ATOM      7  N   UNL     1      49.546   6.603  16.211  0.00  0.00    +0.000 NA
ATOM      8  C   UNL     1      48.574   6.154  15.379  0.00  0.00    +0.000 A 
BRANCH   5   9
ATOM      9  C   UNL     1      49.032   4.315  19.208  0.00  0.00    +0.000 C 
ATOM     10  N   UNL     1      48.288   3.209  19.478  0.00  0.00    +0.000 N 
ATOM     11  O   UNL     1      49.804   4.751  20.055  0.00  0.00    +0.000 OA
ATOM     12  H   UNL     1      47.634   2.762  18.852  0.00  0.00    +0.000 HD
ATOM     13  H   UNL     1      48.416   2.793  20.394  0.00  0.00    +0.000 HD
ENDBRANCH   5   9
BRANCH   3  15
ATOM     14  C   UNL     1      47.140   3.586  14.041  0.00  0.00    +0.000 C 
ATOM     15  O   UNL     1      46.752   4.647  14.909  0.00  0.00    +0.000 OA
ENDBRANCH   3  15
ENDBRANCH   1   8
BRANCH   1  16
ATOM     16  C   UNL     1      47.863   8.093  13.999  0.00  0.00    +0.000 C 
BRANCH  16  17
ATOM     17  C   UNL     1      46.641   8.009  13.116  0.00  0.00    +0.000 A 
ATOM     18  C   UNL     1      45.912   9.152  12.775  0.00  0.00    +0.000 A 
ATOM     19  C   UNL     1      44.882   9.073  11.841  0.00  0.00    +0.000 A 
ATOM     20  C   UNL     1      44.584   7.853  11.228  0.00  0.00    +0.000 A 
ATOM     21  C   UNL     1      45.306   6.686  11.530  0.00  0.00    +0.000 A 
ATOM     22  C   UNL     1      46.306   6.785  12.515  0.00  0.00    +0.000 A 
BRANCH  21  23
ATOM     23  C   UNL     1      45.072   5.418  10.805  0.00  0.00    +0.000 A 
ATOM     24  C   UNL     1      44.281   4.394  11.357  0.00  0.00    +0.000 A 
ATOM     25  C   UNL     1      44.064   3.193  10.680  0.00  0.00    +0.000 A 
ATOM     26  C   UNL     1      44.621   2.994   9.419  0.00  0.00    +0.000 A 
ATOM     27  C   UNL     1      45.411   3.988   8.842  0.00  0.00    +0.000 A 
ATOM     28  C   UNL     1      45.651   5.179   9.542  0.00  0.00    +0.000 A 
BRANCH  27  29
ATOM     29  C   UNL     1      45.955   3.807   7.529  0.00  0.00    +0.000 C 
ATOM     30  N   UNL     1      46.404   3.679   6.462  0.00  0.00    +0.000 NA
ENDBRANCH  27  29
ENDBRANCH  21  23
ENDBRANCH  16  17
ENDBRANCH   1  16
TORSDOF 7
ENDMDL
MODEL 8
REMARK VINA RESULT:    -6.657      3.318      8.364
REMARK INTER + INTRA:         -10.236
REMARK INTER:                  -9.440
REMARK INTRA:                  -0.796
REMARK UNBOUND:                -0.855
REMARK  Name = 
REMARK  8 active torsions:
REMARK  status: ('A' for Active; 'I' for Inactive)
REMARK    1  A    between atoms: C_1  and  O_2
REMARK    2  A    between atoms: O_2  and  C_3
REMARK    3  A    between atoms: C_5  and  C_6
REMARK    4  A    between atoms: C_11  and  N_12
REMARK    5  A    between atoms: N_12  and  C_13
REMARK    6  A    between atoms: C_13  and  C_14
REMARK    7  A    between atoms: C_18  and  C_19
REMARK    8  A    between atoms: C_23  and  C_24
REMARK                            x       y       z     vdW  Elec       q    Type
REMARK                         _______ _______ _______ _____ _____    ______ ____
ROOT
ATOM      1  N   UNL     1      48.463   6.868  15.756  0.00  0.00    +0.000 N 
ATOM      2  H   UNL     1      47.698   7.267  16.283  0.00  0.00    +0.000 HD
ENDROOT
BRANCH   1   8
ATOM      3  C   UNL     1      48.874   4.975  17.300  0.00  0.00    +0.000 A 
ATOM      4  C   UNL     1      49.845   4.201  17.946  0.00  0.00    +0.000 A 
ATOM      5  C   UNL     1      51.196   4.483  17.790  0.00  0.00    +0.000 A 
ATOM      6  C   UNL     1      51.523   5.538  16.958  0.00  0.00    +0.000 A 
ATOM      7  N   UNL     1      50.609   6.304  16.301  0.00  0.00    +0.000 NA
ATOM      8  C   UNL     1      49.292   6.029  16.462  0.00  0.00    +0.000 A 
BRANCH   5   9
ATOM      9  C   UNL     1      52.170   3.638  18.523  0.00  0.00    +0.000 C 
ATOM     10  N   UNL     1      52.422   3.898  19.834  0.00  0.00    +0.000 N 
ATOM     11  O   UNL     1      52.743   2.707  17.967  0.00  0.00    +0.000 OA
ATOM     12  H   UNL     1      51.999   4.627  20.390  0.00  0.00    +0.000 HD
ATOM     13  H   UNL     1      53.090   3.290  20.293  0.00  0.00    +0.000 HD
ENDBRANCH   5   9
BRANCH   3  15
ATOM     14  C   UNL     1      47.153   3.345  17.215  0.00  0.00    +0.000 C 
ATOM     15  O   UNL     1      47.535   4.700  17.440  0.00  0.00    +0.000 OA
ENDBRANCH   3  15
ENDBRANCH   1   8
BRANCH   1  16
ATOM     16  C   UNL     1      48.634   7.183  14.362  0.00  0.00    +0.000 C 
BRANCH  16  17
ATOM     17  C   UNL     1      47.328   7.359  13.627  0.00  0.00    +0.000 A 
ATOM     18  C   UNL     1      46.738   8.619  13.486  0.00  0.00    +0.000 A 
ATOM     19  C   UNL     1      45.615   8.781  12.679  0.00  0.00    +0.000 A 
ATOM     20  C   UNL     1      45.083   7.686  11.991  0.00  0.00    +0.000 A 
ATOM     21  C   UNL     1      45.659   6.409  12.091  0.00  0.00    +0.000 A 
ATOM     22  C   UNL     1      46.760   6.264  12.955  0.00  0.00    +0.000 A 
BRANCH  21  23
ATOM     23  C   UNL     1      45.170   5.271  11.280  0.00  0.00    +0.000 A 
ATOM     24  C   UNL     1      44.213   4.371  11.783  0.00  0.00    +0.000 A 
ATOM     25  C   UNL     1      43.756   3.292  11.024  0.00  0.00    +0.000 A 
ATOM     26  C   UNL     1      44.235   3.098   9.732  0.00  0.00    +0.000 A 
ATOM     27  C   UNL     1      45.185   3.971   9.202  0.00  0.00    +0.000 A 
ATOM     28  C   UNL     1      45.663   5.033   9.982  0.00  0.00    +0.000 A 
BRANCH  27  29
ATOM     29  C   UNL     1      45.654   3.800   7.858  0.00  0.00    +0.000 C 
ATOM     30  N   UNL     1      46.048   3.649   6.774  0.00  0.00    +0.000 NA
ENDBRANCH  27  29
ENDBRANCH  21  23
ENDBRANCH  16  17
ENDBRANCH   1  16
TORSDOF 7
ENDMDL
MODEL 9
REMARK VINA RESULT:    -6.358      3.362      8.637
REMARK INTER + INTRA:          -9.815
REMARK INTER:                  -8.818
REMARK INTRA:                  -0.997
REMARK UNBOUND:                -0.855
REMARK  Name = 
REMARK  8 active torsions:
REMARK  status: ('A' for Active; 'I' for Inactive)
REMARK    1  A    between atoms: C_1  and  O_2
REMARK    2  A    between atoms: O_2  and  C_3
REMARK    3  A    between atoms: C_5  and  C_6
REMARK    4  A    between atoms: C_11  and  N_12
REMARK    5  A    between atoms: N_12  and  C_13
REMARK    6  A    between atoms: C_13  and  C_14
REMARK    7  A    between atoms: C_18  and  C_19
REMARK    8  A    between atoms: C_23  and  C_24
REMARK                            x       y       z     vdW  Elec       q    Type
REMARK                         _______ _______ _______ _____ _____    ______ ____
ROOT
ATOM      1  N   UNL     1      49.260   7.010  14.123  0.00  0.00    +0.000 N 
ATOM      2  H   UNL     1      49.776   6.178  13.873  0.00  0.00    +0.000 HD
ENDROOT
BRANCH   1   8
ATOM      3  C   UNL     1      48.630   6.086  16.334  0.00  0.00    +0.000 A 
ATOM      4  C   UNL     1      48.360   6.381  17.675  0.00  0.00    +0.000 A 
ATOM      5  C   UNL     1      48.389   7.692  18.132  0.00  0.00    +0.000 A 
ATOM      6  C   UNL     1      48.715   8.669  17.211  0.00  0.00    +0.000 A 
ATOM      7  N   UNL     1      48.998   8.421  15.902  0.00  0.00    +0.000 NA
ATOM      8  C   UNL     1      48.962   7.140  15.459  0.00  0.00    +0.000 A 
BRANCH   5   9
ATOM      9  C   UNL     1      48.069   7.935  19.560  0.00  0.00    +0.000 C 
ATOM     10  N   UNL     1      47.253   8.972  19.891  0.00  0.00    +0.000 N 
ATOM     11  O   UNL     1      48.522   7.213  20.441  0.00  0.00    +0.000 OA
ATOM     12  H   UNL     1      46.818   9.618  19.249  0.00  0.00    +0.000 HD
ATOM     13  H   UNL     1      47.058   9.094  20.879  0.00  0.00    +0.000 HD
ENDBRANCH   5   9
BRANCH   3  15
ATOM     14  C   UNL     1      47.475   4.016  16.238  0.00  0.00    +0.000 C 
ATOM     15  O   UNL     1      48.613   4.791  15.872  0.00  0.00    +0.000 OA
ENDBRANCH   3  15
ENDBRANCH   1   8
BRANCH   1  16
ATOM     16  C   UNL     1      48.884   7.968  13.118  0.00  0.00    +0.000 C 
BRANCH  16  17
ATOM     17  C   UNL     1      47.434   7.865  12.711  0.00  0.00    +0.000 A 
ATOM     18  C   UNL     1      46.577   8.967  12.793  0.00  0.00    +0.000 A 
ATOM     19  C   UNL     1      45.287   8.891  12.273  0.00  0.00    +0.000 A 
ATOM     20  C   UNL     1      44.850   7.718  11.651  0.00  0.00    +0.000 A 
ATOM     21  C   UNL     1      45.688   6.597  11.532  0.00  0.00    +0.000 A 
ATOM     22  C   UNL     1      46.967   6.684  12.113  0.00  0.00    +0.000 A 
BRANCH  21  23
ATOM     23  C   UNL     1      45.273   5.393  10.778  0.00  0.00    +0.000 A 
ATOM     24  C   UNL     1      44.343   4.481  11.309  0.00  0.00    +0.000 A 
ATOM     25  C   UNL     1      43.955   3.340  10.604  0.00  0.00    +0.000 A 
ATOM     26  C   UNL     1      44.477   3.095   9.337  0.00  0.00    +0.000 A 
ATOM     27  C   UNL     1      45.401   3.978   8.780  0.00  0.00    +0.000 A 
ATOM     28  C   UNL     1      45.810   5.104   9.507  0.00  0.00    +0.000 A 
BRANCH  27  29
ATOM     29  C   UNL     1      45.912   3.753   7.460  0.00  0.00    +0.000 C 
ATOM     30  N   UNL     1      46.328   3.550   6.392  0.00  0.00    +0.000 NA
ENDBRANCH  27  29
ENDBRANCH  21  23
ENDBRANCH  16  17
ENDBRANCH   1  16
TORSDOF 7
ENDMDL
