MODEL 1
REMARK VINA RESULT:    -8.195      0.000      0.000
REMARK INTER + INTRA:         -11.818
REMARK INTER:                 -11.069
REMARK INTRA:                  -0.749
REMARK UNBOUND:                -0.749
REMARK  Name = 
REMARK  6 active torsions:
REMARK  status: ('A' for Active; 'I' for Inactive)
REMARK    1  A    between atoms: C_2  and  C_20
REMARK    2  A    between atoms: N_3  and  C_4
REMARK    3  A    between atoms: C_4  and  C_5
REMARK    4  A    between atoms: C_8  and  C_9
REMARK    5  A    between atoms: C_9  and  N_10
REMARK    6  A    between atoms: C_11  and  C_13
REMARK                            x       y       z     vdW  Elec       q    Type
REMARK                         _______ _______ _______ _____ _____    ______ ____
ROOT
ATOM      1  C   UNL     1      47.362   8.001  13.527  0.00  0.00    +0.000 C 
ENDROOT
BRANCH   1   2
ATOM      2  C   UNL     1      46.461   7.114  12.707  0.00  0.00    +0.000 A 
ATOM      3  C   UNL     1      46.617   5.721  12.728  0.00  0.00    +0.000 A 
ATOM      4  C   UNL     1      45.747   4.892  12.007  0.00  0.00    +0.000 A 
ATOM      5  C   UNL     1      44.718   5.440  11.230  0.00  0.00    +0.000 A 
ATOM      6  C   UNL     1      44.576   6.833  11.193  0.00  0.00    +0.000 A 
ATOM      7  C   UNL     1      45.444   7.661  11.914  0.00  0.00    +0.000 A 
BRANCH   5   8
ATOM      8  C   UNL     1      43.794   4.556  10.434  0.00  0.00    +0.000 C 
BRANCH   8   9
ATOM      9  N   UNL     1      44.484   3.529   9.696  0.00  0.00    +0.000 N 
ATOM     10  C   UNL     1      45.363   3.861   8.692  0.00  0.00    +0.000 C 
ATOM     11  O   UNL     1      45.628   4.996   8.325  0.00  0.00    +0.000 OA
ATOM     12  H   UNL     1      44.327   2.543   9.888  0.00  0.00    +0.000 HD
BRANCH  10  13
ATOM     13  C   UNL     1      46.034   2.690   8.026  0.00  0.00    +0.000 C 
ATOM     14  C   UNL     1      46.797   2.819   6.774  0.00  0.00    +0.000 C 
ATOM     15  C   UNL     1      47.265   1.490   6.539  0.00  0.00    +0.000 C 
ATOM     16  C   UNL     1      46.797   0.758   7.562  0.00  0.00    +0.000 C 
ATOM     17  N   UNL     1      46.035   1.460   8.486  0.00  0.00    +0.000 NA
ENDBRANCH  10  13
ENDBRANCH   8   9
ENDBRANCH   5   8
ENDBRANCH   1   2
BRANCH   1  20
ATOM     18  O   UNL     1      49.917   7.097  14.074  0.00  0.00    +0.000 OA
ATOM     19  C   UNL     1      49.077   7.026  14.967  0.00  0.00    +0.000 C 
ATOM     20  N   UNL     1      47.765   7.383  14.765  0.00  0.00    +0.000 N 
ATOM     21  H   UNL     1      47.159   7.521  15.568  0.00  0.00    +0.000 HD
BRANCH  19  22
ATOM     22  C   UNL     1      49.426   6.520  16.298  0.00  0.00    +0.000 A 
ATOM     23  C   UNL     1      50.269   7.251  17.124  0.00  0.00    +0.000 A 
ATOM     24  S   UNL     1      50.556   6.512  18.635  0.00  0.00    +0.000 S 
ATOM     25  C   UNL     1      49.529   5.210  18.254  0.00  0.00    +0.000 A 
ATOM     26  N   UNL     1      49.293   4.214  19.151  0.00  0.00    +0.000 NA
ATOM     27  C   UNL     1      48.462   3.315  18.743  0.00  0.00    +0.000 A 
ATOM     28  N   UNL     1      47.853   3.311  17.515  0.00  0.00    +0.000 N 
ATOM     29  C   UNL     1      48.096   4.269  16.560  0.00  0.00    +0.000 A 
ATOM     30  O   UNL     1      47.592   4.194  15.447  0.00  0.00    +0.000 OA
ATOM     31  C   UNL     1      48.995   5.324  16.981  0.00  0.00    +0.000 A 
ATOM     32  H   UNL     1      47.228   2.564  17.247  0.00  0.00    +0.000 HD
ENDBRANCH  19  22
ENDBRANCH   1  20
TORSDOF 6
ENDMDL
MODEL 2
REMARK VINA RESULT:    -7.784      1.787      2.172
REMARK INTER + INTRA:         -11.263
REMARK INTER:                 -10.321
REMARK INTRA:                  -0.942
REMARK UNBOUND:                -0.749
REMARK  Name = 
REMARK  6 active torsions:
REMARK  status: ('A' for Active; 'I' for Inactive)
REMARK    1  A    between atoms: C_2  and  C_20
REMARK    2  A    between atoms: N_3  and  C_4
REMARK    3  A    between atoms: C_4  and  C_5
REMARK    4  A    between atoms: C_8  and  C_9
REMARK    5  A    between atoms: C_9  and  N_10
REMARK    6  A    between atoms: C_11  and  C_13
REMARK                            x       y       z     vdW  Elec       q    Type
REMARK                         _______ _______ _______ _____ _____    ______ ____
ROOT
ATOM      1  C   UNL     1      47.826   7.415  13.955  0.00  0.00    +0.000 C 
ENDROOT
BRANCH   1   2
ATOM      2  C   UNL     1      46.914   6.642  13.037  0.00  0.00    +0.000 A 
ATOM      3  C   UNL     1      46.517   5.336  13.355  0.00  0.00    +0.000 A 
ATOM      4  C   UNL     1      45.628   4.636  12.529  0.00  0.00    +0.000 A 
ATOM      5  C   UNL     1      45.138   5.218  11.353  0.00  0.00    +0.000 A 
ATOM      6  C   UNL     1      45.551   6.515  11.024  0.00  0.00    +0.000 A 
ATOM      7  C   UNL     1      46.437   7.216  11.851  0.00  0.00    +0.000 A 
BRANCH   5   8
ATOM      8  C   UNL     1      44.200   4.462  10.448  0.00  0.00    +0.000 C 
BRANCH   8   9
ATOM      9  N   UNL     1      44.846   3.403   9.716  0.00  0.00    +0.000 N 
ATOM     10  C   UNL     1      45.544   3.675   8.563  0.00  0.00    +0.000 C 
ATOM     11  O   UNL     1      45.672   4.778   8.052  0.00  0.00    +0.000 OA
ATOM     12  H   UNL     1      44.788   2.436  10.023  0.00  0.00    +0.000 HD
BRANCH  10  13
ATOM     13  C   UNL     1      46.192   2.478   7.918  0.00  0.00    +0.000 C 
ATOM     14  C   UNL     1      47.034   2.584   6.715  0.00  0.00    +0.000 C 
ATOM     15  C   UNL     1      47.445   1.235   6.487  0.00  0.00    +0.000 C 
ATOM     16  C   UNL     1      46.879   0.516   7.468  0.00  0.00    +0.000 C 
ATOM     17  N   UNL     1      46.101   1.244   8.357  0.00  0.00    +0.000 NA
ENDBRANCH  10  13
ENDBRANCH   8   9
ENDBRANCH   5   8
ENDBRANCH   1   2
BRANCH   1  20
ATOM     18  O   UNL     1      50.179   6.731  15.236  0.00  0.00    +0.000 OA
ATOM     19  C   UNL     1      49.126   6.589  15.851  0.00  0.00    +0.000 C 
ATOM     20  N   UNL     1      47.904   6.832  15.272  0.00  0.00    +0.000 N 
ATOM     21  H   UNL     1      47.082   6.918  15.862  0.00  0.00    +0.000 HD
BRANCH  19  22
ATOM     22  C   UNL     1      49.116   6.113  17.238  0.00  0.00    +0.000 A 
ATOM     23  C   UNL     1      49.647   4.870  17.553  0.00  0.00    +0.000 A 
ATOM     24  S   UNL     1      49.555   4.488  19.213  0.00  0.00    +0.000 S 
ATOM     25  C   UNL     1      48.841   5.989  19.574  0.00  0.00    +0.000 A 
ATOM     26  N   UNL     1      48.532   6.332  20.855  0.00  0.00    +0.000 NA
ATOM     27  C   UNL     1      48.034   7.515  20.985  0.00  0.00    +0.000 A 
ATOM     28  N   UNL     1      47.803   8.386  19.951  0.00  0.00    +0.000 N 
ATOM     29  C   UNL     1      48.055   8.067  18.639  0.00  0.00    +0.000 A 
ATOM     30  O   UNL     1      47.768   8.839  17.734  0.00  0.00    +0.000 OA
ATOM     31  C   UNL     1      48.650   6.760  18.440  0.00  0.00    +0.000 A 
ATOM     32  H   UNL     1      47.389   9.292  20.118  0.00  0.00    +0.000 HD
ENDBRANCH  19  22
ENDBRANCH   1  20
TORSDOF 6
ENDMDL
MODEL 3
REMARK VINA RESULT:    -7.578      4.587      9.508
REMARK INTER + INTRA:         -10.985
REMARK INTER:                 -10.228
REMARK INTRA:                  -0.757
REMARK UNBOUND:                -0.749
REMARK  Name = 
REMARK  6 active torsions:
REMARK  status: ('A' for Active; 'I' for Inactive)
REMARK    1  A    between atoms: C_2  and  C_20
REMARK    2  A    between atoms: N_3  and  C_4
REMARK    3  A    between atoms: C_4  and  C_5
REMARK    4  A    between atoms: C_8  and  C_9
REMARK    5  A    between atoms: C_9  and  N_10
REMARK    6  A    between atoms: C_11  and  C_13
REMARK                            x       y       z     vdW  Elec       q    Type
REMARK                         _______ _______ _______ _____ _____    ______ ____
ROOT
ATOM      1  C   UNL     1      47.136   3.396  16.855  0.00  0.00    +0.000 C 
ENDROOT
BRANCH   1   2
ATOM      2  C   UNL     1      48.609   3.280  17.153  0.00  0.00    +0.000 A 
ATOM      3  C   UNL     1      49.293   4.323  17.791  0.00  0.00    +0.000 A 
ATOM      4  C   UNL     1      50.650   4.197  18.116  0.00  0.00    +0.000 A 
ATOM      5  C   UNL     1      51.358   3.034  17.785  0.00  0.00    +0.000 A 
ATOM      6  C   UNL     1      50.678   2.000  17.129  0.00  0.00    +0.000 A 
ATOM      7  C   UNL     1      49.322   2.125  16.807  0.00  0.00    +0.000 A 
BRANCH   5   8
ATOM      8  C   UNL     1      52.823   2.900  18.111  0.00  0.00    +0.000 C 
BRANCH   8   9
ATOM      9  N   UNL     1      53.190   1.578  18.549  0.00  0.00    +0.000 N 
ATOM     10  C   UNL     1      54.083   0.824  17.824  0.00  0.00    +0.000 C 
ATOM     11  O   UNL     1      54.620   1.166  16.780  0.00  0.00    +0.000 OA
ATOM     12  H   UNL     1      52.788   1.168  19.388  0.00  0.00    +0.000 HD
BRANCH  10  13
ATOM     13  C   UNL     1      54.397  -0.526  18.413  0.00  0.00    +0.000 C 
ATOM     14  C   UNL     1      54.927  -1.638  17.608  0.00  0.00    +0.000 C 
ATOM     15  C   UNL     1      55.095  -2.682  18.569  0.00  0.00    +0.000 C 
ATOM     16  C   UNL     1      54.699  -2.161  19.740  0.00  0.00    +0.000 C 
ATOM     17  N   UNL     1      54.260  -0.845  19.679  0.00  0.00    +0.000 NA
ENDBRANCH  10  13
ENDBRANCH   8   9
ENDBRANCH   5   8
ENDBRANCH   1   2
BRANCH   1  20
ATOM     18  O   UNL     1      47.218   3.072  14.110  0.00  0.00    +0.000 OA
ATOM     19  C   UNL     1      46.851   4.158  14.552  0.00  0.00    +0.000 C 
ATOM     20  N   UNL     1      46.848   4.435  15.898  0.00  0.00    +0.000 N 
ATOM     21  H   UNL     1      46.338   5.245  16.237  0.00  0.00    +0.000 HD
BRANCH  19  22
ATOM     22  C   UNL     1      46.426   5.237  13.655  0.00  0.00    +0.000 A 
ATOM     23  C   UNL     1      47.291   6.281  13.361  0.00  0.00    +0.000 A 
ATOM     24  S   UNL     1      46.629   7.439  12.297  0.00  0.00    +0.000 S 
ATOM     25  C   UNL     1      45.178   6.562  12.159  0.00  0.00    +0.000 A 
ATOM     26  N   UNL     1      44.172   6.990  11.348  0.00  0.00    +0.000 NA
ATOM     27  C   UNL     1      43.149   6.205  11.309  0.00  0.00    +0.000 A 
ATOM     28  N   UNL     1      43.031   5.036  12.016  0.00  0.00    +0.000 N 
ATOM     29  C   UNL     1      44.000   4.588  12.881  0.00  0.00    +0.000 A 
ATOM     30  O   UNL     1      43.831   3.579  13.552  0.00  0.00    +0.000 OA
ATOM     31  C   UNL     1      45.189   5.415  12.935  0.00  0.00    +0.000 A 
ATOM     32  H   UNL     1      42.192   4.477  11.959  0.00  0.00    +0.000 HD
ENDBRANCH  19  22
ENDBRANCH   1  20
TORSDOF 6
ENDMDL
MODEL 4
REMARK VINA RESULT:    -7.450      1.992      3.574
REMARK INTER + INTRA:         -10.813
REMARK INTER:                  -9.770
REMARK INTRA:                  -1.043
REMARK UNBOUND:                -0.749
REMARK  Name = 
REMARK  6 active torsions:
REMARK  status: ('A' for Active; 'I' for Inactive)
REMARK    1  A    between atoms: C_2  and  C_20
REMARK    2  A    between atoms: N_3  and  C_4
REMARK    3  A    between atoms: C_4  and  C_5
REMARK    4  A    between atoms: C_8  and  C_9
REMARK    5  A    between atoms: C_9  and  N_10
REMARK    6  A    between atoms: C_11  and  C_13
REMARK                            x       y       z     vdW  Elec       q    Type
REMARK                         _______ _______ _______ _____ _____    ______ ____
ROOT
ATOM      1  C   UNL     1      47.103   4.799  15.163  0.00  0.00    +0.000 C 
ENDROOT
BRANCH   1   2
ATOM      2  C   UNL     1      46.349   4.664  13.865  0.00  0.00    +0.000 A 
ATOM      3  C   UNL     1      46.123   3.403  13.297  0.00  0.00    +0.000 A 
ATOM      4  C   UNL     1      45.378   3.271  12.118  0.00  0.00    +0.000 A 
ATOM      5  C   UNL     1      44.865   4.402  11.467  0.00  0.00    +0.000 A 
ATOM      6  C   UNL     1      45.109   5.663  12.025  0.00  0.00    +0.000 A 
ATOM      7  C   UNL     1      45.851   5.794  13.204  0.00  0.00    +0.000 A 
BRANCH   5   8
ATOM      8  C   UNL     1      44.083   4.270  10.187  0.00  0.00    +0.000 C 
BRANCH   8   9
ATOM      9  N   UNL     1      44.757   3.481   9.187  0.00  0.00    +0.000 N 
ATOM     10  C   UNL     1      45.717   4.046   8.381  0.00  0.00    +0.000 C 
ATOM     11  O   UNL     1      46.072   5.215   8.410  0.00  0.00    +0.000 OA
ATOM     12  H   UNL     1      44.529   2.500   9.045  0.00  0.00    +0.000 HD
BRANCH  10  13
ATOM     13  C   UNL     1      46.358   3.099   7.402  0.00  0.00    +0.000 C 
ATOM     14  C   UNL     1      46.758   3.510   6.046  0.00  0.00    +0.000 C 
ATOM     15  C   UNL     1      47.335   2.321   5.503  0.00  0.00    +0.000 C 
ATOM     16  C   UNL     1      47.246   1.401   6.476  0.00  0.00    +0.000 C 
ATOM     17  N   UNL     1      46.648   1.842   7.649  0.00  0.00    +0.000 NA
ENDBRANCH  10  13
ENDBRANCH   8   9
ENDBRANCH   5   8
ENDBRANCH   1   2
BRANCH   1  20
ATOM     18  O   UNL     1      49.402   5.141  16.661  0.00  0.00    +0.000 OA
ATOM     19  C   UNL     1      49.028   6.075  15.957  0.00  0.00    +0.000 C 
ATOM     20  N   UNL     1      47.860   6.024  15.235  0.00  0.00    +0.000 N 
ATOM     21  H   UNL     1      47.696   6.710  14.505  0.00  0.00    +0.000 HD
BRANCH  19  22
ATOM     22  C   UNL     1      49.799   7.319  15.876  0.00  0.00    +0.000 A 
ATOM     23  C   UNL     1      50.220   7.956  17.035  0.00  0.00    +0.000 A 
ATOM     24  S   UNL     1      51.110   9.383  16.746  0.00  0.00    +0.000 S 
ATOM     25  C   UNL     1      50.999   9.176  15.061  0.00  0.00    +0.000 A 
ATOM     26  N   UNL     1      51.596  10.050  14.205  0.00  0.00    +0.000 NA
ATOM     27  C   UNL     1      51.465   9.746  12.958  0.00  0.00    +0.000 A 
ATOM     28  N   UNL     1      50.782   8.655  12.484  0.00  0.00    +0.000 N 
ATOM     29  C   UNL     1      50.125   7.773  13.308  0.00  0.00    +0.000 A 
ATOM     30  O   UNL     1      49.463   6.853  12.848  0.00  0.00    +0.000 OA
ATOM     31  C   UNL     1      50.271   8.048  14.723  0.00  0.00    +0.000 A 
ATOM     32  H   UNL     1      50.697   8.486  11.492  0.00  0.00    +0.000 HD
ENDBRANCH  19  22
ENDBRANCH   1  20
TORSDOF 6
ENDMDL
MODEL 5
REMARK VINA RESULT:    -7.288      2.395      3.245
REMARK INTER + INTRA:         -10.593
REMARK INTER:                  -9.834
REMARK INTRA:                  -0.759
REMARK UNBOUND:                -0.749
REMARK  Name = 
REMARK  6 active torsions:
REMARK  status: ('A' for Active; 'I' for Inactive)
REMARK    1  A    between atoms: C_2  and  C_20
REMARK    2  A    between atoms: N_3  and  C_4
REMARK    3  A    between atoms: C_4  and  C_5
REMARK    4  A    between atoms: C_8  and  C_9
REMARK    5  A    between atoms: C_9  and  N_10
REMARK    6  A    between atoms: C_11  and  C_13
REMARK                            x       y       z     vdW  Elec       q    Type
REMARK                         _______ _______ _______ _____ _____    ______ ____
ROOT
ATOM      1  C   UNL     1      47.226   4.340  15.033  0.00  0.00    +0.000 C 
ENDROOT
BRANCH   1   2
ATOM      2  C   UNL     1      46.381   4.377  13.786  0.00  0.00    +0.000 A 
ATOM      3  C   UNL     1      45.912   5.595  13.276  0.00  0.00    +0.000 A 
ATOM      4  C   UNL     1      45.170   5.636  12.088  0.00  0.00    +0.000 A 
ATOM      5  C   UNL     1      44.860   4.456  11.399  0.00  0.00    +0.000 A 
ATOM      6  C   UNL     1      45.312   3.237  11.920  0.00  0.00    +0.000 A 
ATOM      7  C   UNL     1      46.055   3.196  13.106  0.00  0.00    +0.000 A 
BRANCH   5   8
ATOM      8  C   UNL     1      44.043   4.491  10.133  0.00  0.00    +0.000 C 
BRANCH   8   9
ATOM      9  N   UNL     1      44.663   3.791   9.037  0.00  0.00    +0.000 N 
ATOM     10  C   UNL     1      45.748   4.330   8.388  0.00  0.00    +0.000 C 
ATOM     11  O   UNL     1      46.267   5.407   8.643  0.00  0.00    +0.000 OA
ATOM     12  H   UNL     1      44.305   2.897   8.710  0.00  0.00    +0.000 HD
BRANCH  10  13
ATOM     13  C   UNL     1      46.312   3.478   7.282  0.00  0.00    +0.000 C 
ATOM     14  C   UNL     1      46.662   2.062   7.472  0.00  0.00    +0.000 C 
ATOM     15  C   UNL     1      47.117   1.663   6.177  0.00  0.00    +0.000 C 
ATOM     16  C   UNL     1      47.008   2.755   5.406  0.00  0.00    +0.000 C 
ATOM     17  N   UNL     1      46.524   3.885   6.052  0.00  0.00    +0.000 NA
ENDBRANCH  10  13
ENDBRANCH   8   9
ENDBRANCH   5   8
ENDBRANCH   1   2
BRANCH   1  20
ATOM     18  O   UNL     1      49.410   4.927  16.624  0.00  0.00    +0.000 OA
ATOM     19  C   UNL     1      48.708   5.859  16.241  0.00  0.00    +0.000 C 
ATOM     20  N   UNL     1      47.563   5.659  15.510  0.00  0.00    +0.000 N 
ATOM     21  H   UNL     1      47.136   6.444  15.029  0.00  0.00    +0.000 HD
BRANCH  19  22
ATOM     22  C   UNL     1      49.041   7.247  16.579  0.00  0.00    +0.000 A 
ATOM     23  C   UNL     1      49.837   8.000  15.727  0.00  0.00    +0.000 A 
ATOM     24  S   UNL     1      50.112   9.592  16.277  0.00  0.00    +0.000 S 
ATOM     25  C   UNL     1      49.140   9.342  17.651  0.00  0.00    +0.000 A 
ATOM     26  N   UNL     1      48.917  10.344  18.546  0.00  0.00    +0.000 NA
ATOM     27  C   UNL     1      48.128  10.025  19.516  0.00  0.00    +0.000 A 
ATOM     28  N   UNL     1      47.550   8.792  19.684  0.00  0.00    +0.000 N 
ATOM     29  C   UNL     1      47.783   7.739  18.833  0.00  0.00    +0.000 A 
ATOM     30  O   UNL     1      47.310   6.632  19.053  0.00  0.00    +0.000 OA
ATOM     31  C   UNL     1      48.635   8.054  17.703  0.00  0.00    +0.000 A 
ATOM     32  H   UNL     1      46.958   8.600  20.479  0.00  0.00    +0.000 HD
ENDBRANCH  19  22
ENDBRANCH   1  20
TORSDOF 6
ENDMDL
MODEL 6
REMARK VINA RESULT:    -7.019      4.818      7.551
REMARK INTER + INTRA:         -10.230
REMARK INTER:                  -9.331
REMARK INTRA:                  -0.899
REMARK UNBOUND:                -0.749
REMARK  Name = 
REMARK  6 active torsions:
REMARK  status: ('A' for Active; 'I' for Inactive)
REMARK    1  A    between atoms: C_2  and  C_20
REMARK    2  A    between atoms: N_3  and  C_4
REMARK    3  A    between atoms: C_4  and  C_5
REMARK    4  A    between atoms: C_8  and  C_9
REMARK    5  A    between atoms: C_9  and  N_10
REMARK    6  A    between atoms: C_11  and  C_13
REMARK                            x       y       z     vdW  Elec       q    Type
REMARK                         _______ _______ _______ _____ _____    ______ ____
ROOT
ATOM      1  C   UNL     1      46.433   8.211  12.856  0.00  0.00    +0.000 C 
ENDROOT
BRANCH   1   2
ATOM      2  C   UNL     1      47.848   8.369  12.363  0.00  0.00    +0.000 A 
ATOM      3  C   UNL     1      48.723   7.274  12.334  0.00  0.00    +0.000 A 
ATOM      4  C   UNL     1      50.022   7.408  11.828  0.00  0.00    +0.000 A 
ATOM      5  C   UNL     1      50.483   8.647  11.364  0.00  0.00    +0.000 A 
ATOM      6  C   UNL     1      49.616   9.746  11.412  0.00  0.00    +0.000 A 
ATOM      7  C   UNL     1      48.317   9.612  11.916  0.00  0.00    +0.000 A 
BRANCH   5   8
ATOM      8  C   UNL     1      51.887   8.804  10.840  0.00  0.00    +0.000 C 
BRANCH   8   9
ATOM      9  N   UNL     1      52.338   7.670  10.075  0.00  0.00    +0.000 N 
ATOM     10  C   UNL     1      52.774   7.828   8.780  0.00  0.00    +0.000 C 
ATOM     11  O   UNL     1      52.807   8.884   8.166  0.00  0.00    +0.000 OA
ATOM     12  H   UNL     1      52.331   6.731  10.466  0.00  0.00    +0.000 HD
BRANCH  10  13
ATOM     13  C   UNL     1      53.243   6.563   8.111  0.00  0.00    +0.000 C 
ATOM     14  C   UNL     1      54.361   5.759   8.631  0.00  0.00    +0.000 C 
ATOM     15  C   UNL     1      54.427   4.665   7.714  0.00  0.00    +0.000 C 
ATOM     16  C   UNL     1      53.447   4.881   6.824  0.00  0.00    +0.000 C 
ATOM     17  N   UNL     1      52.707   6.037   7.034  0.00  0.00    +0.000 NA
ENDBRANCH  10  13
ENDBRANCH   8   9
ENDBRANCH   5   8
ENDBRANCH   1   2
BRANCH   1  20
ATOM     18  O   UNL     1      44.385   7.580  11.109  0.00  0.00    +0.000 OA
ATOM     19  C   UNL     1      44.943   6.659  11.698  0.00  0.00    +0.000 C 
ATOM     20  N   UNL     1      45.920   6.880  12.639  0.00  0.00    +0.000 N 
ATOM     21  H   UNL     1      46.506   6.107  12.939  0.00  0.00    +0.000 HD
BRANCH  19  22
ATOM     22  C   UNL     1      44.568   5.263  11.453  0.00  0.00    +0.000 A 
ATOM     23  C   UNL     1      43.783   4.580  12.371  0.00  0.00    +0.000 A 
ATOM     24  S   UNL     1      43.442   2.971  11.915  0.00  0.00    +0.000 S 
ATOM     25  C   UNL     1      44.296   3.146  10.454  0.00  0.00    +0.000 A 
ATOM     26  N   UNL     1      44.366   2.128   9.554  0.00  0.00    +0.000 NA
ATOM     27  C   UNL     1      45.010   2.415   8.474  0.00  0.00    +0.000 A 
ATOM     28  N   UNL     1      45.605   3.624   8.213  0.00  0.00    +0.000 N 
ATOM     29  C   UNL     1      45.600   4.664   9.111  0.00  0.00    +0.000 A 
ATOM     30  O   UNL     1      46.203   5.703   8.878  0.00  0.00    +0.000 OA
ATOM     31  C   UNL     1      44.857   4.406  10.329  0.00  0.00    +0.000 A 
ATOM     32  H   UNL     1      46.115   3.778   7.356  0.00  0.00    +0.000 HD
ENDBRANCH  19  22
ENDBRANCH   1  20
TORSDOF 6
ENDMDL
MODEL 7
REMARK VINA RESULT:    -6.980      3.193      4.641
REMARK INTER + INTRA:         -10.177
REMARK INTER:                  -9.120
REMARK INTRA:                  -1.058
REMARK UNBOUND:                -0.749
REMARK  Name = 
REMARK  6 active torsions:
REMARK  status: ('A' for Active; 'I' for Inactive)
REMARK    1  A    between atoms: C_2  and  C_20
REMARK    2  A    between atoms: N_3  and  C_4
REMARK    3  A    between atoms: C_4  and  C_5
REMARK    4  A    between atoms: C_8  and  C_9
REMARK    5  A    between atoms: C_9  and  N_10
REMARK    6  A    between atoms: C_11  and  C_13
REMARK                            x       y       z     vdW  Elec       q    Type
REMARK                         _______ _______ _______ _____ _____    ______ ____
ROOT
ATOM      1  C   UNL     1      48.355   6.676  14.693  0.00  0.00    +0.000 C 
ENDROOT
BRANCH   1   2
ATOM      2  C   UNL     1      47.389   6.115  13.681  0.00  0.00    +0.000 A 
ATOM      3  C   UNL     1      46.747   4.890  13.907  0.00  0.00    +0.000 A 
ATOM      4  C   UNL     1      45.810   4.392  12.992  0.00  0.00    +0.000 A 
ATOM      5  C   UNL     1      45.516   5.097  11.817  0.00  0.00    +0.000 A 
ATOM      6  C   UNL     1      46.173   6.311  11.582  0.00  0.00    +0.000 A 
ATOM      7  C   UNL     1      47.107   6.809  12.497  0.00  0.00    +0.000 A 
BRANCH   5   8
ATOM      8  C   UNL     1      44.527   4.556  10.817  0.00  0.00    +0.000 C 
BRANCH   8   9
ATOM      9  N   UNL     1      45.066   3.503   9.996  0.00  0.00    +0.000 N 
ATOM     10  C   UNL     1      45.651   3.792   8.785  0.00  0.00    +0.000 C 
ATOM     11  O   UNL     1      45.757   4.905   8.293  0.00  0.00    +0.000 OA
ATOM     12  H   UNL     1      45.014   2.529  10.282  0.00  0.00    +0.000 HD
BRANCH  10  13
ATOM     13  C   UNL     1      46.198   2.599   8.046  0.00  0.00    +0.000 C 
ATOM     14  C   UNL     1      46.939   2.721   6.781  0.00  0.00    +0.000 C 
ATOM     15  C   UNL     1      47.280   1.368   6.472  0.00  0.00    +0.000 C 
ATOM     16  C   UNL     1      46.772   0.632   7.472  0.00  0.00    +0.000 C 
ATOM     17  N   UNL     1      46.098   1.353   8.449  0.00  0.00    +0.000 NA
ENDBRANCH  10  13
ENDBRANCH   8   9
ENDBRANCH   5   8
ENDBRANCH   1   2
BRANCH   1  20
ATOM     18  O   UNL     1      49.855   8.893  15.384  0.00  0.00    +0.000 OA
ATOM     19  C   UNL     1      50.329   8.108  14.567  0.00  0.00    +0.000 C 
ATOM     20  N   UNL     1      49.628   7.019  14.108  0.00  0.00    +0.000 N 
ATOM     21  H   UNL     1      50.121   6.283  13.614  0.00  0.00    +0.000 HD
BRANCH  19  22
ATOM     22  C   UNL     1      51.668   8.314  14.006  0.00  0.00    +0.000 A 
ATOM     23  C   UNL     1      52.782   8.287  14.833  0.00  0.00    +0.000 A 
ATOM     24  S   UNL     1      54.254   8.538  14.006  0.00  0.00    +0.000 S 
ATOM     25  C   UNL     1      53.455   8.648  12.508  0.00  0.00    +0.000 A 
ATOM     26  N   UNL     1      54.151   8.825  11.352  0.00  0.00    +0.000 NA
ATOM     27  C   UNL     1      53.420   8.850  10.289  0.00  0.00    +0.000 A 
ATOM     28  N   UNL     1      52.054   8.726  10.273  0.00  0.00    +0.000 N 
ATOM     29  C   UNL     1      51.307   8.592  11.418  0.00  0.00    +0.000 A 
ATOM     30  O   UNL     1      50.084   8.559  11.374  0.00  0.00    +0.000 OA
ATOM     31  C   UNL     1      52.082   8.523  12.640  0.00  0.00    +0.000 A 
ATOM     32  H   UNL     1      51.538   8.776   9.407  0.00  0.00    +0.000 HD
ENDBRANCH  19  22
ENDBRANCH   1  20
TORSDOF 6
ENDMDL
MODEL 8
REMARK VINA RESULT:    -6.948      2.102      2.561
REMARK INTER + INTRA:         -10.134
REMARK INTER:                  -9.177
REMARK INTRA:                  -0.956
REMARK UNBOUND:                -0.749
REMARK  Name = 
REMARK  6 active torsions:
REMARK  status: ('A' for Active; 'I' for Inactive)
REMARK    1  A    between atoms: C_2  and  C_20
REMARK    2  A    between atoms: N_3  and  C_4
REMARK    3  A    between atoms: C_4  and  C_5
REMARK    4  A    between atoms: C_8  and  C_9
REMARK    5  A    between atoms: C_9  and  N_10
REMARK    6  A    between atoms: C_11  and  C_13
REMARK                            x       y       z     vdW  Elec       q    Type
REMARK                         _______ _______ _______ _____ _____    ______ ____
ROOT
ATOM      1  C   UNL     1      48.991   8.009  15.527  0.00  0.00    +0.000 C 
ENDROOT
BRANCH   1   2
ATOM      2  C   UNL     1      48.017   7.590  14.456  0.00  0.00    +0.000 A 
ATOM      3  C   UNL     1      47.942   6.254  14.040  0.00  0.00    +0.000 A 
ATOM      4  C   UNL     1      47.001   5.853  13.082  0.00  0.00    +0.000 A 
ATOM      5  C   UNL     1      46.133   6.786  12.501  0.00  0.00    +0.000 A 
ATOM      6  C   UNL     1      46.221   8.125  12.902  0.00  0.00    +0.000 A 
ATOM      7  C   UNL     1      47.160   8.525  13.861  0.00  0.00    +0.000 A 
BRANCH   5   8
ATOM      8  C   UNL     1      45.134   6.367  11.454  0.00  0.00    +0.000 C 
BRANCH   8   9
ATOM      9  N   UNL     1      45.702   5.526  10.431  0.00  0.00    +0.000 N 
ATOM     10  C   UNL     1      44.915   4.627   9.749  0.00  0.00    +0.000 C 
ATOM     11  O   UNL     1      43.722   4.442   9.936  0.00  0.00    +0.000 OA
ATOM     12  H   UNL     1      46.692   5.565  10.203  0.00  0.00    +0.000 HD
BRANCH  10  13
ATOM     13  C   UNL     1      45.633   3.834   8.690  0.00  0.00    +0.000 C 
ATOM     14  C   UNL     1      45.648   2.363   8.674  0.00  0.00    +0.000 C 
ATOM     15  C   UNL     1      46.405   2.058   7.501  0.00  0.00    +0.000 C 
ATOM     16  C   UNL     1      46.739   3.244   6.970  0.00  0.00    +0.000 C 
ATOM     17  N   UNL     1      46.288   4.352   7.676  0.00  0.00    +0.000 NA
ENDBRANCH  10  13
ENDBRANCH   8   9
ENDBRANCH   5   8
ENDBRANCH   1   2
BRANCH   1  20
ATOM     18  O   UNL     1      50.012   7.534  18.053  0.00  0.00    +0.000 OA
ATOM     19  C   UNL     1      50.335   6.771  17.148  0.00  0.00    +0.000 C 
ATOM     20  N   UNL     1      49.938   6.969  15.847  0.00  0.00    +0.000 N 
ATOM     21  H   UNL     1      50.035   6.212  15.177  0.00  0.00    +0.000 HD
BRANCH  19  22
ATOM     22  C   UNL     1      51.201   5.615  17.403  0.00  0.00    +0.000 A 
ATOM     23  C   UNL     1      52.515   5.803  17.809  0.00  0.00    +0.000 A 
ATOM     24  S   UNL     1      53.367   4.347  18.066  0.00  0.00    +0.000 S 
ATOM     25  C   UNL     1      51.995   3.415  17.686  0.00  0.00    +0.000 A 
ATOM     26  N   UNL     1      52.030   2.056  17.750  0.00  0.00    +0.000 NA
ATOM     27  C   UNL     1      50.907   1.481  17.476  0.00  0.00    +0.000 A 
ATOM     28  N   UNL     1      49.754   2.138  17.131  0.00  0.00    +0.000 N 
ATOM     29  C   UNL     1      49.684   3.505  17.009  0.00  0.00    +0.000 A 
ATOM     30  O   UNL     1      48.659   4.054  16.628  0.00  0.00    +0.000 OA
ATOM     31  C   UNL     1      50.910   4.203  17.342  0.00  0.00    +0.000 A 
ATOM     32  H   UNL     1      48.912   1.628  16.906  0.00  0.00    +0.000 HD
ENDBRANCH  19  22
ENDBRANCH   1  20
TORSDOF 6
ENDMDL
MODEL 9
REMARK VINA RESULT:    -6.735      2.970      4.226
REMARK INTER + INTRA:          -9.847
REMARK INTER:                  -8.848
REMARK INTRA:                  -0.999
REMARK UNBOUND:                -0.749
REMARK  Name = 
REMARK  6 active torsions:
REMARK  status: ('A' for Active; 'I' for Inactive)
REMARK    1  A    between atoms: C_2  and  C_20
REMARK    2  A    between atoms: N_3  and  C_4
REMARK    3  A    between atoms: C_4  and  C_5
REMARK    4  A    between atoms: C_8  and  C_9
REMARK    5  A    between atoms: C_9  and  N_10
REMARK    6  A    between atoms: C_11  and  C_13
REMARK                            x       y       z     vdW  Elec       q    Type
REMARK                         _______ _______ _______ _____ _____    ______ ____
ROOT
ATOM      1  C   UNL     1      47.737   6.191  14.713  0.00  0.00    +0.000 C 
ENDROOT
BRANCH   1   2
ATOM      2  C   UNL     1      46.869   5.427  13.746  0.00  0.00    +0.000 A 
ATOM      3  C   UNL     1      46.870   4.026  13.737  0.00  0.00    +0.000 A 
ATOM      4  C   UNL     1      46.026   3.314  12.875  0.00  0.00    +0.000 A 
ATOM      5  C   UNL     1      45.182   3.990  11.983  0.00  0.00    +0.000 A 
ATOM      6  C   UNL     1      45.197   5.390  11.978  0.00  0.00    +0.000 A 
ATOM      7  C   UNL     1      46.039   6.101  12.841  0.00  0.00    +0.000 A 
BRANCH   5   8
ATOM      8  C   UNL     1      44.288   3.232  11.037  0.00  0.00    +0.000 C 
BRANCH   8   9
ATOM      9  N   UNL     1      45.005   2.612   9.952  0.00  0.00    +0.000 N 
ATOM     10  C   UNL     1      45.341   3.337   8.832  0.00  0.00    +0.000 C 
ATOM     11  O   UNL     1      45.070   4.513   8.638  0.00  0.00    +0.000 OA
ATOM     12  H   UNL     1      45.263   1.629   9.980  0.00  0.00    +0.000 HD
BRANCH  10  13
ATOM     13  C   UNL     1      46.113   2.572   7.791  0.00  0.00    +0.000 C 
ATOM     14  C   UNL     1      46.507   3.162   6.502  0.00  0.00    +0.000 C 
ATOM     15  C   UNL     1      47.228   2.105   5.866  0.00  0.00    +0.000 C 
ATOM     16  C   UNL     1      47.210   1.084   6.736  0.00  0.00    +0.000 C 
ATOM     17  N   UNL     1      46.531   1.334   7.921  0.00  0.00    +0.000 NA
ENDBRANCH  10  13
ENDBRANCH   8   9
ENDBRANCH   5   8
ENDBRANCH   1   2
BRANCH   1  20
ATOM     18  O   UNL     1      47.919   8.942  14.509  0.00  0.00    +0.000 OA
ATOM     19  C   UNL     1      48.844   8.269  14.063  0.00  0.00    +0.000 C 
ATOM     20  N   UNL     1      48.809   6.895  14.053  0.00  0.00    +0.000 N 
ATOM     21  H   UNL     1      49.666   6.377  13.887  0.00  0.00    +0.000 HD
BRANCH  19  22
ATOM     22  C   UNL     1      50.031   8.902  13.479  0.00  0.00    +0.000 A 
ATOM     23  C   UNL     1      49.896   9.811  12.439  0.00  0.00    +0.000 A 
ATOM     24  S   UNL     1      51.381  10.450  11.893  0.00  0.00    +0.000 S 
ATOM     25  C   UNL     1      52.252   9.566  13.058  0.00  0.00    +0.000 A 
ATOM     26  N   UNL     1      53.603   9.685  13.165  0.00  0.00    +0.000 NA
ATOM     27  C   UNL     1      54.125   8.989  14.118  0.00  0.00    +0.000 A 
ATOM     28  N   UNL     1      53.423   8.172  14.968  0.00  0.00    +0.000 N 
ATOM     29  C   UNL     1      52.066   7.985  14.867  0.00  0.00    +0.000 A 
ATOM     30  O   UNL     1      51.481   7.193  15.593  0.00  0.00    +0.000 OA
ATOM     31  C   UNL     1      51.423   8.774  13.834  0.00  0.00    +0.000 A 
ATOM     32  H   UNL     1      53.895   7.635  15.680  0.00  0.00    +0.000 HD
ENDBRANCH  19  22
ENDBRANCH   1  20
TORSDOF 6
ENDMDL
