MODEL 1
REMARK VINA RESULT:    -8.200      0.000      0.000
REMARK INTER + INTRA:         -12.786
REMARK INTER:                 -11.555
REMARK INTRA:                  -1.230
REMARK UNBOUND:                -1.230
REMARK  Name = 
REMARK  7 active torsions:
REMARK  status: ('A' for Active; 'I' for Inactive)
REMARK    1  A    between atoms: C_2  and  C_19
REMARK    2  A    between atoms: N_3  and  C_4
REMARK    3  A    between atoms: C_4  and  C_5
REMARK    4  A    between atoms: C_8  and  C_9
REMARK    5  A    between atoms: C_9  and  N_10
REMARK    6  A    between atoms: N_10  and  C_11
REMARK    7  A    between atoms: C_11  and  C_12
REMARK                            x       y       z     vdW  Elec       q    Type
REMARK                         _______ _______ _______ _____ _____    ______ ____
ROOT
ATOM      1  C   UNL     1      46.630   7.375  12.909  0.00  0.00    +0.000 C 
ENDROOT
BRANCH   1   2
ATOM      2  C   UNL     1      45.947   6.234  12.205  0.00  0.00    +0.000 A 
ATOM      3  C   UNL     1      45.985   6.155  10.808  0.00  0.00    +0.000 A 
ATOM      4  C   UNL     1      45.389   5.082  10.145  0.00  0.00    +0.000 A 
ATOM      5  C   UNL     1      44.755   4.051  10.858  0.00  0.00    +0.000 A 
ATOM      6  C   UNL     1      44.670   4.163  12.253  0.00  0.00    +0.000 A 
ATOM      7  C   UNL     1      45.256   5.245  12.920  0.00  0.00    +0.000 A 
BRANCH   5   8
ATOM      8  C   UNL     1      44.143   2.863  10.140  0.00  0.00    +0.000 C 
BRANCH   8   9
ATOM      9  N   UNL     1      44.467   2.886   8.713  0.00  0.00    +0.000 NA
ATOM     10  H   UNL     1      44.873   3.793   8.485  0.00  0.00    +0.000 HD
BRANCH   9  11
ATOM     11  C   UNL     1      45.357   1.809   8.295  0.00  0.00    +0.000 C 
BRANCH  11  12
ATOM     12  C   UNL     1      46.695   2.412   7.832  0.00  0.00    +0.000 C 
ATOM     13  C   UNL     1      46.543   3.476   6.740  0.00  0.00    +0.000 C 
ATOM     14  C   UNL     1      47.044   2.799   5.481  0.00  0.00    +0.000 C 
ATOM     15  N   UNL     1      48.117   1.919   5.954  0.00  0.00    +0.000 NA
ATOM     16  C   UNL     1      47.616   1.356   7.214  0.00  0.00    +0.000 C 
ATOM     17  H   UNL     1      48.935   2.495   6.157  0.00  0.00    +0.000 HD
ENDBRANCH  11  12
ENDBRANCH   9  11
ENDBRANCH   8   9
ENDBRANCH   5   8
ENDBRANCH   1   2
BRANCH   1  20
ATOM     18  O   UNL     1      49.286   6.661  13.482  0.00  0.00    +0.000 OA
ATOM     19  C   UNL     1      48.465   6.672  14.396  0.00  0.00    +0.000 C 
ATOM     20  N   UNL     1      47.145   6.977  14.194  0.00  0.00    +0.000 N 
ATOM     21  H   UNL     1      46.540   7.138  14.993  0.00  0.00    +0.000 HD
BRANCH  19  22
ATOM     22  C   UNL     1      48.848   6.298  15.761  0.00  0.00    +0.000 A 
ATOM     23  C   UNL     1      49.607   7.175  16.526  0.00  0.00    +0.000 A 
ATOM     24  S   UNL     1      49.960   6.596  18.089  0.00  0.00    +0.000 S 
ATOM     25  C   UNL     1      49.073   5.169  17.817  0.00  0.00    +0.000 A 
ATOM     26  N   UNL     1      48.934   4.238  18.799  0.00  0.00    +0.000 NA
ATOM     27  C   UNL     1      48.203   3.225  18.474  0.00  0.00    +0.000 A 
ATOM     28  N   UNL     1      47.612   3.049  17.252  0.00  0.00    +0.000 N 
ATOM     29  C   UNL     1      47.797   3.918  16.203  0.00  0.00    +0.000 A 
ATOM     30  O   UNL     1      47.380   3.658  15.080  0.00  0.00    +0.000 OA
ATOM     31  C   UNL     1      48.551   5.112  16.536  0.00  0.00    +0.000 A 
ATOM     32  H   UNL     1      47.082   2.216  17.048  0.00  0.00    +0.000 HD
ENDBRANCH  19  22
ENDBRANCH   1  20
TORSDOF 7
ENDMDL
MODEL 2
REMARK VINA RESULT:    -7.489      1.957      2.492
REMARK INTER + INTRA:         -11.784
REMARK INTER:                 -10.879
REMARK INTRA:                  -0.905
REMARK UNBOUND:                -1.230
REMARK  Name = 
REMARK  7 active torsions:
REMARK  status: ('A' for Active; 'I' for Inactive)
REMARK    1  A    between atoms: C_2  and  C_19
REMARK    2  A    between atoms: N_3  and  C_4
REMARK    3  A    between atoms: C_4  and  C_5
REMARK    4  A    between atoms: C_8  and  C_9
REMARK    5  A    between atoms: C_9  and  N_10
REMARK    6  A    between atoms: N_10  and  C_11
REMARK    7  A    between atoms: C_11  and  C_12
REMARK                            x       y       z     vdW  Elec       q    Type
REMARK                         _______ _______ _______ _____ _____    ______ ____
ROOT
ATOM      1  C   UNL     1      47.695   6.613  13.497  0.00  0.00    +0.000 C 
ENDROOT
BRANCH   1   2
ATOM      2  C   UNL     1      46.716   5.761  12.736  0.00  0.00    +0.000 A 
ATOM      3  C   UNL     1      46.288   6.159  11.464  0.00  0.00    +0.000 A 
ATOM      4  C   UNL     1      45.411   5.359  10.732  0.00  0.00    +0.000 A 
ATOM      5  C   UNL     1      44.951   4.133  11.241  0.00  0.00    +0.000 A 
ATOM      6  C   UNL     1      45.337   3.766  12.537  0.00  0.00    +0.000 A 
ATOM      7  C   UNL     1      46.207   4.573  13.279  0.00  0.00    +0.000 A 
BRANCH   5   8
ATOM      8  C   UNL     1      44.029   3.243  10.428  0.00  0.00    +0.000 C 
BRANCH   8   9
ATOM      9  N   UNL     1      44.777   2.170   9.772  0.00  0.00    +0.000 NA
ATOM     10  H   UNL     1      44.318   1.282   9.973  0.00  0.00    +0.000 HD
BRANCH   9  11
ATOM     11  C   UNL     1      44.925   2.352   8.333  0.00  0.00    +0.000 C 
BRANCH  11  12
ATOM     12  C   UNL     1      46.418   2.509   7.995  0.00  0.00    +0.000 C 
ATOM     13  C   UNL     1      46.691   3.511   6.869  0.00  0.00    +0.000 C 
ATOM     14  C   UNL     1      47.079   2.652   5.684  0.00  0.00    +0.000 C 
ATOM     15  N   UNL     1      47.793   1.521   6.285  0.00  0.00    +0.000 NA
ATOM     16  C   UNL     1      47.035   1.197   7.500  0.00  0.00    +0.000 C 
ATOM     17  H   UNL     1      48.723   1.841   6.557  0.00  0.00    +0.000 HD
ENDBRANCH  11  12
ENDBRANCH   9  11
ENDBRANCH   8   9
ENDBRANCH   5   8
ENDBRANCH   1   2
BRANCH   1  20
ATOM     18  O   UNL     1      49.934   6.717  15.191  0.00  0.00    +0.000 OA
ATOM     19  C   UNL     1      48.849   6.385  15.663  0.00  0.00    +0.000 C 
ATOM     20  N   UNL     1      47.717   6.279  14.898  0.00  0.00    +0.000 N 
ATOM     21  H   UNL     1      46.816   6.166  15.350  0.00  0.00    +0.000 HD
BRANCH  19  22
ATOM     22  C   UNL     1      48.717   6.024  17.077  0.00  0.00    +0.000 A 
ATOM     23  C   UNL     1      48.944   4.713  17.475  0.00  0.00    +0.000 A 
ATOM     24  S   UNL     1      48.759   4.459  19.150  0.00  0.00    +0.000 S 
ATOM     25  C   UNL     1      48.413   6.105  19.413  0.00  0.00    +0.000 A 
ATOM     26  N   UNL     1      48.195   6.578  20.669  0.00  0.00    +0.000 NA
ATOM     27  C   UNL     1      47.985   7.851  20.731  0.00  0.00    +0.000 A 
ATOM     28  N   UNL     1      47.956   8.690  19.650  0.00  0.00    +0.000 N 
ATOM     29  C   UNL     1      48.082   8.243  18.357  0.00  0.00    +0.000 A 
ATOM     30  O   UNL     1      47.902   8.994  17.403  0.00  0.00    +0.000 OA
ATOM     31  C   UNL     1      48.393   6.831  18.235  0.00  0.00    +0.000 A 
ATOM     32  H   UNL     1      47.750   9.671  19.761  0.00  0.00    +0.000 HD
ENDBRANCH  19  22
ENDBRANCH   1  20
TORSDOF 7
ENDMDL
MODEL 3
REMARK VINA RESULT:    -7.389      1.433      1.655
REMARK INTER + INTRA:         -11.644
REMARK INTER:                 -10.679
REMARK INTRA:                  -0.965
REMARK UNBOUND:                -1.230
REMARK  Name = 
REMARK  7 active torsions:
REMARK  status: ('A' for Active; 'I' for Inactive)
REMARK    1  A    between atoms: C_2  and  C_19
REMARK    2  A    between atoms: N_3  and  C_4
REMARK    3  A    between atoms: C_4  and  C_5
REMARK    4  A    between atoms: C_8  and  C_9
REMARK    5  A    between atoms: C_9  and  N_10
REMARK    6  A    between atoms: N_10  and  C_11
REMARK    7  A    between atoms: C_11  and  C_12
REMARK                            x       y       z     vdW  Elec       q    Type
REMARK                         _______ _______ _______ _____ _____    ______ ____
ROOT
ATOM      1  C   UNL     1      48.124   7.224  13.420  0.00  0.00    +0.000 C 
ENDROOT
BRANCH   1   2
ATOM      2  C   UNL     1      47.088   6.416  12.688  0.00  0.00    +0.000 A 
ATOM      3  C   UNL     1      46.817   6.687  11.341  0.00  0.00    +0.000 A 
ATOM      4  C   UNL     1      45.886   5.920  10.640  0.00  0.00    +0.000 A 
ATOM      5  C   UNL     1      45.214   4.852  11.257  0.00  0.00    +0.000 A 
ATOM      6  C   UNL     1      45.447   4.620  12.620  0.00  0.00    +0.000 A 
ATOM      7  C   UNL     1      46.371   5.397  13.330  0.00  0.00    +0.000 A 
BRANCH   5   8
ATOM      8  C   UNL     1      44.233   3.992  10.485  0.00  0.00    +0.000 C 
BRANCH   8   9
ATOM      9  N   UNL     1      44.227   4.345   9.065  0.00  0.00    +0.000 NA
ATOM     10  H   UNL     1      44.908   5.089   8.910  0.00  0.00    +0.000 HD
BRANCH   9  11
ATOM     11  C   UNL     1      44.494   3.219   8.177  0.00  0.00    +0.000 C 
BRANCH  11  12
ATOM     12  C   UNL     1      46.009   2.948   8.147  0.00  0.00    +0.000 C 
ATOM     13  C   UNL     1      46.715   3.547   6.926  0.00  0.00    +0.000 C 
ATOM     14  C   UNL     1      47.042   2.352   6.055  0.00  0.00    +0.000 C 
ATOM     15  N   UNL     1      47.322   1.280   7.015  0.00  0.00    +0.000 NA
ATOM     16  C   UNL     1      46.322   1.451   8.076  0.00  0.00    +0.000 C 
ATOM     17  H   UNL     1      48.249   1.442   7.411  0.00  0.00    +0.000 HD
ENDBRANCH  11  12
ENDBRANCH   9  11
ENDBRANCH   8   9
ENDBRANCH   5   8
ENDBRANCH   1   2
BRANCH   1  20
ATOM     18  O   UNL     1      50.179   6.790  15.286  0.00  0.00    +0.000 OA
ATOM     19  C   UNL     1      49.029   6.940  15.695  0.00  0.00    +0.000 C 
ATOM     20  N   UNL     1      47.968   7.124  14.849  0.00  0.00    +0.000 N 
ATOM     21  H   UNL     1      47.070   7.408  15.226  0.00  0.00    +0.000 HD
BRANCH  19  22
ATOM     22  C   UNL     1      48.720   6.872  17.126  0.00  0.00    +0.000 A 
ATOM     23  C   UNL     1      48.252   8.003  17.782  0.00  0.00    +0.000 A 
ATOM     24  S   UNL     1      47.932   7.756  19.437  0.00  0.00    +0.000 S 
ATOM     25  C   UNL     1      48.365   6.114  19.329  0.00  0.00    +0.000 A 
ATOM     26  N   UNL     1      48.272   5.296  20.412  0.00  0.00    +0.000 NA
ATOM     27  C   UNL     1      48.592   4.067  20.181  0.00  0.00    +0.000 A 
ATOM     28  N   UNL     1      49.012   3.584  18.972  0.00  0.00    +0.000 N 
ATOM     29  C   UNL     1      49.206   4.388  17.875  0.00  0.00    +0.000 A 
ATOM     30  O   UNL     1      49.725   3.955  16.851  0.00  0.00    +0.000 OA
ATOM     31  C   UNL     1      48.792   5.766  18.059  0.00  0.00    +0.000 A 
ATOM     32  H   UNL     1      49.283   2.617  18.865  0.00  0.00    +0.000 HD
ENDBRANCH  19  22
ENDBRANCH   1  20
TORSDOF 7
ENDMDL
MODEL 4
REMARK VINA RESULT:    -7.059      2.600      3.556
REMARK INTER + INTRA:         -11.178
REMARK INTER:                  -9.503
REMARK INTRA:                  -1.675
REMARK UNBOUND:                -1.230
REMARK  Name = 
REMARK  7 active torsions:
REMARK  status: ('A' for Active; 'I' for Inactive)
REMARK    1  A    between atoms: C_2  and  C_19
REMARK    2  A    between atoms: N_3  and  C_4
REMARK    3  A    between atoms: C_4  and  C_5
REMARK    4  A    between atoms: C_8  and  C_9
REMARK    5  A    between atoms: C_9  and  N_10
REMARK    6  A    between atoms: N_10  and  C_11
REMARK    7  A    between atoms: C_11  and  C_12
REMARK                            x       y       z     vdW  Elec       q    Type
REMARK                         _______ _______ _______ _____ _____    ______ ____
ROOT
ATOM      1  C   UNL     1      49.001   7.904  13.157  0.00  0.00    +0.000 C 
ENDROOT
BRANCH   1   2
ATOM      2  C   UNL     1      47.614   7.839  12.578  0.00  0.00    +0.000 A 
ATOM      3  C   UNL     1      47.235   6.740  11.799  0.00  0.00    +0.000 A 
ATOM      4  C   UNL     1      45.940   6.649  11.289  0.00  0.00    +0.000 A 
ATOM      5  C   UNL     1      44.984   7.642  11.556  0.00  0.00    +0.000 A 
ATOM      6  C   UNL     1      45.383   8.768  12.289  0.00  0.00    +0.000 A 
ATOM      7  C   UNL     1      46.686   8.868  12.792  0.00  0.00    +0.000 A 
BRANCH   5   8
ATOM      8  C   UNL     1      43.564   7.523  11.036  0.00  0.00    +0.000 C 
BRANCH   8   9
ATOM      9  N   UNL     1      43.250   6.142  10.671  0.00  0.00    +0.000 NA
ATOM     10  H   UNL     1      44.113   5.673  10.394  0.00  0.00    +0.000 HD
BRANCH   9  11
ATOM     11  C   UNL     1      42.579   5.392  11.727  0.00  0.00    +0.000 C 
BRANCH  11  12
ATOM     12  C   UNL     1      43.019   3.920  11.658  0.00  0.00    +0.000 C 
ATOM     13  C   UNL     1      43.879   3.480  12.848  0.00  0.00    +0.000 C 
ATOM     14  C   UNL     1      45.275   3.350  12.277  0.00  0.00    +0.000 C 
ATOM     15  N   UNL     1      45.056   2.882  10.905  0.00  0.00    +0.000 NA
ATOM     16  C   UNL     1      43.890   3.638  10.430  0.00  0.00    +0.000 C 
ATOM     17  H   UNL     1      44.810   1.892  10.942  0.00  0.00    +0.000 HD
ENDBRANCH  11  12
ENDBRANCH   9  11
ENDBRANCH   8   9
ENDBRANCH   5   8
ENDBRANCH   1   2
BRANCH   1  20
ATOM     18  O   UNL     1      48.641   8.669  15.836  0.00  0.00    +0.000 OA
ATOM     19  C   UNL     1      48.916   7.497  15.586  0.00  0.00    +0.000 C 
ATOM     20  N   UNL     1      49.139   7.052  14.310  0.00  0.00    +0.000 N 
ATOM     21  H   UNL     1      49.197   6.055  14.131  0.00  0.00    +0.000 HD
BRANCH  19  22
ATOM     22  C   UNL     1      49.080   6.513  16.660  0.00  0.00    +0.000 A 
ATOM     23  C   UNL     1      49.884   6.815  17.752  0.00  0.00    +0.000 A 
ATOM     24  S   UNL     1      49.964   5.571  18.914  0.00  0.00    +0.000 S 
ATOM     25  C   UNL     1      48.889   4.599  18.021  0.00  0.00    +0.000 A 
ATOM     26  N   UNL     1      48.492   3.386  18.492  0.00  0.00    +0.000 NA
ATOM     27  C   UNL     1      47.645   2.771  17.737  0.00  0.00    +0.000 A 
ATOM     28  N   UNL     1      47.171   3.250  16.545  0.00  0.00    +0.000 N 
ATOM     29  C   UNL     1      47.610   4.426  15.988  0.00  0.00    +0.000 A 
ATOM     30  O   UNL     1      47.282   4.755  14.852  0.00  0.00    +0.000 OA
ATOM     31  C   UNL     1      48.509   5.193  16.830  0.00  0.00    +0.000 A 
ATOM     32  H   UNL     1      46.537   2.703  15.983  0.00  0.00    +0.000 HD
ENDBRANCH  19  22
ENDBRANCH   1  20
TORSDOF 7
ENDMDL
MODEL 5
REMARK VINA RESULT:    -6.988      2.068      3.611
REMARK INTER + INTRA:         -11.079
REMARK INTER:                  -9.936
REMARK INTRA:                  -1.143
REMARK UNBOUND:                -1.230
REMARK  Name = 
REMARK  7 active torsions:
REMARK  status: ('A' for Active; 'I' for Inactive)
REMARK    1  A    between atoms: C_2  and  C_19
REMARK    2  A    between atoms: N_3  and  C_4
REMARK    3  A    between atoms: C_4  and  C_5
REMARK    4  A    between atoms: C_8  and  C_9
REMARK    5  A    between atoms: C_9  and  N_10
REMARK    6  A    between atoms: N_10  and  C_11
REMARK    7  A    between atoms: C_11  and  C_12
REMARK                            x       y       z     vdW  Elec       q    Type
REMARK                         _______ _______ _______ _____ _____    ______ ____
ROOT
ATOM      1  C   UNL     1      47.026   4.474  14.743  0.00  0.00    +0.000 C 
ENDROOT
BRANCH   1   2
ATOM      2  C   UNL     1      46.235   4.491  13.463  0.00  0.00    +0.000 A 
ATOM      3  C   UNL     1      45.818   3.286  12.885  0.00  0.00    +0.000 A 
ATOM      4  C   UNL     1      45.051   3.290  11.720  0.00  0.00    +0.000 A 
ATOM      5  C   UNL     1      44.665   4.495  11.110  0.00  0.00    +0.000 A 
ATOM      6  C   UNL     1      45.132   5.697  11.660  0.00  0.00    +0.000 A 
ATOM      7  C   UNL     1      45.912   5.696  12.822  0.00  0.00    +0.000 A 
BRANCH   5   8
ATOM      8  C   UNL     1      43.797   4.501   9.866  0.00  0.00    +0.000 C 
BRANCH   8   9
ATOM      9  N   UNL     1      44.613   4.581   8.655  0.00  0.00    +0.000 NA
ATOM     10  H   UNL     1      45.524   4.970   8.899  0.00  0.00    +0.000 HD
BRANCH   9  11
ATOM     11  C   UNL     1      44.773   3.305   7.967  0.00  0.00    +0.000 C 
BRANCH  11  12
ATOM     12  C   UNL     1      46.235   2.843   8.093  0.00  0.00    +0.000 C 
ATOM     13  C   UNL     1      47.141   3.363   6.972  0.00  0.00    +0.000 C 
ATOM     14  C   UNL     1      47.410   2.148   6.110  0.00  0.00    +0.000 C 
ATOM     15  N   UNL     1      47.446   1.036   7.064  0.00  0.00    +0.000 NA
ATOM     16  C   UNL     1      46.364   1.319   8.016  0.00  0.00    +0.000 C 
ATOM     17  H   UNL     1      48.336   1.073   7.562  0.00  0.00    +0.000 HD
ENDBRANCH  11  12
ENDBRANCH   9  11
ENDBRANCH   8   9
ENDBRANCH   5   8
ENDBRANCH   1   2
BRANCH   1  20
ATOM     18  O   UNL     1      49.062   4.994  16.607  0.00  0.00    +0.000 OA
ATOM     19  C   UNL     1      48.624   5.924  15.934  0.00  0.00    +0.000 C 
ATOM     20  N   UNL     1      47.610   5.760  15.027  0.00  0.00    +0.000 N 
ATOM     21  H   UNL     1      47.392   6.508  14.377  0.00  0.00    +0.000 HD
BRANCH  19  22
ATOM     22  C   UNL     1      49.129   7.289  16.108  0.00  0.00    +0.000 A 
ATOM     23  C   UNL     1      49.130   7.864  17.373  0.00  0.00    +0.000 A 
ATOM     24  S   UNL     1      49.755   9.449  17.408  0.00  0.00    +0.000 S 
ATOM     25  C   UNL     1      50.090   9.409  15.740  0.00  0.00    +0.000 A 
ATOM     26  N   UNL     1      50.689  10.464  15.124  0.00  0.00    +0.000 NA
ATOM     27  C   UNL     1      50.922  10.286  13.867  0.00  0.00    +0.000 A 
ATOM     28  N   UNL     1      50.596   9.157  13.165  0.00  0.00    +0.000 N 
ATOM     29  C   UNL     1      49.912   8.104  13.724  0.00  0.00    +0.000 A 
ATOM     30  O   UNL     1      49.502   7.175  13.036  0.00  0.00    +0.000 OA
ATOM     31  C   UNL     1      49.689   8.221  15.152  0.00  0.00    +0.000 A 
ATOM     32  H   UNL     1      50.773   9.094  12.174  0.00  0.00    +0.000 HD
ENDBRANCH  19  22
ENDBRANCH   1  20
TORSDOF 7
ENDMDL
MODEL 6
REMARK VINA RESULT:    -6.808      3.338      8.245
REMARK INTER + INTRA:         -10.824
REMARK INTER:                  -9.580
REMARK INTRA:                  -1.243
REMARK UNBOUND:                -1.230
REMARK  Name = 
REMARK  7 active torsions:
REMARK  status: ('A' for Active; 'I' for Inactive)
REMARK    1  A    between atoms: C_2  and  C_19
REMARK    2  A    between atoms: N_3  and  C_4
REMARK    3  A    between atoms: C_4  and  C_5
REMARK    4  A    between atoms: C_8  and  C_9
REMARK    5  A    between atoms: C_9  and  N_10
REMARK    6  A    between atoms: N_10  and  C_11
REMARK    7  A    between atoms: C_11  and  C_12
REMARK                            x       y       z     vdW  Elec       q    Type
REMARK                         _______ _______ _______ _____ _____    ______ ____
ROOT
ATOM      1  C   UNL     1      48.187   8.059  12.159  0.00  0.00    +0.000 C 
ENDROOT
BRANCH   1   2
ATOM      2  C   UNL     1      48.928   7.655  13.405  0.00  0.00    +0.000 A 
ATOM      3  C   UNL     1      50.271   8.017  13.565  0.00  0.00    +0.000 A 
ATOM      4  C   UNL     1      50.958   7.681  14.731  0.00  0.00    +0.000 A 
ATOM      5  C   UNL     1      50.320   6.993  15.776  0.00  0.00    +0.000 A 
ATOM      6  C   UNL     1      48.993   6.584  15.589  0.00  0.00    +0.000 A 
ATOM      7  C   UNL     1      48.305   6.907  14.414  0.00  0.00    +0.000 A 
BRANCH   5   8
ATOM      8  C   UNL     1      51.056   6.664  17.062  0.00  0.00    +0.000 C 
BRANCH   8   9
ATOM      9  N   UNL     1      50.142   6.119  18.066  0.00  0.00    +0.000 NA
ATOM     10  H   UNL     1      49.187   6.359  17.804  0.00  0.00    +0.000 HD
BRANCH   9  11
ATOM     11  C   UNL     1      50.270   4.678  18.257  0.00  0.00    +0.000 C 
BRANCH  11  12
ATOM     12  C   UNL     1      48.911   4.104  18.694  0.00  0.00    +0.000 C 
ATOM     13  C   UNL     1      48.301   3.132  17.680  0.00  0.00    +0.000 C 
ATOM     14  C   UNL     1      47.154   3.902  17.061  0.00  0.00    +0.000 C 
ATOM     15  N   UNL     1      46.651   4.734  18.158  0.00  0.00    +0.000 NA
ATOM     16  C   UNL     1      47.854   5.199  18.862  0.00  0.00    +0.000 C 
ATOM     17  H   UNL     1      46.115   4.138  18.790  0.00  0.00    +0.000 HD
ENDBRANCH  11  12
ENDBRANCH   9  11
ENDBRANCH   8   9
ENDBRANCH   5   8
ENDBRANCH   1   2
BRANCH   1  20
ATOM     18  O   UNL     1      45.407   7.845  11.813  0.00  0.00    +0.000 OA
ATOM     19  C   UNL     1      46.126   6.934  11.411  0.00  0.00    +0.000 C 
ATOM     20  N   UNL     1      47.487   6.947  11.570  0.00  0.00    +0.000 N 
ATOM     21  H   UNL     1      48.055   6.263  11.081  0.00  0.00    +0.000 HD
BRANCH  19  22
ATOM     22  C   UNL     1      45.554   5.740  10.782  0.00  0.00    +0.000 A 
ATOM     23  C   UNL     1      45.787   5.495   9.435  0.00  0.00    +0.000 A 
ATOM     24  S   UNL     1      45.061   4.065   8.859  0.00  0.00    +0.000 S 
ATOM     25  C   UNL     1      44.443   3.696  10.401  0.00  0.00    +0.000 A 
ATOM     26  N   UNL     1      43.742   2.551  10.615  0.00  0.00    +0.000 NA
ATOM     27  C   UNL     1      43.367   2.375  11.838  0.00  0.00    +0.000 A 
ATOM     28  N   UNL     1      43.614   3.247  12.863  0.00  0.00    +0.000 N 
ATOM     29  C   UNL     1      44.240   4.456  12.677  0.00  0.00    +0.000 A 
ATOM     30  O   UNL     1      44.314   5.281  13.582  0.00  0.00    +0.000 OA
ATOM     31  C   UNL     1      44.747   4.672  11.335  0.00  0.00    +0.000 A 
ATOM     32  H   UNL     1      43.262   3.069  13.791  0.00  0.00    +0.000 HD
ENDBRANCH  19  22
ENDBRANCH   1  20
TORSDOF 7
ENDMDL
MODEL 7
REMARK VINA RESULT:    -6.806      2.419      3.128
REMARK INTER + INTRA:         -10.822
REMARK INTER:                  -9.980
REMARK INTRA:                  -0.842
REMARK UNBOUND:                -1.230
REMARK  Name = 
REMARK  7 active torsions:
REMARK  status: ('A' for Active; 'I' for Inactive)
REMARK    1  A    between atoms: C_2  and  C_19
REMARK    2  A    between atoms: N_3  and  C_4
REMARK    3  A    between atoms: C_4  and  C_5
REMARK    4  A    between atoms: C_8  and  C_9
REMARK    5  A    between atoms: C_9  and  N_10
REMARK    6  A    between atoms: N_10  and  C_11
REMARK    7  A    between atoms: C_11  and  C_12
REMARK                            x       y       z     vdW  Elec       q    Type
REMARK                         _______ _______ _______ _____ _____    ______ ____
ROOT
ATOM      1  C   UNL     1      47.109   4.267  14.824  0.00  0.00    +0.000 C 
ENDROOT
BRANCH   1   2
ATOM      2  C   UNL     1      46.225   4.361  13.610  0.00  0.00    +0.000 A 
ATOM      3  C   UNL     1      45.756   5.609  13.184  0.00  0.00    +0.000 A 
ATOM      4  C   UNL     1      44.967   5.714  12.038  0.00  0.00    +0.000 A 
ATOM      5  C   UNL     1      44.641   4.580  11.277  0.00  0.00    +0.000 A 
ATOM      6  C   UNL     1      45.065   3.326  11.738  0.00  0.00    +0.000 A 
ATOM      7  C   UNL     1      45.845   3.216  12.895  0.00  0.00    +0.000 A 
BRANCH   5   8
ATOM      8  C   UNL     1      43.817   4.698  10.008  0.00  0.00    +0.000 C 
BRANCH   8   9
ATOM      9  N   UNL     1      44.674   4.694   8.822  0.00  0.00    +0.000 NA
ATOM     10  H   UNL     1      45.608   5.002   9.092  0.00  0.00    +0.000 HD
BRANCH   9  11
ATOM     11  C   UNL     1      44.740   3.401   8.149  0.00  0.00    +0.000 C 
BRANCH  11  12
ATOM     12  C   UNL     1      46.201   2.923   8.116  0.00  0.00    +0.000 C 
ATOM     13  C   UNL     1      46.977   3.404   6.885  0.00  0.00    +0.000 C 
ATOM     14  C   UNL     1      47.131   2.165   6.028  0.00  0.00    +0.000 C 
ATOM     15  N   UNL     1      47.265   1.075   7.000  0.00  0.00    +0.000 NA
ATOM     16  C   UNL     1      46.304   1.396   8.063  0.00  0.00    +0.000 C 
ATOM     17  H   UNL     1      48.207   1.112   7.391  0.00  0.00    +0.000 HD
ENDBRANCH  11  12
ENDBRANCH   9  11
ENDBRANCH   8   9
ENDBRANCH   5   8
ENDBRANCH   1   2
BRANCH   1  20
ATOM     18  O   UNL     1      49.141   4.807  16.688  0.00  0.00    +0.000 OA
ATOM     19  C   UNL     1      48.530   5.749  16.188  0.00  0.00    +0.000 C 
ATOM     20  N   UNL     1      47.505   5.569  15.297  0.00  0.00    +0.000 N 
ATOM     21  H   UNL     1      47.142   6.366  14.784  0.00  0.00    +0.000 HD
BRANCH  19  22
ATOM     22  C   UNL     1      48.831   7.132  16.568  0.00  0.00    +0.000 A 
ATOM     23  C   UNL     1      49.567   7.936  15.706  0.00  0.00    +0.000 A 
ATOM     24  S   UNL     1      49.823   9.516  16.290  0.00  0.00    +0.000 S 
ATOM     25  C   UNL     1      48.921   9.199  17.697  0.00  0.00    +0.000 A 
ATOM     26  N   UNL     1      48.710  10.172  18.624  0.00  0.00    +0.000 NA
ATOM     27  C   UNL     1      47.975   9.809  19.621  0.00  0.00    +0.000 A 
ATOM     28  N   UNL     1      47.447   8.557  19.786  0.00  0.00    +0.000 N 
ATOM     29  C   UNL     1      47.706   7.519  18.924  0.00  0.00    +0.000 A 
ATOM     30  O   UNL     1      47.345   6.375  19.177  0.00  0.00    +0.000 OA
ATOM     31  C   UNL     1      48.468   7.891  17.746  0.00  0.00    +0.000 A 
ATOM     32  H   UNL     1      46.910   8.325  20.609  0.00  0.00    +0.000 HD
ENDBRANCH  19  22
ENDBRANCH   1  20
TORSDOF 7
ENDMDL
MODEL 8
REMARK VINA RESULT:    -6.715      4.306      9.060
REMARK INTER + INTRA:         -10.693
REMARK INTER:                  -9.753
REMARK INTRA:                  -0.941
REMARK UNBOUND:                -1.230
REMARK  Name = 
REMARK  7 active torsions:
REMARK  status: ('A' for Active; 'I' for Inactive)
REMARK    1  A    between atoms: C_2  and  C_19
REMARK    2  A    between atoms: N_3  and  C_4
REMARK    3  A    between atoms: C_4  and  C_5
REMARK    4  A    between atoms: C_8  and  C_9
REMARK    5  A    between atoms: C_9  and  N_10
REMARK    6  A    between atoms: N_10  and  C_11
REMARK    7  A    between atoms: C_11  and  C_12
REMARK                            x       y       z     vdW  Elec       q    Type
REMARK                         _______ _______ _______ _____ _____    ______ ____
ROOT
ATOM      1  C   UNL     1      47.161   3.389  16.873  0.00  0.00    +0.000 C 
ENDROOT
BRANCH   1   2
ATOM      2  C   UNL     1      48.636   3.432  17.169  0.00  0.00    +0.000 A 
ATOM      3  C   UNL     1      49.224   4.625  17.607  0.00  0.00    +0.000 A 
ATOM      4  C   UNL     1      50.582   4.668  17.921  0.00  0.00    +0.000 A 
ATOM      5  C   UNL     1      51.386   3.521  17.825  0.00  0.00    +0.000 A 
ATOM      6  C   UNL     1      50.806   2.343  17.333  0.00  0.00    +0.000 A 
ATOM      7  C   UNL     1      49.446   2.300  17.004  0.00  0.00    +0.000 A 
BRANCH   5   8
ATOM      8  C   UNL     1      52.853   3.558  18.206  0.00  0.00    +0.000 C 
BRANCH   8   9
ATOM      9  N   UNL     1      53.164   2.537  19.208  0.00  0.00    +0.000 NA
ATOM     10  H   UNL     1      52.373   1.897  19.278  0.00  0.00    +0.000 HD
BRANCH   9  11
ATOM     11  C   UNL     1      54.392   1.800  18.935  0.00  0.00    +0.000 C 
BRANCH  11  12
ATOM     12  C   UNL     1      54.202   0.956  17.662  0.00  0.00    +0.000 C 
ATOM     13  C   UNL     1      54.200  -0.554  17.921  0.00  0.00    +0.000 C 
ATOM     14  C   UNL     1      55.529  -1.033  17.376  0.00  0.00    +0.000 C 
ATOM     15  N   UNL     1      55.775  -0.162  16.223  0.00  0.00    +0.000 NA
ATOM     16  C   UNL     1      55.337   1.172  16.657  0.00  0.00    +0.000 C 
ATOM     17  H   UNL     1      55.173  -0.469  15.458  0.00  0.00    +0.000 HD
ENDBRANCH  11  12
ENDBRANCH   9  11
ENDBRANCH   8   9
ENDBRANCH   5   8
ENDBRANCH   1   2
BRANCH   1  20
ATOM     18  O   UNL     1      47.170   2.970  14.095  0.00  0.00    +0.000 OA
ATOM     19  C   UNL     1      46.794   4.056  14.529  0.00  0.00    +0.000 C 
ATOM     20  N   UNL     1      46.790   4.351  15.867  0.00  0.00    +0.000 N 
ATOM     21  H   UNL     1      46.321   5.189  16.194  0.00  0.00    +0.000 HD
BRANCH  19  22
ATOM     22  C   UNL     1      46.379   5.130  13.622  0.00  0.00    +0.000 A 
ATOM     23  C   UNL     1      47.265   6.157  13.323  0.00  0.00    +0.000 A 
ATOM     24  S   UNL     1      46.634   7.321  12.250  0.00  0.00    +0.000 S 
ATOM     25  C   UNL     1      45.166   6.471  12.110  0.00  0.00    +0.000 A 
ATOM     26  N   UNL     1      44.180   6.916  11.287  0.00  0.00    +0.000 NA
ATOM     27  C   UNL     1      43.137   6.156  11.244  0.00  0.00    +0.000 A 
ATOM     28  N   UNL     1      42.983   5.001  11.962  0.00  0.00    +0.000 N 
ATOM     29  C   UNL     1      43.914   4.560  12.872  0.00  0.00    +0.000 A 
ATOM     30  O   UNL     1      43.683   3.607  13.608  0.00  0.00    +0.000 OA
ATOM     31  C   UNL     1      45.138   5.339  12.906  0.00  0.00    +0.000 A 
ATOM     32  H   UNL     1      42.127   4.470  11.912  0.00  0.00    +0.000 HD
ENDBRANCH  19  22
ENDBRANCH   1  20
TORSDOF 7
ENDMDL
MODEL 9
REMARK VINA RESULT:    -6.569      2.930      8.801
REMARK INTER + INTRA:         -10.487
REMARK INTER:                  -9.329
REMARK INTRA:                  -1.158
REMARK UNBOUND:                -1.230
REMARK  Name = 
REMARK  7 active torsions:
REMARK  status: ('A' for Active; 'I' for Inactive)
REMARK    1  A    between atoms: C_2  and  C_19
REMARK    2  A    between atoms: N_3  and  C_4
REMARK    3  A    between atoms: C_4  and  C_5
REMARK    4  A    between atoms: C_8  and  C_9
REMARK    5  A    between atoms: C_9  and  N_10
REMARK    6  A    between atoms: N_10  and  C_11
REMARK    7  A    between atoms: C_11  and  C_12
REMARK                            x       y       z     vdW  Elec       q    Type
REMARK                         _______ _______ _______ _____ _____    ______ ____
ROOT
ATOM      1  C   UNL     1      47.095   7.997  12.827  0.00  0.00    +0.000 C 
ENDROOT
BRANCH   1   2
ATOM      2  C   UNL     1      47.961   7.940  14.056  0.00  0.00    +0.000 A 
ATOM      3  C   UNL     1      48.139   9.088  14.837  0.00  0.00    +0.000 A 
ATOM      4  C   UNL     1      48.907   9.039  16.000  0.00  0.00    +0.000 A 
ATOM      5  C   UNL     1      49.503   7.840  16.425  0.00  0.00    +0.000 A 
ATOM      6  C   UNL     1      49.369   6.707  15.611  0.00  0.00    +0.000 A 
ATOM      7  C   UNL     1      48.610   6.757  14.436  0.00  0.00    +0.000 A 
BRANCH   5   8
ATOM      8  C   UNL     1      50.305   7.776  17.711  0.00  0.00    +0.000 C 
BRANCH   8   9
ATOM      9  N   UNL     1      49.494   7.255  18.812  0.00  0.00    +0.000 NA
ATOM     10  H   UNL     1      48.513   7.278  18.535  0.00  0.00    +0.000 HD
BRANCH   9  11
ATOM     11  C   UNL     1      49.872   5.911  19.235  0.00  0.00    +0.000 C 
BRANCH  11  12
ATOM     12  C   UNL     1      48.600   5.068  19.432  0.00  0.00    +0.000 C 
ATOM     13  C   UNL     1      48.546   3.823  18.540  0.00  0.00    +0.000 C 
ATOM     14  C   UNL     1      47.502   4.152  17.495  0.00  0.00    +0.000 C 
ATOM     15  N   UNL     1      46.526   4.977  18.214  0.00  0.00    +0.000 NA
ATOM     16  C   UNL     1      47.333   5.851  19.077  0.00  0.00    +0.000 C 
ATOM     17  H   UNL     1      45.966   4.363  18.807  0.00  0.00    +0.000 HD
ENDBRANCH  11  12
ENDBRANCH   9  11
ENDBRANCH   8   9
ENDBRANCH   5   8
ENDBRANCH   1   2
BRANCH   1  20
ATOM     18  O   UNL     1      44.775   7.584  11.298  0.00  0.00    +0.000 OA
ATOM     19  C   UNL     1      45.355   6.608  11.770  0.00  0.00    +0.000 C 
ATOM     20  N   UNL     1      46.474   6.727  12.552  0.00  0.00    +0.000 N 
ATOM     21  H   UNL     1      47.015   5.900  12.781  0.00  0.00    +0.000 HD
BRANCH  19  22
ATOM     22  C   UNL     1      44.842   5.251  11.565  0.00  0.00    +0.000 A 
ATOM     23  C   UNL     1      44.154   4.615  12.590  0.00  0.00    +0.000 A 
ATOM     24  S   UNL     1      43.617   3.048  12.191  0.00  0.00    +0.000 S 
ATOM     25  C   UNL     1      44.247   3.178  10.615  0.00  0.00    +0.000 A 
ATOM     26  N   UNL     1      44.085   2.170   9.716  0.00  0.00    +0.000 NA
ATOM     27  C   UNL     1      44.575   2.415   8.547  0.00  0.00    +0.000 A 
ATOM     28  N   UNL     1      45.227   3.568   8.200  0.00  0.00    +0.000 N 
ATOM     29  C   UNL     1      45.491   4.573   9.098  0.00  0.00    +0.000 A 
ATOM     30  O   UNL     1      46.205   5.524   8.798  0.00  0.00    +0.000 OA
ATOM     31  C   UNL     1      44.899   4.381  10.408  0.00  0.00    +0.000 A 
ATOM     32  H   UNL     1      45.619   3.683   7.278  0.00  0.00    +0.000 HD
ENDBRANCH  19  22
ENDBRANCH   1  20
TORSDOF 7
ENDMDL
