MODEL 1
REMARK VINA RESULT:    -8.538      0.000      0.000
REMARK INTER + INTRA:         -13.461
REMARK INTER:                 -12.531
REMARK INTRA:                  -0.930
REMARK UNBOUND:                -0.930
REMARK  Name = 
REMARK  9 active torsions:
REMARK  status: ('A' for Active; 'I' for Inactive)
REMARK    1  A    between atoms: N_1  and  C_2
REMARK    2  A    between atoms: C_2  and  C_3
REMARK    3  A    between atoms: C_3  and  C_4
REMARK    4  A    between atoms: C_7  and  C_8
REMARK    5  A    between atoms: C_8  and  N_9
REMARK    6  A    between atoms: C_15  and  C_16
REMARK    7  A    between atoms: N_18  and  C_19
REMARK    8  A    between atoms: C_19  and  C_20
REMARK    9  A    between atoms: C_20  and  O_21
REMARK                            x       y       z     vdW  Elec       q    Type
REMARK                         _______ _______ _______ _____ _____    ______ ____
ROOT
ATOM      1  N   UNL     1      44.176   6.195  11.477  0.00  0.00    +0.000 N 
ATOM      2  C   UNL     1      44.277   7.504  11.057  0.00  0.00    +0.000 A 
ATOM      3  C   UNL     1      44.944   8.198  12.034  0.00  0.00    +0.000 A 
ATOM      4  C   UNL     1      45.747   7.223  12.670  0.00  0.00    +0.000 A 
ATOM      5  C   UNL     1      46.969   7.277  13.358  0.00  0.00    +0.000 A 
ATOM      6  C   UNL     1      47.457   6.116  13.962  0.00  0.00    +0.000 A 
ATOM      7  C   UNL     1      46.675   4.958  13.993  0.00  0.00    +0.000 A 
ATOM      8  C   UNL     1      45.494   4.857  13.233  0.00  0.00    +0.000 A 
ATOM      9  C   UNL     1      45.104   5.988  12.491  0.00  0.00    +0.000 A 
ENDROOT
BRANCH   7  10
ATOM     10  C   UNL     1      47.159   3.840  14.831  0.00  0.00    +0.000 C 
ATOM     11  O   UNL     1      47.584   2.824  14.308  0.00  0.00    +0.000 OA
ATOM     12  N   UNL     1      47.142   4.037  16.203  0.00  0.00    +0.000 N 
ATOM     13  H   UNL     1      46.901   4.946  16.564  0.00  0.00    +0.000 HD
BRANCH  12  14
ATOM     14  C   UNL     1      47.667   3.034  17.116  0.00  0.00    +0.000 C 
BRANCH  14  15
ATOM     15  C   UNL     1      49.182   2.853  16.996  0.00  0.00    +0.000 C 
BRANCH  15  16
ATOM     16  O   UNL     1      49.484   1.730  16.169  0.00  0.00    +0.000 OA
ATOM     17  H   UNL     1      50.192   1.245  16.626  0.00  0.00    +0.000 HD
ENDBRANCH  15  16
ENDBRANCH  14  15
ENDBRANCH  12  14
ENDBRANCH   7  10
BRANCH   1  18
ATOM     18  C   UNL     1      43.471   5.197  10.682  0.00  0.00    +0.000 C 
BRANCH  18  22
ATOM     19  C   UNL     1      45.923   2.570   8.241  0.00  0.00    +0.000 A 
ATOM     20  C   UNL     1      44.957   2.031   9.103  0.00  0.00    +0.000 A 
ATOM     21  C   UNL     1      44.173   2.865   9.921  0.00  0.00    +0.000 A 
ATOM     22  C   UNL     1      44.344   4.252   9.876  0.00  0.00    +0.000 A 
ATOM     23  C   UNL     1      45.276   4.784   8.995  0.00  0.00    +0.000 A 
ATOM     24  C   UNL     1      46.059   3.961   8.186  0.00  0.00    +0.000 A 
BRANCH  19  25
ATOM     25  C   UNL     1      46.818   1.693   7.402  0.00  0.00    +0.000 C 
BRANCH  25  26
ATOM     26  C   UNL     1      47.996   2.439   6.768  0.00  0.00    +0.000 C 
BRANCH  26  27
ATOM     27  N   UNL     1      48.407   1.787   5.523  0.00  0.00    +0.000 NA
ATOM     28  H   UNL     1      48.278   0.779   5.605  0.00  0.00    +0.000 HD
ATOM     29  H   UNL     1      49.404   1.935   5.369  0.00  0.00    +0.000 HD
ENDBRANCH  26  27
ENDBRANCH  25  26
ENDBRANCH  19  25
ENDBRANCH  18  22
ENDBRANCH   1  18
TORSDOF 9
ENDMDL
MODEL 2
REMARK VINA RESULT:    -6.901      2.970      7.084
REMARK INTER + INTRA:         -11.059
REMARK INTER:                 -10.144
REMARK INTRA:                  -0.915
REMARK UNBOUND:                -0.930
REMARK  Name = 
REMARK  9 active torsions:
REMARK  status: ('A' for Active; 'I' for Inactive)
REMARK    1  A    between atoms: N_1  and  C_2
REMARK    2  A    between atoms: C_2  and  C_3
REMARK    3  A    between atoms: C_3  and  C_4
REMARK    4  A    between atoms: C_7  and  C_8
REMARK    5  A    between atoms: C_8  and  N_9
REMARK    6  A    between atoms: C_15  and  C_16
REMARK    7  A    between atoms: N_18  and  C_19
REMARK    8  A    between atoms: C_19  and  C_20
REMARK    9  A    between atoms: C_20  and  O_21
REMARK                            x       y       z     vdW  Elec       q    Type
REMARK                         _______ _______ _______ _____ _____    ______ ____
ROOT
ATOM      1  N   UNL     1      44.201   6.351  11.583  0.00  0.00    +0.000 N 
ATOM      2  C   UNL     1      43.388   6.267  12.694  0.00  0.00    +0.000 A 
ATOM      3  C   UNL     1      42.605   5.151  12.547  0.00  0.00    +0.000 A 
ATOM      4  C   UNL     1      43.371   4.292  11.726  0.00  0.00    +0.000 A 
ATOM      5  C   UNL     1      43.438   2.896  11.585  0.00  0.00    +0.000 A 
ATOM      6  C   UNL     1      44.256   2.356  10.589  0.00  0.00    +0.000 A 
ATOM      7  C   UNL     1      44.887   3.195   9.667  0.00  0.00    +0.000 A 
ATOM      8  C   UNL     1      44.907   4.591   9.847  0.00  0.00    +0.000 A 
ATOM      9  C   UNL     1      44.215   5.108  10.958  0.00  0.00    +0.000 A 
ENDROOT
BRANCH   7  10
ATOM     10  C   UNL     1      45.557   2.548   8.518  0.00  0.00    +0.000 C 
ATOM     11  O   UNL     1      45.634   1.333   8.460  0.00  0.00    +0.000 OA
ATOM     12  N   UNL     1      46.034   3.387   7.523  0.00  0.00    +0.000 N 
ATOM     13  H   UNL     1      45.825   4.371   7.569  0.00  0.00    +0.000 HD
BRANCH  12  14
ATOM     14  C   UNL     1      46.641   2.854   6.313  0.00  0.00    +0.000 C 
BRANCH  14  15
ATOM     15  C   UNL     1      48.110   2.468   6.503  0.00  0.00    +0.000 C 
BRANCH  15  16
ATOM     16  O   UNL     1      48.577   1.724   5.379  0.00  0.00    +0.000 OA
ATOM     17  H   UNL     1      48.730   2.374   4.672  0.00  0.00    +0.000 HD
ENDBRANCH  15  16
ENDBRANCH  14  15
ENDBRANCH  12  14
ENDBRANCH   7  10
BRANCH   1  18
ATOM     18  C   UNL     1      45.127   7.462  11.404  0.00  0.00    +0.000 C 
BRANCH  18  22
ATOM     19  C   UNL     1      48.713   7.542  13.853  0.00  0.00    +0.000 A 
ATOM     20  C   UNL     1      48.581   6.592  12.831  0.00  0.00    +0.000 A 
ATOM     21  C   UNL     1      47.415   6.532  12.046  0.00  0.00    +0.000 A 
ATOM     22  C   UNL     1      46.371   7.436  12.272  0.00  0.00    +0.000 A 
ATOM     23  C   UNL     1      46.521   8.399  13.262  0.00  0.00    +0.000 A 
ATOM     24  C   UNL     1      47.673   8.457  14.046  0.00  0.00    +0.000 A 
BRANCH  19  25
ATOM     25  C   UNL     1      49.927   7.583  14.748  0.00  0.00    +0.000 C 
BRANCH  25  26
ATOM     26  C   UNL     1      49.654   7.115  16.181  0.00  0.00    +0.000 C 
BRANCH  26  27
ATOM     27  N   UNL     1      49.306   5.692  16.197  0.00  0.00    +0.000 NA
ATOM     28  H   UNL     1      49.917   5.182  15.560  0.00  0.00    +0.000 HD
ATOM     29  H   UNL     1      48.358   5.565  15.845  0.00  0.00    +0.000 HD
ENDBRANCH  26  27
ENDBRANCH  25  26
ENDBRANCH  19  25
ENDBRANCH  18  22
ENDBRANCH   1  18
TORSDOF 9
ENDMDL
MODEL 3
REMARK VINA RESULT:    -6.564      2.716      7.162
REMARK INTER + INTRA:         -10.564
REMARK INTER:                  -9.745
REMARK INTRA:                  -0.819
REMARK UNBOUND:                -0.930
REMARK  Name = 
REMARK  9 active torsions:
REMARK  status: ('A' for Active; 'I' for Inactive)
REMARK    1  A    between atoms: N_1  and  C_2
REMARK    2  A    between atoms: C_2  and  C_3
REMARK    3  A    between atoms: C_3  and  C_4
REMARK    4  A    between atoms: C_7  and  C_8
REMARK    5  A    between atoms: C_8  and  N_9
REMARK    6  A    between atoms: C_15  and  C_16
REMARK    7  A    between atoms: N_18  and  C_19
REMARK    8  A    between atoms: C_19  and  C_20
REMARK    9  A    between atoms: C_20  and  O_21
REMARK                            x       y       z     vdW  Elec       q    Type
REMARK                         _______ _______ _______ _____ _____    ______ ____
ROOT
ATOM      1  N   UNL     1      46.794   7.339  12.129  0.00  0.00    +0.000 N 
ATOM      2  C   UNL     1      46.230   8.549  12.474  0.00  0.00    +0.000 A 
ATOM      3  C   UNL     1      45.051   8.665  11.784  0.00  0.00    +0.000 A 
ATOM      4  C   UNL     1      44.643   7.329  11.562  0.00  0.00    +0.000 A 
ATOM      5  C   UNL     1      43.391   6.718  11.388  0.00  0.00    +0.000 A 
ATOM      6  C   UNL     1      43.339   5.355  11.088  0.00  0.00    +0.000 A 
ATOM      7  C   UNL     1      44.517   4.647  10.833  0.00  0.00    +0.000 A 
ATOM      8  C   UNL     1      45.779   5.217  11.091  0.00  0.00    +0.000 A 
ATOM      9  C   UNL     1      45.805   6.544  11.558  0.00  0.00    +0.000 A 
ENDROOT
BRANCH   7  10
ATOM     10  C   UNL     1      44.376   3.270  10.312  0.00  0.00    +0.000 C 
ATOM     11  O   UNL     1      43.450   2.570  10.682  0.00  0.00    +0.000 OA
ATOM     12  N   UNL     1      45.310   2.861   9.373  0.00  0.00    +0.000 N 
ATOM     13  H   UNL     1      45.972   3.531   9.015  0.00  0.00    +0.000 HD
BRANCH  12  14
ATOM     14  C   UNL     1      45.220   1.555   8.739  0.00  0.00    +0.000 C 
BRANCH  14  15
ATOM     15  C   UNL     1      46.442   1.224   7.880  0.00  0.00    +0.000 C 
BRANCH  15  16
ATOM     16  O   UNL     1      46.742  -0.169   7.958  0.00  0.00    +0.000 OA
ATOM     17  H   UNL     1      47.619  -0.277   7.553  0.00  0.00    +0.000 HD
ENDBRANCH  15  16
ENDBRANCH  14  15
ENDBRANCH  12  14
ENDBRANCH   7  10
BRANCH   1  18
ATOM     18  C   UNL     1      48.089   6.928  12.655  0.00  0.00    +0.000 C 
BRANCH  18  22
ATOM     19  C   UNL     1      48.247   5.364  16.704  0.00  0.00    +0.000 A 
ATOM     20  C   UNL     1      47.491   4.706  15.725  0.00  0.00    +0.000 A 
ATOM     21  C   UNL     1      47.405   5.213  14.416  0.00  0.00    +0.000 A 
ATOM     22  C   UNL     1      48.088   6.384  14.072  0.00  0.00    +0.000 A 
ATOM     23  C   UNL     1      48.865   7.013  15.035  0.00  0.00    +0.000 A 
ATOM     24  C   UNL     1      48.948   6.517  16.336  0.00  0.00    +0.000 A 
BRANCH  19  25
ATOM     25  C   UNL     1      48.302   4.874  18.130  0.00  0.00    +0.000 C 
BRANCH  25  26
ATOM     26  C   UNL     1      48.413   3.351  18.255  0.00  0.00    +0.000 C 
BRANCH  26  27
ATOM     27  N   UNL     1      48.250   2.938  19.651  0.00  0.00    +0.000 NA
ATOM     28  H   UNL     1      49.164   2.855  20.093  0.00  0.00    +0.000 HD
ATOM     29  H   UNL     1      47.829   2.009  19.688  0.00  0.00    +0.000 HD
ENDBRANCH  26  27
ENDBRANCH  25  26
ENDBRANCH  19  25
ENDBRANCH  18  22
ENDBRANCH   1  18
TORSDOF 9
ENDMDL
MODEL 4
REMARK VINA RESULT:    -6.184      2.772      7.776
REMARK INTER + INTRA:         -10.007
REMARK INTER:                  -9.160
REMARK INTRA:                  -0.847
REMARK UNBOUND:                -0.930
REMARK  Name = 
REMARK  9 active torsions:
REMARK  status: ('A' for Active; 'I' for Inactive)
REMARK    1  A    between atoms: N_1  and  C_2
REMARK    2  A    between atoms: C_2  and  C_3
REMARK    3  A    between atoms: C_3  and  C_4
REMARK    4  A    between atoms: C_7  and  C_8
REMARK    5  A    between atoms: C_8  and  N_9
REMARK    6  A    between atoms: C_15  and  C_16
REMARK    7  A    between atoms: N_18  and  C_19
REMARK    8  A    between atoms: C_19  and  C_20
REMARK    9  A    between atoms: C_20  and  O_21
REMARK                            x       y       z     vdW  Elec       q    Type
REMARK                         _______ _______ _______ _____ _____    ______ ____
ROOT
ATOM      1  N   UNL     1      48.387   6.006  15.606  0.00  0.00    +0.000 N 
ATOM      2  C   UNL     1      49.006   7.238  15.556  0.00  0.00    +0.000 A 
ATOM      3  C   UNL     1      49.039   7.627  14.241  0.00  0.00    +0.000 A 
ATOM      4  C   UNL     1      47.934   6.970  13.653  0.00  0.00    +0.000 A 
ATOM      5  C   UNL     1      47.105   7.264  12.559  0.00  0.00    +0.000 A 
ATOM      6  C   UNL     1      46.136   6.335  12.175  0.00  0.00    +0.000 A 
ATOM      7  C   UNL     1      46.085   5.079  12.788  0.00  0.00    +0.000 A 
ATOM      8  C   UNL     1      46.841   4.802  13.942  0.00  0.00    +0.000 A 
ATOM      9  C   UNL     1      47.692   5.817  14.416  0.00  0.00    +0.000 A 
ENDROOT
BRANCH   7  10
ATOM     10  C   UNL     1      45.181   4.074  12.189  0.00  0.00    +0.000 C 
ATOM     11  O   UNL     1      44.719   3.180  12.877  0.00  0.00    +0.000 OA
ATOM     12  N   UNL     1      44.869   4.238  10.848  0.00  0.00    +0.000 N 
ATOM     13  H   UNL     1      45.180   5.068  10.370  0.00  0.00    +0.000 HD
BRANCH  12  14
ATOM     14  C   UNL     1      43.930   3.351  10.178  0.00  0.00    +0.000 C 
BRANCH  14  15
ATOM     15  C   UNL     1      44.537   2.651   8.960  0.00  0.00    +0.000 C 
BRANCH  15  16
ATOM     16  O   UNL     1      45.587   1.773   9.364  0.00  0.00    +0.000 OA
ATOM     17  H   UNL     1      46.201   2.315   9.889  0.00  0.00    +0.000 HD
ENDBRANCH  15  16
ENDBRANCH  14  15
ENDBRANCH  12  14
ENDBRANCH   7  10
BRANCH   1  18
ATOM     18  C   UNL     1      48.235   5.286  16.864  0.00  0.00    +0.000 C 
BRANCH  18  22
ATOM     19  C   UNL     1      51.078   2.046  17.406  0.00  0.00    +0.000 A 
ATOM     20  C   UNL     1      49.778   1.774  16.954  0.00  0.00    +0.000 A 
ATOM     21  C   UNL     1      48.836   2.807  16.800  0.00  0.00    +0.000 A 
ATOM     22  C   UNL     1      49.192   4.129  17.087  0.00  0.00    +0.000 A 
ATOM     23  C   UNL     1      50.490   4.399  17.499  0.00  0.00    +0.000 A 
ATOM     24  C   UNL     1      51.425   3.377  17.659  0.00  0.00    +0.000 A 
BRANCH  19  25
ATOM     25  C   UNL     1      52.085   0.948  17.639  0.00  0.00    +0.000 C 
BRANCH  25  26
ATOM     26  C   UNL     1      53.524   1.451  17.791  0.00  0.00    +0.000 C 
BRANCH  26  27
ATOM     27  N   UNL     1      54.144   0.877  18.988  0.00  0.00    +0.000 NA
ATOM     28  H   UNL     1      53.526   1.002  19.788  0.00  0.00    +0.000 HD
ATOM     29  H   UNL     1      55.002   1.384  19.208  0.00  0.00    +0.000 HD
ENDBRANCH  26  27
ENDBRANCH  25  26
ENDBRANCH  19  25
ENDBRANCH  18  22
ENDBRANCH   1  18
TORSDOF 9
ENDMDL
MODEL 5
REMARK VINA RESULT:    -6.131      2.839      7.347
REMARK INTER + INTRA:          -9.928
REMARK INTER:                  -9.558
REMARK INTRA:                  -0.370
REMARK UNBOUND:                -0.930
REMARK  Name = 
REMARK  9 active torsions:
REMARK  status: ('A' for Active; 'I' for Inactive)
REMARK    1  A    between atoms: N_1  and  C_2
REMARK    2  A    between atoms: C_2  and  C_3
REMARK    3  A    between atoms: C_3  and  C_4
REMARK    4  A    between atoms: C_7  and  C_8
REMARK    5  A    between atoms: C_8  and  N_9
REMARK    6  A    between atoms: C_15  and  C_16
REMARK    7  A    between atoms: N_18  and  C_19
REMARK    8  A    between atoms: C_19  and  C_20
REMARK    9  A    between atoms: C_20  and  O_21
REMARK                            x       y       z     vdW  Elec       q    Type
REMARK                         _______ _______ _______ _____ _____    ______ ____
ROOT
ATOM      1  N   UNL     1      45.315   6.103  12.541  0.00  0.00    +0.000 N 
ATOM      2  C   UNL     1      44.228   5.936  13.373  0.00  0.00    +0.000 A 
ATOM      3  C   UNL     1      43.166   5.558  12.591  0.00  0.00    +0.000 A 
ATOM      4  C   UNL     1      43.762   4.917  11.480  0.00  0.00    +0.000 A 
ATOM      5  C   UNL     1      43.330   3.911  10.600  0.00  0.00    +0.000 A 
ATOM      6  C   UNL     1      44.146   3.560   9.522  0.00  0.00    +0.000 A 
ATOM      7  C   UNL     1      45.306   4.292   9.251  0.00  0.00    +0.000 A 
ATOM      8  C   UNL     1      45.800   5.238  10.170  0.00  0.00    +0.000 A 
ATOM      9  C   UNL     1      45.049   5.458  11.338  0.00  0.00    +0.000 A 
ENDROOT
BRANCH   7  10
ATOM     10  C   UNL     1      46.002   4.005   7.978  0.00  0.00    +0.000 C 
ATOM     11  O   UNL     1      46.780   4.818   7.510  0.00  0.00    +0.000 OA
ATOM     12  N   UNL     1      45.752   2.771   7.397  0.00  0.00    +0.000 N 
ATOM     13  H   UNL     1      45.199   2.095   7.899  0.00  0.00    +0.000 HD
BRANCH  12  14
ATOM     14  C   UNL     1      46.440   2.355   6.185  0.00  0.00    +0.000 C 
BRANCH  14  15
ATOM     15  C   UNL     1      47.849   1.820   6.453  0.00  0.00    +0.000 C 
BRANCH  15  16
ATOM     16  O   UNL     1      48.610   1.798   5.247  0.00  0.00    +0.000 OA
ATOM     17  H   UNL     1      48.517   0.899   4.888  0.00  0.00    +0.000 HD
ENDBRANCH  15  16
ENDBRANCH  14  15
ENDBRANCH  12  14
ENDBRANCH   7  10
BRANCH   1  18
ATOM     18  C   UNL     1      46.601   6.555  13.057  0.00  0.00    +0.000 C 
BRANCH  18  22
ATOM     19  C   UNL     1      48.107   4.204  16.385  0.00  0.00    +0.000 A 
ATOM     20  C   UNL     1      48.546   5.523  16.200  0.00  0.00    +0.000 A 
ATOM     21  C   UNL     1      48.091   6.290  15.112  0.00  0.00    +0.000 A 
ATOM     22  C   UNL     1      47.179   5.743  14.202  0.00  0.00    +0.000 A 
ATOM     23  C   UNL     1      46.720   4.450  14.410  0.00  0.00    +0.000 A 
ATOM     24  C   UNL     1      47.173   3.684  15.484  0.00  0.00    +0.000 A 
BRANCH  19  25
ATOM     25  C   UNL     1      48.630   3.343  17.508  0.00  0.00    +0.000 C 
BRANCH  25  26
ATOM     26  C   UNL     1      50.044   2.806  17.266  0.00  0.00    +0.000 C 
BRANCH  26  27
ATOM     27  N   UNL     1      50.016   1.705  16.299  0.00  0.00    +0.000 NA
ATOM     28  H   UNL     1      49.086   1.631  15.891  0.00  0.00    +0.000 HD
ATOM     29  H   UNL     1      50.189   0.822  16.778  0.00  0.00    +0.000 HD
ENDBRANCH  26  27
ENDBRANCH  25  26
ENDBRANCH  19  25
ENDBRANCH  18  22
ENDBRANCH   1  18
TORSDOF 9
ENDMDL
MODEL 6
REMARK VINA RESULT:    -6.123      3.374      7.806
REMARK INTER + INTRA:          -9.917
REMARK INTER:                  -9.012
REMARK INTRA:                  -0.905
REMARK UNBOUND:                -0.930
REMARK  Name = 
REMARK  9 active torsions:
REMARK  status: ('A' for Active; 'I' for Inactive)
REMARK    1  A    between atoms: N_1  and  C_2
REMARK    2  A    between atoms: C_2  and  C_3
REMARK    3  A    between atoms: C_3  and  C_4
REMARK    4  A    between atoms: C_7  and  C_8
REMARK    5  A    between atoms: C_8  and  N_9
REMARK    6  A    between atoms: C_15  and  C_16
REMARK    7  A    between atoms: N_18  and  C_19
REMARK    8  A    between atoms: C_19  and  C_20
REMARK    9  A    between atoms: C_20  and  O_21
REMARK                            x       y       z     vdW  Elec       q    Type
REMARK                         _______ _______ _______ _____ _____    ______ ____
ROOT
ATOM      1  N   UNL     1      49.467   7.179  14.860  0.00  0.00    +0.000 N 
ATOM      2  C   UNL     1      50.247   8.139  14.250  0.00  0.00    +0.000 A 
ATOM      3  C   UNL     1      50.087   7.998  12.895  0.00  0.00    +0.000 A 
ATOM      4  C   UNL     1      48.800   7.428  12.753  0.00  0.00    +0.000 A 
ATOM      5  C   UNL     1      47.832   7.470  11.736  0.00  0.00    +0.000 A 
ATOM      6  C   UNL     1      46.675   6.700  11.872  0.00  0.00    +0.000 A 
ATOM      7  C   UNL     1      46.550   5.802  12.936  0.00  0.00    +0.000 A 
ATOM      8  C   UNL     1      47.462   5.813  14.008  0.00  0.00    +0.000 A 
ATOM      9  C   UNL     1      48.535   6.720  13.935  0.00  0.00    +0.000 A 
ENDROOT
BRANCH   7  10
ATOM     10  C   UNL     1      45.403   4.869  12.898  0.00  0.00    +0.000 C 
ATOM     11  O   UNL     1      45.313   3.978  13.725  0.00  0.00    +0.000 OA
ATOM     12  N   UNL     1      44.447   5.097  11.921  0.00  0.00    +0.000 N 
ATOM     13  H   UNL     1      44.515   5.926  11.352  0.00  0.00    +0.000 HD
BRANCH  12  14
ATOM     14  C   UNL     1      43.241   4.287  11.841  0.00  0.00    +0.000 C 
BRANCH  14  15
ATOM     15  C   UNL     1      43.507   2.871  11.325  0.00  0.00    +0.000 C 
BRANCH  15  16
ATOM     16  O   UNL     1      43.508   1.940  12.406  0.00  0.00    +0.000 OA
ATOM     17  H   UNL     1      42.938   1.204  12.125  0.00  0.00    +0.000 HD
ENDBRANCH  15  16
ENDBRANCH  14  15
ENDBRANCH  12  14
ENDBRANCH   7  10
BRANCH   1  18
ATOM     18  C   UNL     1      49.450   7.025  16.309  0.00  0.00    +0.000 C 
BRANCH  18  22
ATOM     19  C   UNL     1      51.607   3.538  17.746  0.00  0.00    +0.000 A 
ATOM     20  C   UNL     1      50.215   3.489  17.590  0.00  0.00    +0.000 A 
ATOM     21  C   UNL     1      49.496   4.617  17.153  0.00  0.00    +0.000 A 
ATOM     22  C   UNL     1      50.171   5.805  16.856  0.00  0.00    +0.000 A 
ATOM     23  C   UNL     1      51.554   5.839  16.977  0.00  0.00    +0.000 A 
ATOM     24  C   UNL     1      52.269   4.726  17.416  0.00  0.00    +0.000 A 
BRANCH  19  25
ATOM     25  C   UNL     1      52.390   2.362  18.274  0.00  0.00    +0.000 C 
BRANCH  25  26
ATOM     26  C   UNL     1      52.034   1.032  17.602  0.00  0.00    +0.000 C 
BRANCH  26  27
ATOM     27  N   UNL     1      52.562  -0.092  18.379  0.00  0.00    +0.000 NA
ATOM     28  H   UNL     1      51.911  -0.875  18.335  0.00  0.00    +0.000 HD
ATOM     29  H   UNL     1      52.627   0.169  19.363  0.00  0.00    +0.000 HD
ENDBRANCH  26  27
ENDBRANCH  25  26
ENDBRANCH  19  25
ENDBRANCH  18  22
ENDBRANCH   1  18
TORSDOF 9
ENDMDL
MODEL 7
REMARK VINA RESULT:    -5.782      3.095      8.100
REMARK INTER + INTRA:          -9.417
REMARK INTER:                  -8.530
REMARK INTRA:                  -0.887
REMARK UNBOUND:                -0.930
REMARK  Name = 
REMARK  9 active torsions:
REMARK  status: ('A' for Active; 'I' for Inactive)
REMARK    1  A    between atoms: N_1  and  C_2
REMARK    2  A    between atoms: C_2  and  C_3
REMARK    3  A    between atoms: C_3  and  C_4
REMARK    4  A    between atoms: C_7  and  C_8
REMARK    5  A    between atoms: C_8  and  N_9
REMARK    6  A    between atoms: C_15  and  C_16
REMARK    7  A    between atoms: N_18  and  C_19
REMARK    8  A    between atoms: C_19  and  C_20
REMARK    9  A    between atoms: C_20  and  O_21
REMARK                            x       y       z     vdW  Elec       q    Type
REMARK                         _______ _______ _______ _____ _____    ______ ____
ROOT
ATOM      1  N   UNL     1      48.580   7.954  13.817  0.00  0.00    +0.000 N 
ATOM      2  C   UNL     1      48.366   9.317  13.811  0.00  0.00    +0.000 A 
ATOM      3  C   UNL     1      47.427   9.581  12.848  0.00  0.00    +0.000 A 
ATOM      4  C   UNL     1      46.672   8.389  12.759  0.00  0.00    +0.000 A 
ATOM      5  C   UNL     1      45.346   8.110  12.392  0.00  0.00    +0.000 A 
ATOM      6  C   UNL     1      44.930   6.779  12.318  0.00  0.00    +0.000 A 
ATOM      7  C   UNL     1      45.856   5.744  12.475  0.00  0.00    +0.000 A 
ATOM      8  C   UNL     1      47.163   6.000  12.932  0.00  0.00    +0.000 A 
ATOM      9  C   UNL     1      47.514   7.342  13.165  0.00  0.00    +0.000 A 
ENDROOT
BRANCH   7  10
ATOM     10  C   UNL     1      45.391   4.373  12.172  0.00  0.00    +0.000 C 
ATOM     11  O   UNL     1      45.676   3.452  12.919  0.00  0.00    +0.000 OA
ATOM     12  N   UNL     1      44.600   4.219  11.044  0.00  0.00    +0.000 N 
ATOM     13  H   UNL     1      44.296   5.039  10.543  0.00  0.00    +0.000 HD
BRANCH  12  14
ATOM     14  C   UNL     1      44.027   2.929  10.695  0.00  0.00    +0.000 C 
BRANCH  14  15
ATOM     15  C   UNL     1      44.587   2.362   9.388  0.00  0.00    +0.000 C 
BRANCH  15  16
ATOM     16  O   UNL     1      44.255   3.216   8.294  0.00  0.00    +0.000 OA
ATOM     17  H   UNL     1      43.288   3.318   8.319  0.00  0.00    +0.000 HD
ENDBRANCH  15  16
ENDBRANCH  14  15
ENDBRANCH  12  14
ENDBRANCH   7  10
BRANCH   1  18
ATOM     18  C   UNL     1      49.566   7.345  14.700  0.00  0.00    +0.000 C 
BRANCH  18  22
ATOM     19  C   UNL     1      48.067   6.355  18.655  0.00  0.00    +0.000 A 
ATOM     20  C   UNL     1      48.473   7.666  18.364  0.00  0.00    +0.000 A 
ATOM     21  C   UNL     1      48.988   7.998  17.098  0.00  0.00    +0.000 A 
ATOM     22  C   UNL     1      49.089   7.020  16.105  0.00  0.00    +0.000 A 
ATOM     23  C   UNL     1      48.653   5.732  16.385  0.00  0.00    +0.000 A 
ATOM     24  C   UNL     1      48.148   5.396  17.641  0.00  0.00    +0.000 A 
BRANCH  19  25
ATOM     25  C   UNL     1      47.572   5.962  20.025  0.00  0.00    +0.000 C 
BRANCH  25  26
ATOM     26  C   UNL     1      48.611   5.212  20.865  0.00  0.00    +0.000 C 
BRANCH  26  27
ATOM     27  N   UNL     1      48.401   3.766  20.770  0.00  0.00    +0.000 NA
ATOM     28  H   UNL     1      49.183   3.277  21.202  0.00  0.00    +0.000 HD
ATOM     29  H   UNL     1      48.393   3.483  19.790  0.00  0.00    +0.000 HD
ENDBRANCH  26  27
ENDBRANCH  25  26
ENDBRANCH  19  25
ENDBRANCH  18  22
ENDBRANCH   1  18
TORSDOF 9
ENDMDL
MODEL 8
REMARK VINA RESULT:    -5.678      3.869      7.075
REMARK INTER + INTRA:          -9.264
REMARK INTER:                  -8.520
REMARK INTRA:                  -0.744
REMARK UNBOUND:                -0.930
REMARK  Name = 
REMARK  9 active torsions:
REMARK  status: ('A' for Active; 'I' for Inactive)
REMARK    1  A    between atoms: N_1  and  C_2
REMARK    2  A    between atoms: C_2  and  C_3
REMARK    3  A    between atoms: C_3  and  C_4
REMARK    4  A    between atoms: C_7  and  C_8
REMARK    5  A    between atoms: C_8  and  N_9
REMARK    6  A    between atoms: C_15  and  C_16
REMARK    7  A    between atoms: N_18  and  C_19
REMARK    8  A    between atoms: C_19  and  C_20
REMARK    9  A    between atoms: C_20  and  O_21
REMARK                            x       y       z     vdW  Elec       q    Type
REMARK                         _______ _______ _______ _____ _____    ______ ____
ROOT
ATOM      1  N   UNL     1      46.456   7.236  12.596  0.00  0.00    +0.000 N 
ATOM      2  C   UNL     1      45.875   8.473  12.784  0.00  0.00    +0.000 A 
ATOM      3  C   UNL     1      44.882   8.606  11.849  0.00  0.00    +0.000 A 
ATOM      4  C   UNL     1      44.483   7.278  11.570  0.00  0.00    +0.000 A 
ATOM      5  C   UNL     1      43.278   6.702  11.137  0.00  0.00    +0.000 A 
ATOM      6  C   UNL     1      43.244   5.333  10.861  0.00  0.00    +0.000 A 
ATOM      7  C   UNL     1      44.423   4.582  10.886  0.00  0.00    +0.000 A 
ATOM      8  C   UNL     1      45.617   5.119  11.405  0.00  0.00    +0.000 A 
ATOM      9  C   UNL     1      45.589   6.457  11.838  0.00  0.00    +0.000 A 
ENDROOT
BRANCH   7  10
ATOM     10  C   UNL     1      44.348   3.196  10.376  0.00  0.00    +0.000 C 
ATOM     11  O   UNL     1      43.485   2.440  10.786  0.00  0.00    +0.000 OA
ATOM     12  N   UNL     1      45.267   2.842   9.400  0.00  0.00    +0.000 N 
ATOM     13  H   UNL     1      45.870   3.550   9.014  0.00  0.00    +0.000 HD
BRANCH  12  14
ATOM     14  C   UNL     1      45.235   1.529   8.775  0.00  0.00    +0.000 C 
BRANCH  14  15
ATOM     15  C   UNL     1      46.479   1.240   7.932  0.00  0.00    +0.000 C 
BRANCH  15  16
ATOM     16  O   UNL     1      46.763  -0.159   7.929  0.00  0.00    +0.000 OA
ATOM     17  H   UNL     1      46.764  -0.429   6.995  0.00  0.00    +0.000 HD
ENDBRANCH  15  16
ENDBRANCH  14  15
ENDBRANCH  12  14
ENDBRANCH   7  10
BRANCH   1  18
ATOM     18  C   UNL     1      47.588   6.800  13.404  0.00  0.00    +0.000 C 
BRANCH  18  22
ATOM     19  C   UNL     1      51.439   8.506  12.339  0.00  0.00    +0.000 A 
ATOM     20  C   UNL     1      50.529   8.143  11.336  0.00  0.00    +0.000 A 
ATOM     21  C   UNL     1      49.289   7.563  11.661  0.00  0.00    +0.000 A 
ATOM     22  C   UNL     1      48.944   7.352  12.999  0.00  0.00    +0.000 A 
ATOM     23  C   UNL     1      49.833   7.746  13.991  0.00  0.00    +0.000 A 
ATOM     24  C   UNL     1      51.065   8.315  13.673  0.00  0.00    +0.000 A 
BRANCH  19  25
ATOM     25  C   UNL     1      52.800   9.070  12.011  0.00  0.00    +0.000 C 
BRANCH  25  26
ATOM     26  C   UNL     1      53.071  10.436  12.648  0.00  0.00    +0.000 C 
BRANCH  26  27
ATOM     27  N   UNL     1      54.124  10.330  13.661  0.00  0.00    +0.000 NA
ATOM     28  H   UNL     1      53.703  10.209  14.581  0.00  0.00    +0.000 HD
ATOM     29  H   UNL     1      54.652  11.201  13.701  0.00  0.00    +0.000 HD
ENDBRANCH  26  27
ENDBRANCH  25  26
ENDBRANCH  19  25
ENDBRANCH  18  22
ENDBRANCH   1  18
TORSDOF 9
ENDMDL
