MODEL 1
REMARK VINA RESULT:    -8.881      0.000      0.000
REMARK INTER + INTRA:         -13.289
REMARK INTER:                 -12.256
REMARK INTRA:                  -1.033
REMARK UNBOUND:                -1.033
REMARK  Name = 
REMARK  7 active torsions:
REMARK  status: ('A' for Active; 'I' for Inactive)
REMARK    1  A    between atoms: C_2  and  C_20
REMARK    2  A    between atoms: N_3  and  C_4
REMARK    3  A    between atoms: C_4  and  C_5
REMARK    4  A    between atoms: C_9  and  C_10
REMARK    5  A    between atoms: C_10  and  N_11
REMARK    6  A    between atoms: N_11  and  C_12
REMARK    7  A    between atoms: C_15  and  O_16
REMARK                            x       y       z     vdW  Elec       q    Type
REMARK                         _______ _______ _______ _____ _____    ______ ____
ROOT
ATOM      1  C   UNL     1      45.157   5.697  12.206  0.00  0.00    +0.000 A 
ATOM      2  C   UNL     1      43.959   5.911  12.891  0.00  0.00    +0.000 A 
ATOM      3  C   UNL     1      42.878   5.093  12.608  0.00  0.00    +0.000 A 
ATOM      4  N   UNL     1      42.910   4.090  11.707  0.00  0.00    +0.000 NA
ATOM      5  C   UNL     1      44.078   3.889  11.039  0.00  0.00    +0.000 A 
ATOM      6  C   UNL     1      45.217   4.655  11.276  0.00  0.00    +0.000 A 
ENDROOT
BRANCH   1   7
ATOM      7  C   UNL     1      46.369   6.535  12.505  0.00  0.00    +0.000 C 
BRANCH   7  10
ATOM      8  O   UNL     1      49.053   6.570  13.318  0.00  0.00    +0.000 OA
ATOM      9  C   UNL     1      48.183   6.367  14.160  0.00  0.00    +0.000 C 
ATOM     10  N   UNL     1      46.854   6.272  13.835  0.00  0.00    +0.000 N 
ATOM     11  H   UNL     1      46.164   6.293  14.578  0.00  0.00    +0.000 HD
BRANCH   9  12
ATOM     12  C   UNL     1      48.519   6.166  15.574  0.00  0.00    +0.000 A 
ATOM     13  C   UNL     1      49.106   7.198  16.295  0.00  0.00    +0.000 A 
ATOM     14  S   UNL     1      49.418   6.802  17.923  0.00  0.00    +0.000 S 
ATOM     15  C   UNL     1      48.743   5.252  17.731  0.00  0.00    +0.000 A 
ATOM     16  N   UNL     1      48.655   4.393  18.785  0.00  0.00    +0.000 NA
ATOM     17  C   UNL     1      48.081   3.272  18.511  0.00  0.00    +0.000 A 
ATOM     18  N   UNL     1      47.605   2.919  17.274  0.00  0.00    +0.000 N 
ATOM     19  C   UNL     1      47.747   3.719  16.165  0.00  0.00    +0.000 A 
ATOM     20  O   UNL     1      47.445   3.315  15.045  0.00  0.00    +0.000 OA
ATOM     21  C   UNL     1      48.324   5.021  16.432  0.00  0.00    +0.000 A 
ATOM     22  H   UNL     1      47.200   2.007  17.118  0.00  0.00    +0.000 HD
ENDBRANCH   9  12
ENDBRANCH   7  10
ENDBRANCH   1   7
BRANCH   5  23
ATOM     23  C   UNL     1      44.128   2.758  10.027  0.00  0.00    +0.000 C 
BRANCH  23  24
ATOM     24  N   UNL     1      45.487   2.348   9.627  0.00  0.00    +0.000 NA
ATOM     25  H   UNL     1      45.618   1.415  10.028  0.00  0.00    +0.000 HD
BRANCH  24  26
ATOM     26  C   UNL     1      45.686   2.234   8.170  0.00  0.00    +0.000 C 
ATOM     27  C   UNL     1      46.151   3.557   7.539  0.00  0.00    +0.000 C 
ATOM     28  C   UNL     1      46.586   3.395   6.083  0.00  0.00    +0.000 C 
ATOM     29  C   UNL     1      47.628   2.296   5.910  0.00  0.00    +0.000 C 
ATOM     30  C   UNL     1      47.118   0.972   6.473  0.00  0.00    +0.000 C 
ATOM     31  C   UNL     1      46.692   1.091   7.936  0.00  0.00    +0.000 C 
BRANCH  29  32
ATOM     32  O   UNL     1      48.852   2.669   6.537  0.00  0.00    +0.000 OA
ATOM     33  H   UNL     1      49.530   2.002   6.330  0.00  0.00    +0.000 HD
ENDBRANCH  29  32
ENDBRANCH  24  26
ENDBRANCH  23  24
ENDBRANCH   5  23
TORSDOF 7
ENDMDL
MODEL 2
REMARK VINA RESULT:    -8.034      1.709      2.616
REMARK INTER + INTRA:         -12.120
REMARK INTER:                 -11.093
REMARK INTRA:                  -1.027
REMARK UNBOUND:                -1.033
REMARK  Name = 
REMARK  7 active torsions:
REMARK  status: ('A' for Active; 'I' for Inactive)
REMARK    1  A    between atoms: C_2  and  C_20
REMARK    2  A    between atoms: N_3  and  C_4
REMARK    3  A    between atoms: C_4  and  C_5
REMARK    4  A    between atoms: C_9  and  C_10
REMARK    5  A    between atoms: C_10  and  N_11
REMARK    6  A    between atoms: N_11  and  C_12
REMARK    7  A    between atoms: C_15  and  O_16
REMARK                            x       y       z     vdW  Elec       q    Type
REMARK                         _______ _______ _______ _____ _____    ______ ____
ROOT
ATOM      1  C   UNL     1      45.423   4.265  12.779  0.00  0.00    +0.000 A 
ATOM      2  C   UNL     1      44.310   4.695  13.505  0.00  0.00    +0.000 A 
ATOM      3  C   UNL     1      43.166   5.054  12.814  0.00  0.00    +0.000 A 
ATOM      4  N   UNL     1      43.055   5.010  11.470  0.00  0.00    +0.000 NA
ATOM      5  C   UNL     1      44.143   4.595  10.768  0.00  0.00    +0.000 A 
ATOM      6  C   UNL     1      45.327   4.199  11.386  0.00  0.00    +0.000 A 
ENDROOT
BRANCH   1   7
ATOM      7  C   UNL     1      46.676   3.829  13.488  0.00  0.00    +0.000 C 
BRANCH   7  10
ATOM      8  O   UNL     1      47.969   2.950  15.817  0.00  0.00    +0.000 OA
ATOM      9  C   UNL     1      47.573   4.111  15.762  0.00  0.00    +0.000 C 
ATOM     10  N   UNL     1      46.878   4.600  14.687  0.00  0.00    +0.000 N 
ATOM     11  H   UNL     1      46.739   5.602  14.606  0.00  0.00    +0.000 HD
BRANCH   9  12
ATOM     12  C   UNL     1      47.782   5.043  16.876  0.00  0.00    +0.000 A 
ATOM     13  C   UNL     1      47.203   4.779  18.111  0.00  0.00    +0.000 A 
ATOM     14  S   UNL     1      47.555   5.952  19.296  0.00  0.00    +0.000 S 
ATOM     15  C   UNL     1      48.527   6.832  18.212  0.00  0.00    +0.000 A 
ATOM     16  N   UNL     1      49.182   7.957  18.614  0.00  0.00    +0.000 NA
ATOM     17  C   UNL     1      49.918   8.498  17.706  0.00  0.00    +0.000 A 
ATOM     18  N   UNL     1      50.046   8.033  16.422  0.00  0.00    +0.000 N 
ATOM     19  C   UNL     1      49.339   6.952  15.948  0.00  0.00    +0.000 A 
ATOM     20  O   UNL     1      49.360   6.649  14.758  0.00  0.00    +0.000 OA
ATOM     21  C   UNL     1      48.548   6.265  16.948  0.00  0.00    +0.000 A 
ATOM     22  H   UNL     1      50.610   8.528  15.746  0.00  0.00    +0.000 HD
ENDBRANCH   9  12
ENDBRANCH   7  10
ENDBRANCH   1   7
BRANCH   5  23
ATOM     23  C   UNL     1      44.028   4.534   9.255  0.00  0.00    +0.000 C 
BRANCH  23  24
ATOM     24  N   UNL     1      45.316   4.533   8.537  0.00  0.00    +0.000 NA
ATOM     25  H   UNL     1      46.032   4.476   9.268  0.00  0.00    +0.000 HD
BRANCH  24  26
ATOM     26  C   UNL     1      45.512   3.382   7.637  0.00  0.00    +0.000 C 
ATOM     27  C   UNL     1      46.410   3.726   6.437  0.00  0.00    +0.000 C 
ATOM     28  C   UNL     1      46.814   2.493   5.629  0.00  0.00    +0.000 C 
ATOM     29  C   UNL     1      47.436   1.408   6.502  0.00  0.00    +0.000 C 
ATOM     30  C   UNL     1      46.497   1.025   7.643  0.00  0.00    +0.000 C 
ATOM     31  C   UNL     1      46.088   2.232   8.486  0.00  0.00    +0.000 C 
BRANCH  29  32
ATOM     32  O   UNL     1      48.693   1.843   7.012  0.00  0.00    +0.000 OA
ATOM     33  H   UNL     1      48.647   2.798   7.194  0.00  0.00    +0.000 HD
ENDBRANCH  29  32
ENDBRANCH  24  26
ENDBRANCH  23  24
ENDBRANCH   5  23
TORSDOF 7
ENDMDL
MODEL 3
REMARK VINA RESULT:    -7.686      2.179      3.116
REMARK INTER + INTRA:         -11.639
REMARK INTER:                 -10.802
REMARK INTRA:                  -0.837
REMARK UNBOUND:                -1.033
REMARK  Name = 
REMARK  7 active torsions:
REMARK  status: ('A' for Active; 'I' for Inactive)
REMARK    1  A    between atoms: C_2  and  C_20
REMARK    2  A    between atoms: N_3  and  C_4
REMARK    3  A    between atoms: C_4  and  C_5
REMARK    4  A    between atoms: C_9  and  C_10
REMARK    5  A    between atoms: C_10  and  N_11
REMARK    6  A    between atoms: N_11  and  C_12
REMARK    7  A    between atoms: C_15  and  O_16
REMARK                            x       y       z     vdW  Elec       q    Type
REMARK                         _______ _______ _______ _____ _____    ______ ____
ROOT
ATOM      1  C   UNL     1      45.930   4.918  13.348  0.00  0.00    +0.000 A 
ATOM      2  C   UNL     1      46.597   6.118  13.090  0.00  0.00    +0.000 A 
ATOM      3  C   UNL     1      46.617   6.599  11.792  0.00  0.00    +0.000 A 
ATOM      4  N   UNL     1      46.024   5.979  10.751  0.00  0.00    +0.000 NA
ATOM      5  C   UNL     1      45.380   4.809  11.008  0.00  0.00    +0.000 A 
ATOM      6  C   UNL     1      45.297   4.265  12.287  0.00  0.00    +0.000 A 
ENDROOT
BRANCH   1   7
ATOM      7  C   UNL     1      45.850   4.375  14.748  0.00  0.00    +0.000 C 
BRANCH   7  10
ATOM      8  O   UNL     1      46.453   3.225  17.235  0.00  0.00    +0.000 OA
ATOM      9  C   UNL     1      47.377   3.577  16.506  0.00  0.00    +0.000 C 
ATOM     10  N   UNL     1      47.167   4.203  15.305  0.00  0.00    +0.000 N 
ATOM     11  H   UNL     1      47.944   4.303  14.660  0.00  0.00    +0.000 HD
BRANCH   9  12
ATOM     12  C   UNL     1      48.776   3.389  16.902  0.00  0.00    +0.000 A 
ATOM     13  C   UNL     1      49.337   2.119  16.863  0.00  0.00    +0.000 A 
ATOM     14  S   UNL     1      50.973   2.078  17.340  0.00  0.00    +0.000 S 
ATOM     15  C   UNL     1      51.000   3.763  17.577  0.00  0.00    +0.000 A 
ATOM     16  N   UNL     1      52.145   4.398  17.955  0.00  0.00    +0.000 NA
ATOM     17  C   UNL     1      52.036   5.678  18.053  0.00  0.00    +0.000 A 
ATOM     18  N   UNL     1      50.882   6.385  17.829  0.00  0.00    +0.000 N 
ATOM     19  C   UNL     1      49.684   5.779  17.528  0.00  0.00    +0.000 A 
ATOM     20  O   UNL     1      48.640   6.423  17.479  0.00  0.00    +0.000 OA
ATOM     21  C   UNL     1      49.767   4.346  17.338  0.00  0.00    +0.000 A 
ATOM     22  H   UNL     1      50.856   7.386  17.961  0.00  0.00    +0.000 HD
ENDBRANCH   9  12
ENDBRANCH   7  10
ENDBRANCH   1   7
BRANCH   5  23
ATOM     23  C   UNL     1      44.702   4.105   9.845  0.00  0.00    +0.000 C 
BRANCH  23  24
ATOM     24  N   UNL     1      45.207   4.488   8.514  0.00  0.00    +0.000 NA
ATOM     25  H   UNL     1      46.107   4.947   8.687  0.00  0.00    +0.000 HD
BRANCH  24  26
ATOM     26  C   UNL     1      45.459   3.353   7.607  0.00  0.00    +0.000 C 
ATOM     27  C   UNL     1      46.377   3.736   6.434  0.00  0.00    +0.000 C 
ATOM     28  C   UNL     1      46.835   2.523   5.623  0.00  0.00    +0.000 C 
ATOM     29  C   UNL     1      47.465   1.447   6.500  0.00  0.00    +0.000 C 
ATOM     30  C   UNL     1      46.509   1.025   7.613  0.00  0.00    +0.000 C 
ATOM     31  C   UNL     1      46.045   2.210   8.458  0.00  0.00    +0.000 C 
BRANCH  29  32
ATOM     32  O   UNL     1      48.697   1.911   7.046  0.00  0.00    +0.000 OA
ATOM     33  H   UNL     1      49.244   1.143   7.289  0.00  0.00    +0.000 HD
ENDBRANCH  29  32
ENDBRANCH  24  26
ENDBRANCH  23  24
ENDBRANCH   5  23
TORSDOF 7
ENDMDL
MODEL 4
REMARK VINA RESULT:    -7.579      2.883      8.276
REMARK INTER + INTRA:         -11.492
REMARK INTER:                 -10.322
REMARK INTRA:                  -1.170
REMARK UNBOUND:                -1.033
REMARK  Name = 
REMARK  7 active torsions:
REMARK  status: ('A' for Active; 'I' for Inactive)
REMARK    1  A    between atoms: C_2  and  C_20
REMARK    2  A    between atoms: N_3  and  C_4
REMARK    3  A    between atoms: C_4  and  C_5
REMARK    4  A    between atoms: C_9  and  C_10
REMARK    5  A    between atoms: C_10  and  N_11
REMARK    6  A    between atoms: N_11  and  C_12
REMARK    7  A    between atoms: C_15  and  O_16
REMARK                            x       y       z     vdW  Elec       q    Type
REMARK                         _______ _______ _______ _____ _____    ______ ____
ROOT
ATOM      1  C   UNL     1      48.065   8.256  12.539  0.00  0.00    +0.000 A 
ATOM      2  C   UNL     1      49.170   8.941  12.028  0.00  0.00    +0.000 A 
ATOM      3  C   UNL     1      50.361   8.897  12.731  0.00  0.00    +0.000 A 
ATOM      4  N   UNL     1      50.525   8.223  13.889  0.00  0.00    +0.000 NA
ATOM      5  C   UNL     1      49.445   7.562  14.385  0.00  0.00    +0.000 A 
ATOM      6  C   UNL     1      48.216   7.541  13.730  0.00  0.00    +0.000 A 
ENDROOT
BRANCH   1   7
ATOM      7  C   UNL     1      46.760   8.245  11.792  0.00  0.00    +0.000 C 
BRANCH   7  10
ATOM      8  O   UNL     1      44.069   7.532  11.441  0.00  0.00    +0.000 OA
ATOM      9  C   UNL     1      44.919   6.646  11.455  0.00  0.00    +0.000 C 
ATOM     10  N   UNL     1      46.246   6.904  11.684  0.00  0.00    +0.000 N 
ATOM     11  H   UNL     1      46.927   6.175  11.500  0.00  0.00    +0.000 HD
BRANCH   9  12
ATOM     12  C   UNL     1      44.556   5.236  11.272  0.00  0.00    +0.000 A 
ATOM     13  C   UNL     1      43.788   4.594  12.234  0.00  0.00    +0.000 A 
ATOM     14  S   UNL     1      43.445   2.966  11.861  0.00  0.00    +0.000 S 
ATOM     15  C   UNL     1      44.278   3.075  10.382  0.00  0.00    +0.000 A 
ATOM     16  N   UNL     1      44.331   2.014   9.529  0.00  0.00    +0.000 NA
ATOM     17  C   UNL     1      44.954   2.248   8.426  0.00  0.00    +0.000 A 
ATOM     18  N   UNL     1      45.550   3.440   8.101  0.00  0.00    +0.000 N 
ATOM     19  C   UNL     1      45.594   4.510   8.964  0.00  0.00    +0.000 A 
ATOM     20  O   UNL     1      46.259   5.509   8.707  0.00  0.00    +0.000 OA
ATOM     21  C   UNL     1      44.848   4.323  10.192  0.00  0.00    +0.000 A 
ATOM     22  H   UNL     1      46.057   3.545   7.234  0.00  0.00    +0.000 HD
ENDBRANCH   9  12
ENDBRANCH   7  10
ENDBRANCH   1   7
BRANCH   5  23
ATOM     23  C   UNL     1      49.620   6.795  15.683  0.00  0.00    +0.000 C 
BRANCH  23  24
ATOM     24  N   UNL     1      48.364   6.480  16.388  0.00  0.00    +0.000 NA
ATOM     25  H   UNL     1      47.669   6.332  15.649  0.00  0.00    +0.000 HD
BRANCH  24  26
ATOM     26  C   UNL     1      48.411   5.251  17.201  0.00  0.00    +0.000 C 
ATOM     27  C   UNL     1      47.364   4.216  16.756  0.00  0.00    +0.000 C 
ATOM     28  C   UNL     1      47.556   2.857  17.428  0.00  0.00    +0.000 C 
ATOM     29  C   UNL     1      48.974   2.324  17.260  0.00  0.00    +0.000 C 
ATOM     30  C   UNL     1      49.997   3.333  17.778  0.00  0.00    +0.000 C 
ATOM     31  C   UNL     1      49.848   4.701  17.113  0.00  0.00    +0.000 C 
BRANCH  29  32
ATOM     32  O   UNL     1      49.228   2.010  15.894  0.00  0.00    +0.000 OA
ATOM     33  H   UNL     1      50.181   2.107  15.719  0.00  0.00    +0.000 HD
ENDBRANCH  29  32
ENDBRANCH  24  26
ENDBRANCH  23  24
ENDBRANCH   5  23
TORSDOF 7
ENDMDL
MODEL 5
REMARK VINA RESULT:    -7.266      2.715      3.556
REMARK INTER + INTRA:         -11.060
REMARK INTER:                 -10.420
REMARK INTRA:                  -0.640
REMARK UNBOUND:                -1.033
REMARK  Name = 
REMARK  7 active torsions:
REMARK  status: ('A' for Active; 'I' for Inactive)
REMARK    1  A    between atoms: C_2  and  C_20
REMARK    2  A    between atoms: N_3  and  C_4
REMARK    3  A    between atoms: C_4  and  C_5
REMARK    4  A    between atoms: C_9  and  C_10
REMARK    5  A    between atoms: C_10  and  N_11
REMARK    6  A    between atoms: N_11  and  C_12
REMARK    7  A    between atoms: C_15  and  O_16
REMARK                            x       y       z     vdW  Elec       q    Type
REMARK                         _______ _______ _______ _____ _____    ______ ____
ROOT
ATOM      1  C   UNL     1      45.043   5.109  12.692  0.00  0.00    +0.000 A 
ATOM      2  C   UNL     1      43.881   5.858  12.895  0.00  0.00    +0.000 A 
ATOM      3  C   UNL     1      42.902   5.839  11.916  0.00  0.00    +0.000 A 
ATOM      4  N   UNL     1      42.997   5.132  10.771  0.00  0.00    +0.000 NA
ATOM      5  C   UNL     1      44.132   4.408  10.577  0.00  0.00    +0.000 A 
ATOM      6  C   UNL     1      45.158   4.359  11.519  0.00  0.00    +0.000 A 
ENDROOT
BRANCH   1   7
ATOM      7  C   UNL     1      46.118   5.069  13.743  0.00  0.00    +0.000 C 
BRANCH   7  10
ATOM      8  O   UNL     1      46.245   7.850  13.396  0.00  0.00    +0.000 OA
ATOM      9  C   UNL     1      47.265   7.187  13.230  0.00  0.00    +0.000 C 
ATOM     10  N   UNL     1      47.273   5.819  13.319  0.00  0.00    +0.000 N 
ATOM     11  H   UNL     1      48.163   5.334  13.361  0.00  0.00    +0.000 HD
BRANCH   9  12
ATOM     12  C   UNL     1      48.540   7.820  12.878  0.00  0.00    +0.000 A 
ATOM     13  C   UNL     1      48.629   8.591  11.726  0.00  0.00    +0.000 A 
ATOM     14  S   UNL     1      50.175   9.264  11.472  0.00  0.00    +0.000 S 
ATOM     15  C   UNL     1      50.767   8.582  12.914  0.00  0.00    +0.000 A 
ATOM     16  N   UNL     1      52.045   8.813  13.324  0.00  0.00    +0.000 NA
ATOM     17  C   UNL     1      52.348   8.275  14.455  0.00  0.00    +0.000 A 
ATOM     18  N   UNL     1      51.497   7.506  15.208  0.00  0.00    +0.000 N 
ATOM     19  C   UNL     1      50.227   7.176  14.794  0.00  0.00    +0.000 A 
ATOM     20  O   UNL     1      49.544   6.368  15.416  0.00  0.00    +0.000 OA
ATOM     21  C   UNL     1      49.813   7.814  13.561  0.00  0.00    +0.000 A 
ATOM     22  H   UNL     1      51.811   7.080  16.068  0.00  0.00    +0.000 HD
ENDBRANCH   9  12
ENDBRANCH   7  10
ENDBRANCH   1   7
BRANCH   5  23
ATOM     23  C   UNL     1      44.248   3.604   9.295  0.00  0.00    +0.000 C 
BRANCH  23  24
ATOM     24  N   UNL     1      45.185   4.158   8.301  0.00  0.00    +0.000 NA
ATOM     25  H   UNL     1      46.006   4.454   8.839  0.00  0.00    +0.000 HD
BRANCH  24  26
ATOM     26  C   UNL     1      45.646   3.191   7.289  0.00  0.00    +0.000 C 
ATOM     27  C   UNL     1      46.444   3.863   6.159  0.00  0.00    +0.000 C 
ATOM     28  C   UNL     1      47.125   2.852   5.236  0.00  0.00    +0.000 C 
ATOM     29  C   UNL     1      47.978   1.850   6.005  0.00  0.00    +0.000 C 
ATOM     30  C   UNL     1      47.150   1.137   7.071  0.00  0.00    +0.000 C 
ATOM     31  C   UNL     1      46.470   2.117   8.027  0.00  0.00    +0.000 C 
BRANCH  29  32
ATOM     32  O   UNL     1      49.099   2.503   6.595  0.00  0.00    +0.000 OA
ATOM     33  H   UNL     1      48.832   3.396   6.877  0.00  0.00    +0.000 HD
ENDBRANCH  29  32
ENDBRANCH  24  26
ENDBRANCH  23  24
ENDBRANCH   5  23
TORSDOF 7
ENDMDL
MODEL 6
REMARK VINA RESULT:    -7.221      4.063      9.089
REMARK INTER + INTRA:         -10.997
REMARK INTER:                  -9.718
REMARK INTRA:                  -1.279
REMARK UNBOUND:                -1.033
REMARK  Name = 
REMARK  7 active torsions:
REMARK  status: ('A' for Active; 'I' for Inactive)
REMARK    1  A    between atoms: C_2  and  C_20
REMARK    2  A    between atoms: N_3  and  C_4
REMARK    3  A    between atoms: C_4  and  C_5
REMARK    4  A    between atoms: C_9  and  C_10
REMARK    5  A    between atoms: C_10  and  N_11
REMARK    6  A    between atoms: N_11  and  C_12
REMARK    7  A    between atoms: C_15  and  O_16
REMARK                            x       y       z     vdW  Elec       q    Type
REMARK                         _______ _______ _______ _____ _____    ______ ____
ROOT
ATOM      1  C   UNL     1      48.638   3.604  17.056  0.00  0.00    +0.000 A 
ATOM      2  C   UNL     1      49.502   2.507  17.077  0.00  0.00    +0.000 A 
ATOM      3  C   UNL     1      50.824   2.712  17.433  0.00  0.00    +0.000 A 
ATOM      4  N   UNL     1      51.334   3.915  17.769  0.00  0.00    +0.000 NA
ATOM      5  C   UNL     1      50.489   4.980  17.743  0.00  0.00    +0.000 A 
ATOM      6  C   UNL     1      49.141   4.858  17.412  0.00  0.00    +0.000 A 
ENDROOT
BRANCH   1   7
ATOM      7  C   UNL     1      47.185   3.425  16.711  0.00  0.00    +0.000 C 
BRANCH   7  10
ATOM      8  O   UNL     1      47.258   3.182  13.917  0.00  0.00    +0.000 OA
ATOM      9  C   UNL     1      46.776   4.198  14.410  0.00  0.00    +0.000 C 
ATOM     10  N   UNL     1      46.759   4.422  15.762  0.00  0.00    +0.000 N 
ATOM     11  H   UNL     1      46.189   5.177  16.129  0.00  0.00    +0.000 HD
BRANCH   9  12
ATOM     12  C   UNL     1      46.224   5.267  13.570  0.00  0.00    +0.000 A 
ATOM     13  C   UNL     1      46.985   6.400  13.312  0.00  0.00    +0.000 A 
ATOM     14  S   UNL     1      46.201   7.536  12.311  0.00  0.00    +0.000 S 
ATOM     15  C   UNL     1      44.835   6.534  12.154  0.00  0.00    +0.000 A 
ATOM     16  N   UNL     1      43.784   6.904  11.371  0.00  0.00    +0.000 NA
ATOM     17  C   UNL     1      42.837   6.032  11.305  0.00  0.00    +0.000 A 
ATOM     18  N   UNL     1      42.831   4.831  11.968  0.00  0.00    +0.000 N 
ATOM     19  C   UNL     1      43.831   4.454  12.834  0.00  0.00    +0.000 A 
ATOM     20  O   UNL     1      43.729   3.443  13.524  0.00  0.00    +0.000 OA
ATOM     21  C   UNL     1      44.954   5.367  12.891  0.00  0.00    +0.000 A 
ATOM     22  H   UNL     1      42.038   4.209  11.904  0.00  0.00    +0.000 HD
ENDBRANCH   9  12
ENDBRANCH   7  10
ENDBRANCH   1   7
BRANCH   5  23
ATOM     23  C   UNL     1      51.051   6.338  18.125  0.00  0.00    +0.000 C 
BRANCH  23  24
ATOM     24  N   UNL     1      50.412   6.961  19.299  0.00  0.00    +0.000 NA
ATOM     25  H   UNL     1      51.165   7.086  19.983  0.00  0.00    +0.000 HD
BRANCH  24  26
ATOM     26  C   UNL     1      49.825   8.289  19.042  0.00  0.00    +0.000 C 
ATOM     27  C   UNL     1      50.283   8.879  17.698  0.00  0.00    +0.000 C 
ATOM     28  C   UNL     1      49.506  10.137  17.311  0.00  0.00    +0.000 C 
ATOM     29  C   UNL     1      47.997   9.917  17.341  0.00  0.00    +0.000 C 
ATOM     30  C   UNL     1      47.551   9.404  18.708  0.00  0.00    +0.000 C 
ATOM     31  C   UNL     1      48.294   8.133  19.120  0.00  0.00    +0.000 C 
BRANCH  29  32
ATOM     32  O   UNL     1      47.608   9.009  16.314  0.00  0.00    +0.000 OA
ATOM     33  H   UNL     1      48.214   8.247  16.319  0.00  0.00    +0.000 HD
ENDBRANCH  29  32
ENDBRANCH  24  26
ENDBRANCH  23  24
ENDBRANCH   5  23
TORSDOF 7
ENDMDL
MODEL 7
REMARK VINA RESULT:    -6.979      3.904      7.915
REMARK INTER + INTRA:         -10.663
REMARK INTER:                  -8.513
REMARK INTRA:                  -2.151
REMARK UNBOUND:                -1.033
REMARK  Name = 
REMARK  7 active torsions:
REMARK  status: ('A' for Active; 'I' for Inactive)
REMARK    1  A    between atoms: C_2  and  C_20
REMARK    2  A    between atoms: N_3  and  C_4
REMARK    3  A    between atoms: C_4  and  C_5
REMARK    4  A    between atoms: C_9  and  C_10
REMARK    5  A    between atoms: C_10  and  N_11
REMARK    6  A    between atoms: N_11  and  C_12
REMARK    7  A    between atoms: C_15  and  O_16
REMARK                            x       y       z     vdW  Elec       q    Type
REMARK                         _______ _______ _______ _____ _____    ______ ____
ROOT
ATOM      1  C   UNL     1      49.463   8.760  15.042  0.00  0.00    +0.000 A 
ATOM      2  C   UNL     1      50.484   9.113  14.157  0.00  0.00    +0.000 A 
ATOM      3  C   UNL     1      51.699   8.457  14.251  0.00  0.00    +0.000 A 
ATOM      4  N   UNL     1      51.961   7.484  15.149  0.00  0.00    +0.000 NA
ATOM      5  C   UNL     1      50.964   7.147  16.011  0.00  0.00    +0.000 A 
ATOM      6  C   UNL     1      49.707   7.746  15.973  0.00  0.00    +0.000 A 
ENDROOT
BRANCH   1   7
ATOM      7  C   UNL     1      48.115   9.420  14.955  0.00  0.00    +0.000 C 
BRANCH   7  10
ATOM      8  O   UNL     1      47.519   9.192  12.224  0.00  0.00    +0.000 OA
ATOM      9  C   UNL     1      46.959   8.439  13.015  0.00  0.00    +0.000 C 
ATOM     10  N   UNL     1      47.147   8.527  14.370  0.00  0.00    +0.000 N 
ATOM     11  H   UNL     1      46.816   7.773  14.963  0.00  0.00    +0.000 HD
BRANCH   9  12
ATOM     12  C   UNL     1      46.009   7.419  12.559  0.00  0.00    +0.000 A 
ATOM     13  C   UNL     1      44.927   7.790  11.771  0.00  0.00    +0.000 A 
ATOM     14  S   UNL     1      43.932   6.483  11.317  0.00  0.00    +0.000 S 
ATOM     15  C   UNL     1      44.935   5.371  12.124  0.00  0.00    +0.000 A 
ATOM     16  N   UNL     1      44.666   4.035  12.090  0.00  0.00    +0.000 NA
ATOM     17  C   UNL     1      45.531   3.303  12.703  0.00  0.00    +0.000 A 
ATOM     18  N   UNL     1      46.632   3.782  13.367  0.00  0.00    +0.000 N 
ATOM     19  C   UNL     1      46.896   5.125  13.499  0.00  0.00    +0.000 A 
ATOM     20  O   UNL     1      47.803   5.528  14.221  0.00  0.00    +0.000 OA
ATOM     21  C   UNL     1      45.992   5.990  12.769  0.00  0.00    +0.000 A 
ATOM     22  H   UNL     1      47.251   3.155  13.861  0.00  0.00    +0.000 HD
ENDBRANCH   9  12
ENDBRANCH   7  10
ENDBRANCH   1   7
BRANCH   5  23
ATOM     23  C   UNL     1      51.245   6.049  17.021  0.00  0.00    +0.000 C 
BRANCH  23  24
ATOM     24  N   UNL     1      50.285   5.978  18.138  0.00  0.00    +0.000 NA
ATOM     25  H   UNL     1      49.578   6.692  17.933  0.00  0.00    +0.000 HD
BRANCH  24  26
ATOM     26  C   UNL     1      49.584   4.687  18.260  0.00  0.00    +0.000 C 
ATOM     27  C   UNL     1      48.130   4.762  17.762  0.00  0.00    +0.000 C 
ATOM     28  C   UNL     1      47.469   3.388  17.662  0.00  0.00    +0.000 C 
ATOM     29  C   UNL     1      48.295   2.408  16.835  0.00  0.00    +0.000 C 
ATOM     30  C   UNL     1      49.712   2.288  17.390  0.00  0.00    +0.000 C 
ATOM     31  C   UNL     1      50.412   3.643  17.486  0.00  0.00    +0.000 C 
BRANCH  29  32
ATOM     32  O   UNL     1      48.324   2.815  15.470  0.00  0.00    +0.000 OA
ATOM     33  H   UNL     1      48.173   3.775  15.422  0.00  0.00    +0.000 HD
ENDBRANCH  29  32
ENDBRANCH  24  26
ENDBRANCH  23  24
ENDBRANCH   5  23
TORSDOF 7
ENDMDL
MODEL 8
REMARK VINA RESULT:    -6.952      2.121      2.764
REMARK INTER + INTRA:         -10.626
REMARK INTER:                  -9.694
REMARK INTRA:                  -0.932
REMARK UNBOUND:                -1.033
REMARK  Name = 
REMARK  7 active torsions:
REMARK  status: ('A' for Active; 'I' for Inactive)
REMARK    1  A    between atoms: C_2  and  C_20
REMARK    2  A    between atoms: N_3  and  C_4
REMARK    3  A    between atoms: C_4  and  C_5
REMARK    4  A    between atoms: C_9  and  C_10
REMARK    5  A    between atoms: C_10  and  N_11
REMARK    6  A    between atoms: N_11  and  C_12
REMARK    7  A    between atoms: C_15  and  O_16
REMARK                            x       y       z     vdW  Elec       q    Type
REMARK                         _______ _______ _______ _____ _____    ______ ____
ROOT
ATOM      1  C   UNL     1      45.352   6.265  12.565  0.00  0.00    +0.000 A 
ATOM      2  C   UNL     1      45.613   5.294  13.534  0.00  0.00    +0.000 A 
ATOM      3  C   UNL     1      45.308   3.974  13.249  0.00  0.00    +0.000 A 
ATOM      4  N   UNL     1      44.775   3.562  12.080  0.00  0.00    +0.000 NA
ATOM      5  C   UNL     1      44.519   4.512  11.141  0.00  0.00    +0.000 A 
ATOM      6  C   UNL     1      44.812   5.859  11.341  0.00  0.00    +0.000 A 
ENDROOT
BRANCH   1   7
ATOM      7  C   UNL     1      45.700   7.707  12.815  0.00  0.00    +0.000 C 
BRANCH   7  10
ATOM      8  O   UNL     1      48.219   7.418  11.616  0.00  0.00    +0.000 OA
ATOM      9  C   UNL     1      48.161   7.718  12.805  0.00  0.00    +0.000 C 
ATOM     10  N   UNL     1      46.973   7.816  13.480  0.00  0.00    +0.000 N 
ATOM     11  H   UNL     1      46.963   8.246  14.399  0.00  0.00    +0.000 HD
BRANCH   9  12
ATOM     12  C   UNL     1      49.376   7.945  13.596  0.00  0.00    +0.000 A 
ATOM     13  C   UNL     1      50.293   8.905  13.187  0.00  0.00    +0.000 A 
ATOM     14  S   UNL     1      51.638   9.051  14.224  0.00  0.00    +0.000 S 
ATOM     15  C   UNL     1      51.021   7.865  15.277  0.00  0.00    +0.000 A 
ATOM     16  N   UNL     1      51.682   7.535  16.421  0.00  0.00    +0.000 NA
ATOM     17  C   UNL     1      51.082   6.657  17.148  0.00  0.00    +0.000 A 
ATOM     18  N   UNL     1      49.889   6.060  16.829  0.00  0.00    +0.000 N 
ATOM     19  C   UNL     1      49.229   6.301  15.646  0.00  0.00    +0.000 A 
ATOM     20  O   UNL     1      48.243   5.644  15.322  0.00  0.00    +0.000 OA
ATOM     21  C   UNL     1      49.826   7.332  14.823  0.00  0.00    +0.000 A 
ATOM     22  H   UNL     1      49.490   5.350  17.426  0.00  0.00    +0.000 HD
ENDBRANCH   9  12
ENDBRANCH   7  10
ENDBRANCH   1   7
BRANCH   5  23
ATOM     23  C   UNL     1      43.925   4.059   9.819  0.00  0.00    +0.000 C 
BRANCH  23  24
ATOM     24  N   UNL     1      44.356   2.720   9.377  0.00  0.00    +0.000 NA
ATOM     25  H   UNL     1      43.712   2.464   8.622  0.00  0.00    +0.000 HD
BRANCH  24  26
ATOM     26  C   UNL     1      45.723   2.668   8.827  0.00  0.00    +0.000 C 
ATOM     27  C   UNL     1      46.014   1.339   8.111  0.00  0.00    +0.000 C 
ATOM     28  C   UNL     1      47.332   1.362   7.337  0.00  0.00    +0.000 C 
ATOM     29  C   UNL     1      47.419   2.545   6.379  0.00  0.00    +0.000 C 
ATOM     30  C   UNL     1      47.204   3.861   7.122  0.00  0.00    +0.000 C 
ATOM     31  C   UNL     1      45.884   3.882   7.892  0.00  0.00    +0.000 C 
BRANCH  29  32
ATOM     32  O   UNL     1      46.470   2.402   5.327  0.00  0.00    +0.000 OA
ATOM     33  H   UNL     1      45.836   3.139   5.371  0.00  0.00    +0.000 HD
ENDBRANCH  29  32
ENDBRANCH  24  26
ENDBRANCH  23  24
ENDBRANCH   5  23
TORSDOF 7
ENDMDL
MODEL 9
REMARK VINA RESULT:    -6.872      3.725      5.526
REMARK INTER + INTRA:         -10.517
REMARK INTER:                  -9.107
REMARK INTRA:                  -1.410
REMARK UNBOUND:                -1.033
REMARK  Name = 
REMARK  7 active torsions:
REMARK  status: ('A' for Active; 'I' for Inactive)
REMARK    1  A    between atoms: C_2  and  C_20
REMARK    2  A    between atoms: N_3  and  C_4
REMARK    3  A    between atoms: C_4  and  C_5
REMARK    4  A    between atoms: C_9  and  C_10
REMARK    5  A    between atoms: C_10  and  N_11
REMARK    6  A    between atoms: N_11  and  C_12
REMARK    7  A    between atoms: C_15  and  O_16
REMARK                            x       y       z     vdW  Elec       q    Type
REMARK                         _______ _______ _______ _____ _____    ______ ____
ROOT
ATOM      1  C   UNL     1      45.826   4.754  13.247  0.00  0.00    +0.000 A 
ATOM      2  C   UNL     1      44.668   4.490  12.512  0.00  0.00    +0.000 A 
ATOM      3  C   UNL     1      44.017   5.547  11.899  0.00  0.00    +0.000 A 
ATOM      4  N   UNL     1      44.437   6.827  11.964  0.00  0.00    +0.000 NA
ATOM      5  C   UNL     1      45.562   7.079  12.685  0.00  0.00    +0.000 A 
ATOM      6  C   UNL     1      46.287   6.071  13.317  0.00  0.00    +0.000 A 
ENDROOT
BRANCH   1   7
ATOM      7  C   UNL     1      46.588   3.633  13.900  0.00  0.00    +0.000 C 
BRANCH   7  10
ATOM      8  O   UNL     1      46.425   3.564  16.700  0.00  0.00    +0.000 OA
ATOM      9  C   UNL     1      47.436   4.024  16.178  0.00  0.00    +0.000 C 
ATOM     10  N   UNL     1      47.569   4.152  14.819  0.00  0.00    +0.000 N 
ATOM     11  H   UNL     1      48.483   4.357  14.431  0.00  0.00    +0.000 HD
BRANCH   9  12
ATOM     12  C   UNL     1      48.558   4.515  16.986  0.00  0.00    +0.000 A 
ATOM     13  C   UNL     1      48.504   5.788  17.536  0.00  0.00    +0.000 A 
ATOM     14  S   UNL     1      49.881   6.195  18.456  0.00  0.00    +0.000 S 
ATOM     15  C   UNL     1      50.579   4.667  18.183  0.00  0.00    +0.000 A 
ATOM     16  N   UNL     1      51.775   4.335  18.744  0.00  0.00    +0.000 NA
ATOM     17  C   UNL     1      52.165   3.133  18.494  0.00  0.00    +0.000 A 
ATOM     18  N   UNL     1      51.481   2.234  17.716  0.00  0.00    +0.000 N 
ATOM     19  C   UNL     1      50.313   2.553  17.062  0.00  0.00    +0.000 A 
ATOM     20  O   UNL     1      49.802   1.779  16.257  0.00  0.00    +0.000 OA
ATOM     21  C   UNL     1      49.794   3.871  17.366  0.00  0.00    +0.000 A 
ATOM     22  H   UNL     1      51.862   1.318  17.527  0.00  0.00    +0.000 HD
ENDBRANCH   9  12
ENDBRANCH   7  10
ENDBRANCH   1   7
BRANCH   5  23
ATOM     23  C   UNL     1      46.048   8.516  12.759  0.00  0.00    +0.000 C 
BRANCH  23  24
ATOM     24  N   UNL     1      46.764   8.861  14.001  0.00  0.00    +0.000 NA
ATOM     25  H   UNL     1      46.695   8.028  14.594  0.00  0.00    +0.000 HD
BRANCH  24  26
ATOM     26  C   UNL     1      48.196   9.156  13.819  0.00  0.00    +0.000 C 
ATOM     27  C   UNL     1      49.098   8.061  14.414  0.00  0.00    +0.000 C 
ATOM     28  C   UNL     1      50.567   8.232  14.028  0.00  0.00    +0.000 C 
ATOM     29  C   UNL     1      50.758   8.356  12.520  0.00  0.00    +0.000 C 
ATOM     30  C   UNL     1      49.914   9.497  11.958  0.00  0.00    +0.000 C 
ATOM     31  C   UNL     1      48.434   9.349  12.308  0.00  0.00    +0.000 C 
BRANCH  29  32
ATOM     32  O   UNL     1      50.431   7.127  11.877  0.00  0.00    +0.000 OA
ATOM     33  H   UNL     1      51.250   6.625  11.721  0.00  0.00    +0.000 HD
ENDBRANCH  29  32
ENDBRANCH  24  26
ENDBRANCH  23  24
ENDBRANCH   5  23
TORSDOF 7
ENDMDL
