MODEL 1
REMARK VINA RESULT:    -8.019      0.000      0.000
REMARK INTER + INTRA:         -11.114
REMARK INTER:                 -10.363
REMARK INTRA:                  -0.751
REMARK UNBOUND:                -0.751
REMARK  Name = 
REMARK  5 active torsions:
REMARK  status: ('A' for Active; 'I' for Inactive)
REMARK    1  A    between atoms: C_2  and  C_3
REMARK    2  A    between atoms: C_6  and  N_7
REMARK    3  A    between atoms: N_7  and  C_8
REMARK    4  A    between atoms: C_8  and  C_9
REMARK    5  A    between atoms: C_13  and  C_14
REMARK                            x       y       z     vdW  Elec       q    Type
REMARK                         _______ _______ _______ _____ _____    ______ ____
ROOT
ATOM      1  C   UNL     1      43.885   4.800  11.284  0.00  0.00    +0.000 C 
ATOM      2  C   UNL     1      42.654   5.141  12.123  0.00  0.00    +0.000 C 
ATOM      3  C   UNL     1      43.073   6.045  11.014  0.00  0.00    +0.000 C 
ENDROOT
BRANCH   1   4
ATOM      4  C   UNL     1      45.253   4.902  11.955  0.00  0.00    +0.000 A 
ATOM      5  C   UNL     1      45.664   4.018  12.950  0.00  0.00    +0.000 A 
ATOM      6  C   UNL     1      46.795   4.321  13.703  0.00  0.00    +0.000 A 
ATOM      7  C   UNL     1      47.486   5.503  13.453  0.00  0.00    +0.000 A 
ATOM      8  C   UNL     1      47.044   6.340  12.435  0.00  0.00    +0.000 A 
ATOM      9  N   UNL     1      45.962   6.029  11.686  0.00  0.00    +0.000 NA
BRANCH   8  10
ATOM     10  C   UNL     1      47.651   7.647  12.122  0.00  0.00    +0.000 A 
ATOM     11  C   UNL     1      46.898   8.831  12.226  0.00  0.00    +0.000 A 
ATOM     12  C   UNL     1      47.465  10.082  11.967  0.00  0.00    +0.000 A 
ATOM     13  C   UNL     1      48.802  10.174  11.601  0.00  0.00    +0.000 A 
ATOM     14  C   UNL     1      49.576   9.020  11.507  0.00  0.00    +0.000 A 
ATOM     15  C   UNL     1      49.007   7.770  11.766  0.00  0.00    +0.000 A 
ENDBRANCH   8  10
ENDBRANCH   1   4
BRANCH   1  16
ATOM     16  N   UNL     1      43.731   3.498  10.604  0.00  0.00    +0.000 N 
ATOM     17  H   UNL     1      43.759   2.720  11.271  0.00  0.00    +0.000 HD
BRANCH  16  21
ATOM     18  C   UNL     1      46.350   2.432   7.669  0.00  0.00    +0.000 A 
ATOM     19  C   UNL     1      45.885   3.725   7.801  0.00  0.00    +0.000 A 
ATOM     20  N   UNL     1      44.941   4.066   8.715  0.00  0.00    +0.000 NA
ATOM     21  C   UNL     1      44.476   3.073   9.509  0.00  0.00    +0.000 A 
ATOM     22  C   UNL     1      44.897   1.766   9.310  0.00  0.00    +0.000 A 
ATOM     23  N   UNL     1      45.838   1.407   8.389  0.00  0.00    +0.000 NA
BRANCH  18  25
ATOM     24  N   UNL     1      48.338   1.850   6.109  0.00  0.00    +0.000 NA
ATOM     25  C   UNL     1      47.456   2.144   6.807  0.00  0.00    +0.000 C 
ENDBRANCH  18  25
ENDBRANCH  16  21
ENDBRANCH   1  16
TORSDOF 5
ENDMDL
MODEL 2
REMARK VINA RESULT:    -7.890      2.518      6.896
REMARK INTER + INTRA:         -10.947
REMARK INTER:                 -10.240
REMARK INTRA:                  -0.707
REMARK UNBOUND:                -0.751
REMARK  Name = 
REMARK  5 active torsions:
REMARK  status: ('A' for Active; 'I' for Inactive)
REMARK    1  A    between atoms: C_2  and  C_3
REMARK    2  A    between atoms: C_6  and  N_7
REMARK    3  A    between atoms: N_7  and  C_8
REMARK    4  A    between atoms: C_8  and  C_9
REMARK    5  A    between atoms: C_13  and  C_14
REMARK                            x       y       z     vdW  Elec       q    Type
REMARK                         _______ _______ _______ _____ _____    ______ ____
ROOT
ATOM      1  C   UNL     1      45.440   6.075  12.079  0.00  0.00    +0.000 C 
ATOM      2  C   UNL     1      45.314   7.429  11.380  0.00  0.00    +0.000 C 
ATOM      3  C   UNL     1      44.622   7.195  12.680  0.00  0.00    +0.000 C 
ENDROOT
BRANCH   1   4
ATOM      4  C   UNL     1      44.749   4.875  11.435  0.00  0.00    +0.000 A 
ATOM      5  C   UNL     1      43.780   4.127  12.101  0.00  0.00    +0.000 A 
ATOM      6  C   UNL     1      43.389   2.900  11.572  0.00  0.00    +0.000 A 
ATOM      7  C   UNL     1      43.978   2.442  10.398  0.00  0.00    +0.000 A 
ATOM      8  C   UNL     1      44.927   3.238   9.764  0.00  0.00    +0.000 A 
ATOM      9  N   UNL     1      45.284   4.442  10.264  0.00  0.00    +0.000 NA
BRANCH   8  10
ATOM     10  C   UNL     1      45.667   2.832   8.555  0.00  0.00    +0.000 A 
ATOM     11  C   UNL     1      46.016   3.779   7.575  0.00  0.00    +0.000 A 
ATOM     12  C   UNL     1      46.747   3.420   6.440  0.00  0.00    +0.000 A 
ATOM     13  C   UNL     1      47.150   2.102   6.264  0.00  0.00    +0.000 A 
ATOM     14  C   UNL     1      46.835   1.146   7.226  0.00  0.00    +0.000 A 
ATOM     15  C   UNL     1      46.103   1.508   8.361  0.00  0.00    +0.000 A 
ENDBRANCH   8  10
ENDBRANCH   1   4
BRANCH   1  16
ATOM     16  N   UNL     1      46.848   5.761  12.396  0.00  0.00    +0.000 N 
ATOM     17  H   UNL     1      47.257   5.127  11.702  0.00  0.00    +0.000 HD
BRANCH  16  21
ATOM     18  C   UNL     1      47.853   4.790  16.224  0.00  0.00    +0.000 A 
ATOM     19  C   UNL     1      48.383   5.893  15.586  0.00  0.00    +0.000 A 
ATOM     20  N   UNL     1      48.127   6.168  14.282  0.00  0.00    +0.000 NA
ATOM     21  C   UNL     1      47.310   5.309  13.628  0.00  0.00    +0.000 A 
ATOM     22  C   UNL     1      46.850   4.164  14.263  0.00  0.00    +0.000 A 
ATOM     23  N   UNL     1      47.108   3.870  15.570  0.00  0.00    +0.000 NA
BRANCH  18  25
ATOM     24  N   UNL     1      48.205   4.463  18.773  0.00  0.00    +0.000 NA
ATOM     25  C   UNL     1      48.016   4.622  17.637  0.00  0.00    +0.000 C 
ENDBRANCH  18  25
ENDBRANCH  16  21
ENDBRANCH   1  16
TORSDOF 5
ENDMDL
MODEL 3
REMARK VINA RESULT:    -7.696      2.633      7.066
REMARK INTER + INTRA:         -10.697
REMARK INTER:                 -10.094
REMARK INTRA:                  -0.602
REMARK UNBOUND:                -0.751
REMARK  Name = 
REMARK  5 active torsions:
REMARK  status: ('A' for Active; 'I' for Inactive)
REMARK    1  A    between atoms: C_2  and  C_3
REMARK    2  A    between atoms: C_6  and  N_7
REMARK    3  A    between atoms: N_7  and  C_8
REMARK    4  A    between atoms: C_8  and  C_9
REMARK    5  A    between atoms: C_13  and  C_14
REMARK                            x       y       z     vdW  Elec       q    Type
REMARK                         _______ _______ _______ _____ _____    ______ ____
ROOT
ATOM      1  C   UNL     1      45.556   6.064  12.141  0.00  0.00    +0.000 C 
ATOM      2  C   UNL     1      45.644   7.397  11.397  0.00  0.00    +0.000 C 
ATOM      3  C   UNL     1      44.789   7.278  12.613  0.00  0.00    +0.000 C 
ENDROOT
BRANCH   1   4
ATOM      4  C   UNL     1      44.829   4.912  11.452  0.00  0.00    +0.000 A 
ATOM      5  C   UNL     1      43.808   4.196  12.074  0.00  0.00    +0.000 A 
ATOM      6  C   UNL     1      43.375   3.000  11.508  0.00  0.00    +0.000 A 
ATOM      7  C   UNL     1      43.975   2.540  10.340  0.00  0.00    +0.000 A 
ATOM      8  C   UNL     1      44.976   3.303   9.749  0.00  0.00    +0.000 A 
ATOM      9  N   UNL     1      45.375   4.479  10.286  0.00  0.00    +0.000 NA
BRANCH   8  10
ATOM     10  C   UNL     1      45.731   2.889   8.552  0.00  0.00    +0.000 A 
ATOM     11  C   UNL     1      46.151   1.555   8.396  0.00  0.00    +0.000 A 
ATOM     12  C   UNL     1      46.837   1.135   7.253  0.00  0.00    +0.000 A 
ATOM     13  C   UNL     1      47.113   2.043   6.238  0.00  0.00    +0.000 A 
ATOM     14  C   UNL     1      46.692   3.366   6.358  0.00  0.00    +0.000 A 
ATOM     15  C   UNL     1      46.007   3.784   7.502  0.00  0.00    +0.000 A 
ENDBRANCH   8  10
ENDBRANCH   1   4
BRANCH   1  16
ATOM     16  N   UNL     1      46.881   5.630  12.629  0.00  0.00    +0.000 N 
ATOM     17  H   UNL     1      47.165   4.741  12.205  0.00  0.00    +0.000 HD
BRANCH  16  21
ATOM     18  C   UNL     1      48.274   4.937  16.396  0.00  0.00    +0.000 A 
ATOM     19  C   UNL     1      47.236   4.207  15.853  0.00  0.00    +0.000 A 
ATOM     20  N   UNL     1      46.705   4.495  14.638  0.00  0.00    +0.000 NA
ATOM     21  C   UNL     1      47.250   5.536  13.967  0.00  0.00    +0.000 A 
ATOM     22  C   UNL     1      48.240   6.307  14.561  0.00  0.00    +0.000 A 
ATOM     23  N   UNL     1      48.776   6.035  15.786  0.00  0.00    +0.000 NA
BRANCH  18  25
ATOM     24  N   UNL     1      49.377   4.167  18.614  0.00  0.00    +0.000 NA
ATOM     25  C   UNL     1      48.911   4.505  17.603  0.00  0.00    +0.000 C 
ENDBRANCH  18  25
ENDBRANCH  16  21
ENDBRANCH   1  16
TORSDOF 5
ENDMDL
MODEL 4
REMARK VINA RESULT:    -6.296      5.400      8.133
REMARK INTER + INTRA:          -8.888
REMARK INTER:                  -8.299
REMARK INTRA:                  -0.589
REMARK UNBOUND:                -0.751
REMARK  Name = 
REMARK  5 active torsions:
REMARK  status: ('A' for Active; 'I' for Inactive)
REMARK    1  A    between atoms: C_2  and  C_3
REMARK    2  A    between atoms: C_6  and  N_7
REMARK    3  A    between atoms: N_7  and  C_8
REMARK    4  A    between atoms: C_8  and  C_9
REMARK    5  A    between atoms: C_13  and  C_14
REMARK                            x       y       z     vdW  Elec       q    Type
REMARK                         _______ _______ _______ _____ _____    ______ ____
ROOT
ATOM      1  C   UNL     1      48.275   4.527  17.101  0.00  0.00    +0.000 C 
ATOM      2  C   UNL     1      47.173   4.814  18.120  0.00  0.00    +0.000 C 
ATOM      3  C   UNL     1      47.145   3.550  17.330  0.00  0.00    +0.000 C 
ENDROOT
BRANCH   1   4
ATOM      4  C   UNL     1      48.315   5.379  15.835  0.00  0.00    +0.000 A 
ATOM      5  C   UNL     1      48.908   6.639  15.802  0.00  0.00    +0.000 A 
ATOM      6  C   UNL     1      48.677   7.470  14.710  0.00  0.00    +0.000 A 
ATOM      7  C   UNL     1      47.852   7.030  13.679  0.00  0.00    +0.000 A 
ATOM      8  C   UNL     1      47.301   5.756  13.752  0.00  0.00    +0.000 A 
ATOM      9  N   UNL     1      47.550   4.940  14.802  0.00  0.00    +0.000 NA
BRANCH   8  10
ATOM     10  C   UNL     1      46.361   5.207  12.758  0.00  0.00    +0.000 A 
ATOM     11  C   UNL     1      46.071   5.914  11.577  0.00  0.00    +0.000 A 
ATOM     12  C   UNL     1      45.210   5.395  10.607  0.00  0.00    +0.000 A 
ATOM     13  C   UNL     1      44.622   4.150  10.798  0.00  0.00    +0.000 A 
ATOM     14  C   UNL     1      44.904   3.419  11.949  0.00  0.00    +0.000 A 
ATOM     15  C   UNL     1      45.766   3.942  12.919  0.00  0.00    +0.000 A 
ENDBRANCH   8  10
ENDBRANCH   1   4
BRANCH   1  16
ATOM     16  N   UNL     1      49.605   4.481  17.743  0.00  0.00    +0.000 N 
ATOM     17  H   UNL     1      50.111   5.364  17.622  0.00  0.00    +0.000 HD
BRANCH  16  21
ATOM     18  C   UNL     1      52.337   1.457  17.712  0.00  0.00    +0.000 A 
ATOM     19  C   UNL     1      52.669   2.740  18.098  0.00  0.00    +0.000 A 
ATOM     20  N   UNL     1      51.790   3.770  18.021  0.00  0.00    +0.000 NA
ATOM     21  C   UNL     1      50.553   3.482  17.551  0.00  0.00    +0.000 A 
ATOM     22  C   UNL     1      50.262   2.204  17.094  0.00  0.00    +0.000 A 
ATOM     23  N   UNL     1      51.139   1.161  17.158  0.00  0.00    +0.000 NA
BRANCH  18  25
ATOM     24  N   UNL     1      54.002  -0.474  18.186  0.00  0.00    +0.000 NA
ATOM     25  C   UNL     1      53.235   0.370  17.959  0.00  0.00    +0.000 C 
ENDBRANCH  18  25
ENDBRANCH  16  21
ENDBRANCH   1  16
TORSDOF 5
ENDMDL
MODEL 5
REMARK VINA RESULT:    -6.287      2.161      6.536
REMARK INTER + INTRA:          -8.875
REMARK INTER:                  -8.232
REMARK INTRA:                  -0.643
REMARK UNBOUND:                -0.751
REMARK  Name = 
REMARK  5 active torsions:
REMARK  status: ('A' for Active; 'I' for Inactive)
REMARK    1  A    between atoms: C_2  and  C_3
REMARK    2  A    between atoms: C_6  and  N_7
REMARK    3  A    between atoms: N_7  and  C_8
REMARK    4  A    between atoms: C_8  and  C_9
REMARK    5  A    between atoms: C_13  and  C_14
REMARK                            x       y       z     vdW  Elec       q    Type
REMARK                         _______ _______ _______ _____ _____    ______ ____
ROOT
ATOM      1  C   UNL     1      46.400   5.176  13.574  0.00  0.00    +0.000 C 
ATOM      2  C   UNL     1      46.176   4.393  14.867  0.00  0.00    +0.000 C 
ATOM      3  C   UNL     1      47.236   3.964  13.911  0.00  0.00    +0.000 C 
ENDROOT
BRANCH   1   4
ATOM      4  C   UNL     1      45.321   5.094  12.496  0.00  0.00    +0.000 A 
ATOM      5  C   UNL     1      43.974   5.319  12.770  0.00  0.00    +0.000 A 
ATOM      6  C   UNL     1      43.020   4.968  11.819  0.00  0.00    +0.000 A 
ATOM      7  C   UNL     1      43.429   4.392  10.620  0.00  0.00    +0.000 A 
ATOM      8  C   UNL     1      44.788   4.207  10.389  0.00  0.00    +0.000 A 
ATOM      9  N   UNL     1      45.714   4.575  11.303  0.00  0.00    +0.000 NA
BRANCH   8  10
ATOM     10  C   UNL     1      45.338   3.547   9.191  0.00  0.00    +0.000 A 
ATOM     11  C   UNL     1      45.811   4.308   8.106  0.00  0.00    +0.000 A 
ATOM     12  C   UNL     1      46.367   3.703   6.976  0.00  0.00    +0.000 A 
ATOM     13  C   UNL     1      46.466   2.318   6.910  0.00  0.00    +0.000 A 
ATOM     14  C   UNL     1      46.022   1.540   7.977  0.00  0.00    +0.000 A 
ATOM     15  C   UNL     1      45.465   2.148   9.106  0.00  0.00    +0.000 A 
ENDBRANCH   8  10
ENDBRANCH   1   4
BRANCH   1  16
ATOM     16  N   UNL     1      46.758   6.582  13.850  0.00  0.00    +0.000 N 
ATOM     17  H   UNL     1      45.953   7.205  13.729  0.00  0.00    +0.000 HD
BRANCH  16  21
ATOM     18  C   UNL     1      50.168   8.084  12.199  0.00  0.00    +0.000 A 
ATOM     19  C   UNL     1      50.048   7.862  13.556  0.00  0.00    +0.000 A 
ATOM     20  N   UNL     1      48.885   7.452  14.123  0.00  0.00    +0.000 NA
ATOM     21  C   UNL     1      47.836   7.259  13.289  0.00  0.00    +0.000 A 
ATOM     22  C   UNL     1      47.953   7.563  11.940  0.00  0.00    +0.000 A 
ATOM     23  N   UNL     1      49.113   7.984  11.358  0.00  0.00    +0.000 NA
BRANCH  18  25
ATOM     24  N   UNL     1      52.488   8.524  11.126  0.00  0.00    +0.000 NA
ATOM     25  C   UNL     1      51.448   8.358  11.620  0.00  0.00    +0.000 C 
ENDBRANCH  18  25
ENDBRANCH  16  21
ENDBRANCH   1  16
TORSDOF 5
ENDMDL
MODEL 6
REMARK VINA RESULT:    -6.169      3.077      7.544
REMARK INTER + INTRA:          -8.724
REMARK INTER:                  -7.964
REMARK INTRA:                  -0.759
REMARK UNBOUND:                -0.751
REMARK  Name = 
REMARK  5 active torsions:
REMARK  status: ('A' for Active; 'I' for Inactive)
REMARK    1  A    between atoms: C_2  and  C_3
REMARK    2  A    between atoms: C_6  and  N_7
REMARK    3  A    between atoms: N_7  and  C_8
REMARK    4  A    between atoms: C_8  and  C_9
REMARK    5  A    between atoms: C_13  and  C_14
REMARK                            x       y       z     vdW  Elec       q    Type
REMARK                         _______ _______ _______ _____ _____    ______ ____
ROOT
ATOM      1  C   UNL     1      48.541   7.727  12.610  0.00  0.00    +0.000 C 
ATOM      2  C   UNL     1      49.694   8.077  11.670  0.00  0.00    +0.000 C 
ATOM      3  C   UNL     1      49.302   9.025  12.753  0.00  0.00    +0.000 C 
ENDROOT
BRANCH   1   4
ATOM      4  C   UNL     1      47.128   7.720  12.032  0.00  0.00    +0.000 A 
ATOM      5  C   UNL     1      46.179   8.683  12.369  0.00  0.00    +0.000 A 
ATOM      6  C   UNL     1      44.847   8.473  12.026  0.00  0.00    +0.000 A 
ATOM      7  C   UNL     1      44.488   7.303  11.362  0.00  0.00    +0.000 A 
ATOM      8  C   UNL     1      45.478   6.384  11.032  0.00  0.00    +0.000 A 
ATOM      9  N   UNL     1      46.776   6.605  11.341  0.00  0.00    +0.000 NA
BRANCH   8  10
ATOM     10  C   UNL     1      45.213   5.083  10.391  0.00  0.00    +0.000 A 
ATOM     11  C   UNL     1      44.493   4.083  11.070  0.00  0.00    +0.000 A 
ATOM     12  C   UNL     1      44.201   2.856  10.467  0.00  0.00    +0.000 A 
ATOM     13  C   UNL     1      44.623   2.606   9.166  0.00  0.00    +0.000 A 
ATOM     14  C   UNL     1      45.322   3.585   8.464  0.00  0.00    +0.000 A 
ATOM     15  C   UNL     1      45.612   4.811   9.069  0.00  0.00    +0.000 A 
ENDBRANCH   8  10
ENDBRANCH   1   4
BRANCH   1  16
ATOM     16  N   UNL     1      48.809   6.477  13.351  0.00  0.00    +0.000 N 
ATOM     17  H   UNL     1      48.410   5.663  12.872  0.00  0.00    +0.000 HD
BRANCH  16  21
ATOM     18  C   UNL     1      48.426   5.499  17.288  0.00  0.00    +0.000 A 
ATOM     19  C   UNL     1      47.809   4.772  16.290  0.00  0.00    +0.000 A 
ATOM     20  N   UNL     1      47.854   5.148  14.987  0.00  0.00    +0.000 NA
ATOM     21  C   UNL     1      48.548   6.275  14.702  0.00  0.00    +0.000 A 
ATOM     22  C   UNL     1      49.095   7.034  15.726  0.00  0.00    +0.000 A 
ATOM     23  N   UNL     1      49.049   6.674  17.042  0.00  0.00    +0.000 NA
BRANCH  18  25
ATOM     24  N   UNL     1      48.515   4.620  19.727  0.00  0.00    +0.000 NA
ATOM     25  C   UNL     1      48.491   4.986  18.623  0.00  0.00    +0.000 C 
ENDBRANCH  18  25
ENDBRANCH  16  21
ENDBRANCH   1  16
TORSDOF 5
ENDMDL
MODEL 7
REMARK VINA RESULT:    -5.896      2.996      6.150
REMARK INTER + INTRA:          -8.370
REMARK INTER:                  -7.672
REMARK INTRA:                  -0.698
REMARK UNBOUND:                -0.751
REMARK  Name = 
REMARK  5 active torsions:
REMARK  status: ('A' for Active; 'I' for Inactive)
REMARK    1  A    between atoms: C_2  and  C_3
REMARK    2  A    between atoms: C_6  and  N_7
REMARK    3  A    between atoms: N_7  and  C_8
REMARK    4  A    between atoms: C_8  and  C_9
REMARK    5  A    between atoms: C_13  and  C_14
REMARK                            x       y       z     vdW  Elec       q    Type
REMARK                         _______ _______ _______ _____ _____    ______ ____
ROOT
ATOM      1  C   UNL     1      48.205   7.685  12.617  0.00  0.00    +0.000 C 
ATOM      2  C   UNL     1      49.262   8.505  11.879  0.00  0.00    +0.000 C 
ATOM      3  C   UNL     1      49.339   7.016  11.875  0.00  0.00    +0.000 C 
ENDROOT
BRANCH   1   4
ATOM      4  C   UNL     1      48.205   7.733  14.144  0.00  0.00    +0.000 A 
ATOM      5  C   UNL     1      48.266   8.932  14.852  0.00  0.00    +0.000 A 
ATOM      6  C   UNL     1      48.533   8.900  16.217  0.00  0.00    +0.000 A 
ATOM      7  C   UNL     1      48.742   7.676  16.845  0.00  0.00    +0.000 A 
ATOM      8  C   UNL     1      48.650   6.508  16.095  0.00  0.00    +0.000 A 
ATOM      9  N   UNL     1      48.362   6.540  14.774  0.00  0.00    +0.000 NA
BRANCH   8  10
ATOM     10  C   UNL     1      48.917   5.162  16.632  0.00  0.00    +0.000 A 
ATOM     11  C   UNL     1      50.157   4.858  17.224  0.00  0.00    +0.000 A 
ATOM     12  C   UNL     1      50.417   3.598  17.770  0.00  0.00    +0.000 A 
ATOM     13  C   UNL     1      49.437   2.614  17.737  0.00  0.00    +0.000 A 
ATOM     14  C   UNL     1      48.195   2.891  17.172  0.00  0.00    +0.000 A 
ATOM     15  C   UNL     1      47.937   4.152  16.627  0.00  0.00    +0.000 A 
ENDBRANCH   8  10
ENDBRANCH   1   4
BRANCH   1  16
ATOM     16  N   UNL     1      46.852   7.943  12.085  0.00  0.00    +0.000 N 
ATOM     17  H   UNL     1      46.400   8.724  12.572  0.00  0.00    +0.000 HD
BRANCH  16  21
ATOM     18  C   UNL     1      44.320   4.768  11.745  0.00  0.00    +0.000 A 
ATOM     19  C   UNL     1      45.195   5.117  10.737  0.00  0.00    +0.000 A 
ATOM     20  N   UNL     1      45.972   6.228  10.804  0.00  0.00    +0.000 NA
ATOM     21  C   UNL     1      45.858   6.983  11.922  0.00  0.00    +0.000 A 
ATOM     22  C   UNL     1      44.918   6.660  12.889  0.00  0.00    +0.000 A 
ATOM     23  N   UNL     1      44.123   5.552  12.830  0.00  0.00    +0.000 NA
BRANCH  18  25
ATOM     24  N   UNL     1      43.035   2.516  11.661  0.00  0.00    +0.000 NA
ATOM     25  C   UNL     1      43.638   3.509  11.711  0.00  0.00    +0.000 C 
ENDBRANCH  18  25
ENDBRANCH  16  21
ENDBRANCH   1  16
TORSDOF 5
ENDMDL
MODEL 8
REMARK VINA RESULT:    -5.778      2.982      6.181
REMARK INTER + INTRA:          -8.218
REMARK INTER:                  -7.843
REMARK INTRA:                  -0.375
REMARK UNBOUND:                -0.751
REMARK  Name = 
REMARK  5 active torsions:
REMARK  status: ('A' for Active; 'I' for Inactive)
REMARK    1  A    between atoms: C_2  and  C_3
REMARK    2  A    between atoms: C_6  and  N_7
REMARK    3  A    between atoms: N_7  and  C_8
REMARK    4  A    between atoms: C_8  and  C_9
REMARK    5  A    between atoms: C_13  and  C_14
REMARK                            x       y       z     vdW  Elec       q    Type
REMARK                         _______ _______ _______ _____ _____    ______ ____
ROOT
ATOM      1  C   UNL     1      48.602   7.751  12.656  0.00  0.00    +0.000 C 
ATOM      2  C   UNL     1      48.851   8.996  11.804  0.00  0.00    +0.000 C 
ATOM      3  C   UNL     1      49.397   7.677  11.373  0.00  0.00    +0.000 C 
ENDROOT
BRANCH   1   4
ATOM      4  C   UNL     1      49.307   7.661  14.007  0.00  0.00    +0.000 A 
ATOM      5  C   UNL     1      50.474   8.369  14.289  0.00  0.00    +0.000 A 
ATOM      6  C   UNL     1      51.209   8.042  15.424  0.00  0.00    +0.000 A 
ATOM      7  C   UNL     1      50.770   7.011  16.250  0.00  0.00    +0.000 A 
ATOM      8  C   UNL     1      49.588   6.350  15.933  0.00  0.00    +0.000 A 
ATOM      9  N   UNL     1      48.861   6.689  14.845  0.00  0.00    +0.000 NA
BRANCH   8  10
ATOM     10  C   UNL     1      49.059   5.201  16.690  0.00  0.00    +0.000 A 
ATOM     11  C   UNL     1      47.714   4.808  16.552  0.00  0.00    +0.000 A 
ATOM     12  C   UNL     1      47.202   3.701  17.235  0.00  0.00    +0.000 A 
ATOM     13  C   UNL     1      48.030   2.959  18.069  0.00  0.00    +0.000 A 
ATOM     14  C   UNL     1      49.369   3.314  18.211  0.00  0.00    +0.000 A 
ATOM     15  C   UNL     1      49.878   4.422  17.528  0.00  0.00    +0.000 A 
ENDBRANCH   8  10
ENDBRANCH   1   4
BRANCH   1  16
ATOM     16  N   UNL     1      47.158   7.476  12.799  0.00  0.00    +0.000 N 
ATOM     17  H   UNL     1      46.839   7.636  13.760  0.00  0.00    +0.000 HD
BRANCH  16  21
ATOM     18  C   UNL     1      44.850   4.254  11.847  0.00  0.00    +0.000 A 
ATOM     19  C   UNL     1      45.466   4.376  13.076  0.00  0.00    +0.000 A 
ATOM     20  N   UNL     1      46.311   5.397  13.365  0.00  0.00    +0.000 NA
ATOM     21  C   UNL     1      46.520   6.310  12.387  0.00  0.00    +0.000 A 
ATOM     22  C   UNL     1      45.955   6.129  11.133  0.00  0.00    +0.000 A 
ATOM     23  N   UNL     1      45.111   5.102  10.826  0.00  0.00    +0.000 NA
BRANCH  18  25
ATOM     24  N   UNL     1      43.039   2.427  11.520  0.00  0.00    +0.000 NA
ATOM     25  C   UNL     1      43.846   3.257  11.635  0.00  0.00    +0.000 C 
ENDBRANCH  18  25
ENDBRANCH  16  21
ENDBRANCH   1  16
TORSDOF 5
ENDMDL
MODEL 9
REMARK VINA RESULT:    -5.273      3.428      8.073
REMARK INTER + INTRA:          -7.565
REMARK INTER:                  -6.683
REMARK INTRA:                  -0.883
REMARK UNBOUND:                -0.751
REMARK  Name = 
REMARK  5 active torsions:
REMARK  status: ('A' for Active; 'I' for Inactive)
REMARK    1  A    between atoms: C_2  and  C_3
REMARK    2  A    between atoms: C_6  and  N_7
REMARK    3  A    between atoms: N_7  and  C_8
REMARK    4  A    between atoms: C_8  and  C_9
REMARK    5  A    between atoms: C_13  and  C_14
REMARK                            x       y       z     vdW  Elec       q    Type
REMARK                         _______ _______ _______ _____ _____    ______ ____
ROOT
ATOM      1  C   UNL     1      49.919   8.291  12.288  0.00  0.00    +0.000 C 
ATOM      2  C   UNL     1      50.814   8.002  11.083  0.00  0.00    +0.000 C 
ATOM      3  C   UNL     1      50.850   9.344  11.733  0.00  0.00    +0.000 C 
ENDROOT
BRANCH   1   4
ATOM      4  C   UNL     1      48.414   8.389  12.049  0.00  0.00    +0.000 A 
ATOM      5  C   UNL     1      47.693   9.553  12.305  0.00  0.00    +0.000 A 
ATOM      6  C   UNL     1      46.302   9.499  12.325  0.00  0.00    +0.000 A 
ATOM      7  C   UNL     1      45.662   8.283  12.100  0.00  0.00    +0.000 A 
ATOM      8  C   UNL     1      46.429   7.156  11.831  0.00  0.00    +0.000 A 
ATOM      9  N   UNL     1      47.780   7.217  11.783  0.00  0.00    +0.000 NA
BRANCH   8  10
ATOM     10  C   UNL     1      45.871   5.804  11.644  0.00  0.00    +0.000 A 
ATOM     11  C   UNL     1      45.347   5.410  10.399  0.00  0.00    +0.000 A 
ATOM     12  C   UNL     1      44.844   4.123  10.192  0.00  0.00    +0.000 A 
ATOM     13  C   UNL     1      44.860   3.198  11.229  0.00  0.00    +0.000 A 
ATOM     14  C   UNL     1      45.389   3.555  12.467  0.00  0.00    +0.000 A 
ATOM     15  C   UNL     1      45.891   4.844  12.672  0.00  0.00    +0.000 A 
ENDBRANCH   8  10
ENDBRANCH   1   4
BRANCH   1  16
ATOM     16  N   UNL     1      50.214   7.376  13.410  0.00  0.00    +0.000 N 
ATOM     17  H   UNL     1      49.933   6.414  13.193  0.00  0.00    +0.000 HD
BRANCH  16  21
ATOM     18  C   UNL     1      48.680   8.254  17.082  0.00  0.00    +0.000 A 
ATOM     19  C   UNL     1      49.443   9.159  16.372  0.00  0.00    +0.000 A 
ATOM     20  N   UNL     1      50.035   8.840  15.193  0.00  0.00    +0.000 NA
ATOM     21  C   UNL     1      49.835   7.583  14.732  0.00  0.00    +0.000 A 
ATOM     22  C   UNL     1      49.132   6.663  15.497  0.00  0.00    +0.000 A 
ATOM     23  N   UNL     1      48.539   6.967  16.688  0.00  0.00    +0.000 NA
BRANCH  18  25
ATOM     24  N   UNL     1      47.397   9.023  19.201  0.00  0.00    +0.000 NA
ATOM     25  C   UNL     1      47.943   8.673  18.235  0.00  0.00    +0.000 C 
ENDBRANCH  18  25
ENDBRANCH  16  21
ENDBRANCH   1  16
TORSDOF 5
ENDMDL
