MODEL 1
REMARK VINA RESULT:    -7.317      0.000      0.000
REMARK INTER + INTRA:         -11.018
REMARK INTER:                  -9.884
REMARK INTRA:                  -1.134
REMARK UNBOUND:                -1.134
REMARK  Name = 
REMARK  7 active torsions:
REMARK  status: ('A' for Active; 'I' for Inactive)
REMARK    1  A    between atoms: C_1  and  C_2
REMARK    2  A    between atoms: C_2  and  N_3
REMARK    3  A    between atoms: C_2  and  C_16
REMARK    4  A    between atoms: C_4  and  C_6
REMARK    5  A    between atoms: C_19  and  C_20
REMARK    6  A    between atoms: C_20  and  N_21
REMARK    7  A    between atoms: C_22  and  C_24
REMARK                            x       y       z     vdW  Elec       q    Type
REMARK                         _______ _______ _______ _____ _____    ______ ____
ROOT
ATOM      1  C   UNL     1      46.709   9.097  13.129  0.00  0.00    +0.000 C 
ATOM      2  C   UNL     1      47.398   7.728  13.159  0.00  0.00    +0.000 C 
ENDROOT
BRANCH   2   3
ATOM      3  C   UNL     1      46.573   6.700  12.394  0.00  0.00    +0.000 A 
ATOM      4  C   UNL     1      45.714   5.823  13.068  0.00  0.00    +0.000 A 
ATOM      5  C   UNL     1      44.919   4.916  12.356  0.00  0.00    +0.000 A 
ATOM      6  C   UNL     1      44.973   4.861  10.955  0.00  0.00    +0.000 A 
ATOM      7  C   UNL     1      45.830   5.735  10.281  0.00  0.00    +0.000 A 
ATOM      8  C   UNL     1      46.626   6.639  10.990  0.00  0.00    +0.000 A 
BRANCH   6   9
ATOM      9  C   UNL     1      44.098   3.906  10.187  0.00  0.00    +0.000 C 
BRANCH   9  10
ATOM     10  N   UNL     1      44.569   3.732   8.831  0.00  0.00    +0.000 N 
ATOM     11  C   UNL     1      45.350   2.646   8.492  0.00  0.00    +0.000 C 
ATOM     12  O   UNL     1      45.658   1.776   9.301  0.00  0.00    +0.000 OA
ATOM     13  H   UNL     1      44.222   4.360   8.119  0.00  0.00    +0.000 HD
BRANCH  11  14
ATOM     14  C   UNL     1      45.769   2.612   7.028  0.00  0.00    +0.000 C 
ATOM     15  C   UNL     1      46.601   1.397   6.673  0.00  0.00    +0.000 C 
ATOM     16  C   UNL     1      48.003   1.838   7.029  0.00  0.00    +0.000 C 
ATOM     17  O   UNL     1      48.059   3.249   6.780  0.00  0.00    +0.000 OA
ATOM     18  C   UNL     1      46.716   3.753   6.703  0.00  0.00    +0.000 C 
ENDBRANCH  11  14
ENDBRANCH   9  10
ENDBRANCH   6   9
ENDBRANCH   2   3
BRANCH   2  19
ATOM     19  N   UNL     1      47.618   7.232  14.510  0.00  0.00    +0.000 N 
ATOM     20  C   UNL     1      48.845   6.859  14.995  0.00  0.00    +0.000 C 
ATOM     21  O   UNL     1      49.878   6.957  14.340  0.00  0.00    +0.000 OA
ATOM     22  H   UNL     1      46.799   6.845  14.970  0.00  0.00    +0.000 HD
BRANCH  20  23
ATOM     23  C   UNL     1      48.871   6.398  16.387  0.00  0.00    +0.000 A 
ATOM     24  C   UNL     1      49.306   7.257  17.387  0.00  0.00    +0.000 A 
ATOM     25  S   UNL     1      49.244   6.576  18.948  0.00  0.00    +0.000 S 
ATOM     26  C   UNL     1      48.681   5.092  18.338  0.00  0.00    +0.000 A 
ATOM     27  N   UNL     1      48.452   4.037  19.165  0.00  0.00    +0.000 NA
ATOM     28  C   UNL     1      48.063   2.963  18.563  0.00  0.00    +0.000 A 
ATOM     29  N   UNL     1      47.870   2.852  17.211  0.00  0.00    +0.000 N 
ATOM     30  C   UNL     1      48.040   3.904  16.342  0.00  0.00    +0.000 A 
ATOM     31  O   UNL     1      47.785   3.795  15.147  0.00  0.00    +0.000 OA
ATOM     32  C   UNL     1      48.511   5.125  16.964  0.00  0.00    +0.000 A 
ATOM     33  H   UNL     1      47.547   1.985  16.806  0.00  0.00    +0.000 HD
ENDBRANCH  20  23
ENDBRANCH   2  19
TORSDOF 6
ENDMDL
MODEL 2
REMARK VINA RESULT:    -7.231      3.709      5.340
REMARK INTER + INTRA:         -10.902
REMARK INTER:                  -9.451
REMARK INTRA:                  -1.451
REMARK UNBOUND:                -1.134
REMARK  Name = 
REMARK  7 active torsions:
REMARK  status: ('A' for Active; 'I' for Inactive)
REMARK    1  A    between atoms: C_1  and  C_2
REMARK    2  A    between atoms: C_2  and  N_3
REMARK    3  A    between atoms: C_2  and  C_16
REMARK    4  A    between atoms: C_4  and  C_6
REMARK    5  A    between atoms: C_19  and  C_20
REMARK    6  A    between atoms: C_20  and  N_21
REMARK    7  A    between atoms: C_22  and  C_24
REMARK                            x       y       z     vdW  Elec       q    Type
REMARK                         _______ _______ _______ _____ _____    ______ ____
ROOT
ATOM      1  C   UNL     1      47.510   2.929  17.688  0.00  0.00    +0.000 C 
ATOM      2  C   UNL     1      48.359   4.174  17.406  0.00  0.00    +0.000 C 
ENDROOT
BRANCH   2   3
ATOM      3  C   UNL     1      47.976   4.785  16.064  0.00  0.00    +0.000 A 
ATOM      4  C   UNL     1      48.525   6.005  15.648  0.00  0.00    +0.000 A 
ATOM      5  C   UNL     1      48.210   6.537  14.391  0.00  0.00    +0.000 A 
ATOM      6  C   UNL     1      47.334   5.863  13.527  0.00  0.00    +0.000 A 
ATOM      7  C   UNL     1      46.786   4.646  13.940  0.00  0.00    +0.000 A 
ATOM      8  C   UNL     1      47.096   4.115  15.195  0.00  0.00    +0.000 A 
BRANCH   6   9
ATOM      9  C   UNL     1      47.017   6.419  12.164  0.00  0.00    +0.000 C 
BRANCH   9  10
ATOM     10  N   UNL     1      45.941   5.689  11.532  0.00  0.00    +0.000 N 
ATOM     11  C   UNL     1      44.712   6.282  11.332  0.00  0.00    +0.000 C 
ATOM     12  O   UNL     1      44.480   7.444  11.649  0.00  0.00    +0.000 OA
ATOM     13  H   UNL     1      46.144   4.778  11.143  0.00  0.00    +0.000 HD
BRANCH  11  14
ATOM     14  C   UNL     1      43.685   5.378  10.661  0.00  0.00    +0.000 C 
ATOM     15  C   UNL     1      42.678   4.796  11.631  0.00  0.00    +0.000 C 
ATOM     16  C   UNL     1      43.383   3.558  12.141  0.00  0.00    +0.000 C 
ATOM     17  O   UNL     1      44.187   3.075  11.056  0.00  0.00    +0.000 OA
ATOM     18  C   UNL     1      44.341   4.131  10.095  0.00  0.00    +0.000 C 
ENDBRANCH  11  14
ENDBRANCH   9  10
ENDBRANCH   6   9
ENDBRANCH   2   3
BRANCH   2  19
ATOM     19  N   UNL     1      49.788   3.897  17.399  0.00  0.00    +0.000 N 
ATOM     20  C   UNL     1      50.623   4.173  18.450  0.00  0.00    +0.000 C 
ATOM     21  O   UNL     1      50.225   4.638  19.513  0.00  0.00    +0.000 OA
ATOM     22  H   UNL     1      50.210   3.814  16.479  0.00  0.00    +0.000 HD
BRANCH  20  23
ATOM     23  C   UNL     1      52.032   3.809  18.262  0.00  0.00    +0.000 A 
ATOM     24  C   UNL     1      53.021   4.761  18.471  0.00  0.00    +0.000 A 
ATOM     25  S   UNL     1      54.602   4.166  18.241  0.00  0.00    +0.000 S 
ATOM     26  C   UNL     1      54.018   2.629  17.806  0.00  0.00    +0.000 A 
ATOM     27  N   UNL     1      54.872   1.633  17.446  0.00  0.00    +0.000 NA
ATOM     28  C   UNL     1      54.291   0.532  17.105  0.00  0.00    +0.000 A 
ATOM     29  N   UNL     1      52.935   0.331  17.104  0.00  0.00    +0.000 N 
ATOM     30  C   UNL     1      52.037   1.291  17.506  0.00  0.00    +0.000 A 
ATOM     31  O   UNL     1      50.835   1.057  17.568  0.00  0.00    +0.000 OA
ATOM     32  C   UNL     1      52.637   2.561  17.866  0.00  0.00    +0.000 A 
ATOM     33  H   UNL     1      52.547  -0.563  16.842  0.00  0.00    +0.000 HD
ENDBRANCH  20  23
ENDBRANCH   2  19
TORSDOF 6
ENDMDL
MODEL 3
REMARK VINA RESULT:    -7.038      2.208      3.167
REMARK INTER + INTRA:         -10.641
REMARK INTER:                  -9.220
REMARK INTRA:                  -1.421
REMARK UNBOUND:                -1.134
REMARK  Name = 
REMARK  7 active torsions:
REMARK  status: ('A' for Active; 'I' for Inactive)
REMARK    1  A    between atoms: C_1  and  C_2
REMARK    2  A    between atoms: C_2  and  N_3
REMARK    3  A    between atoms: C_2  and  C_16
REMARK    4  A    between atoms: C_4  and  C_6
REMARK    5  A    between atoms: C_19  and  C_20
REMARK    6  A    between atoms: C_20  and  N_21
REMARK    7  A    between atoms: C_22  and  C_24
REMARK                            x       y       z     vdW  Elec       q    Type
REMARK                         _______ _______ _______ _____ _____    ______ ____
ROOT
ATOM      1  C   UNL     1      49.299   7.875  13.341  0.00  0.00    +0.000 C 
ATOM      2  C   UNL     1      48.640   6.644  13.975  0.00  0.00    +0.000 C 
ENDROOT
BRANCH   2   3
ATOM      3  C   UNL     1      47.388   6.252  13.199  0.00  0.00    +0.000 A 
ATOM      4  C   UNL     1      46.463   5.349  13.737  0.00  0.00    +0.000 A 
ATOM      5  C   UNL     1      45.289   5.032  13.043  0.00  0.00    +0.000 A 
ATOM      6  C   UNL     1      45.019   5.607  11.792  0.00  0.00    +0.000 A 
ATOM      7  C   UNL     1      45.941   6.509  11.253  0.00  0.00    +0.000 A 
ATOM      8  C   UNL     1      47.114   6.824  11.944  0.00  0.00    +0.000 A 
BRANCH   6   9
ATOM      9  C   UNL     1      43.743   5.290  11.057  0.00  0.00    +0.000 C 
BRANCH   9  10
ATOM     10  N   UNL     1      44.002   4.537   9.849  0.00  0.00    +0.000 N 
ATOM     11  C   UNL     1      44.191   3.172   9.900  0.00  0.00    +0.000 C 
ATOM     12  O   UNL     1      44.127   2.535  10.946  0.00  0.00    +0.000 OA
ATOM     13  H   UNL     1      43.929   5.016   8.962  0.00  0.00    +0.000 HD
BRANCH  11  14
ATOM     14  C   UNL     1      44.459   2.529   8.545  0.00  0.00    +0.000 C 
ATOM     15  C   UNL     1      45.821   1.872   8.455  0.00  0.00    +0.000 C 
ATOM     16  C   UNL     1      46.719   3.020   8.049  0.00  0.00    +0.000 C 
ATOM     17  O   UNL     1      45.922   3.887   7.230  0.00  0.00    +0.000 OA
ATOM     18  C   UNL     1      44.537   3.577   7.449  0.00  0.00    +0.000 C 
ENDBRANCH  11  14
ENDBRANCH   9  10
ENDBRANCH   6   9
ENDBRANCH   2   3
BRANCH   2  19
ATOM     19  N   UNL     1      48.275   6.849  15.370  0.00  0.00    +0.000 N 
ATOM     20  C   UNL     1      49.043   6.436  16.427  0.00  0.00    +0.000 C 
ATOM     21  O   UNL     1      50.135   5.895  16.286  0.00  0.00    +0.000 OA
ATOM     22  H   UNL     1      47.285   6.996  15.543  0.00  0.00    +0.000 HD
BRANCH  20  23
ATOM     23  C   UNL     1      48.517   6.746  17.761  0.00  0.00    +0.000 A 
ATOM     24  C   UNL     1      48.335   5.723  18.681  0.00  0.00    +0.000 A 
ATOM     25  S   UNL     1      47.748   6.257  20.190  0.00  0.00    +0.000 S 
ATOM     26  C   UNL     1      47.670   7.868  19.649  0.00  0.00    +0.000 A 
ATOM     27  N   UNL     1      47.205   8.856  20.460  0.00  0.00    +0.000 NA
ATOM     28  C   UNL     1      47.167  10.023  19.910  0.00  0.00    +0.000 A 
ATOM     29  N   UNL     1      47.562  10.294  18.626  0.00  0.00    +0.000 N 
ATOM     30  C   UNL     1      48.084   9.339  17.787  0.00  0.00    +0.000 A 
ATOM     31  O   UNL     1      48.501   9.626  16.669  0.00  0.00    +0.000 OA
ATOM     32  C   UNL     1      48.116   8.002  18.346  0.00  0.00    +0.000 A 
ATOM     33  H   UNL     1      47.522  11.235  18.262  0.00  0.00    +0.000 HD
ENDBRANCH  20  23
ENDBRANCH   2  19
TORSDOF 6
ENDMDL
MODEL 4
REMARK VINA RESULT:    -6.973      3.458      7.934
REMARK INTER + INTRA:         -10.553
REMARK INTER:                  -9.196
REMARK INTRA:                  -1.357
REMARK UNBOUND:                -1.134
REMARK  Name = 
REMARK  7 active torsions:
REMARK  status: ('A' for Active; 'I' for Inactive)
REMARK    1  A    between atoms: C_1  and  C_2
REMARK    2  A    between atoms: C_2  and  N_3
REMARK    3  A    between atoms: C_2  and  C_16
REMARK    4  A    between atoms: C_4  and  C_6
REMARK    5  A    between atoms: C_19  and  C_20
REMARK    6  A    between atoms: C_20  and  N_21
REMARK    7  A    between atoms: C_22  and  C_24
REMARK                            x       y       z     vdW  Elec       q    Type
REMARK                         _______ _______ _______ _____ _____    ______ ____
ROOT
ATOM      1  C   UNL     1      49.286   8.622  11.393  0.00  0.00    +0.000 C 
ATOM      2  C   UNL     1      48.015   8.207  12.144  0.00  0.00    +0.000 C 
ENDROOT
BRANCH   2   3
ATOM      3  C   UNL     1      48.337   7.892  13.600  0.00  0.00    +0.000 A 
ATOM      4  C   UNL     1      48.226   6.585  14.092  0.00  0.00    +0.000 A 
ATOM      5  C   UNL     1      48.572   6.291  15.417  0.00  0.00    +0.000 A 
ATOM      6  C   UNL     1      49.029   7.299  16.279  0.00  0.00    +0.000 A 
ATOM      7  C   UNL     1      49.141   8.604  15.789  0.00  0.00    +0.000 A 
ATOM      8  C   UNL     1      48.793   8.899  14.468  0.00  0.00    +0.000 A 
BRANCH   6   9
ATOM      9  C   UNL     1      49.429   6.979  17.695  0.00  0.00    +0.000 C 
BRANCH   9  10
ATOM     10  N   UNL     1      49.197   5.587  18.009  0.00  0.00    +0.000 N 
ATOM     11  C   UNL     1      50.178   4.644  17.784  0.00  0.00    +0.000 C 
ATOM     12  O   UNL     1      51.284   4.934  17.340  0.00  0.00    +0.000 OA
ATOM     13  H   UNL     1      48.346   5.341  18.497  0.00  0.00    +0.000 HD
BRANCH  11  14
ATOM     14  C   UNL     1      49.775   3.223  18.160  0.00  0.00    +0.000 C 
ATOM     15  C   UNL     1      49.761   2.274  16.979  0.00  0.00    +0.000 C 
ATOM     16  C   UNL     1      48.377   2.478  16.404  0.00  0.00    +0.000 C 
ATOM     17  O   UNL     1      47.518   2.776  17.512  0.00  0.00    +0.000 OA
ATOM     18  C   UNL     1      48.331   3.170  18.629  0.00  0.00    +0.000 C 
ENDBRANCH  11  14
ENDBRANCH   9  10
ENDBRANCH   6   9
ENDBRANCH   2   3
BRANCH   2  19
ATOM     19  N   UNL     1      47.358   7.050  11.553  0.00  0.00    +0.000 N 
ATOM     20  C   UNL     1      46.004   6.955  11.368  0.00  0.00    +0.000 C 
ATOM     21  O   UNL     1      45.228   7.864  11.643  0.00  0.00    +0.000 OA
ATOM     22  H   UNL     1      47.884   6.182  11.598  0.00  0.00    +0.000 HD
BRANCH  20  23
ATOM     23  C   UNL     1      45.527   5.716  10.743  0.00  0.00    +0.000 A 
ATOM     24  C   UNL     1      45.778   5.485   9.398  0.00  0.00    +0.000 A 
ATOM     25  S   UNL     1      45.185   3.988   8.839  0.00  0.00    +0.000 S 
ATOM     26  C   UNL     1      44.529   3.617  10.363  0.00  0.00    +0.000 A 
ATOM     27  N   UNL     1      43.838   2.463  10.566  0.00  0.00    +0.000 NA
ATOM     28  C   UNL     1      43.365   2.328  11.759  0.00  0.00    +0.000 A 
ATOM     29  N   UNL     1      43.531   3.236  12.773  0.00  0.00    +0.000 N 
ATOM     30  C   UNL     1      44.262   4.391  12.629  0.00  0.00    +0.000 A 
ATOM     31  O   UNL     1      44.459   5.146  13.576  0.00  0.00    +0.000 OA
ATOM     32  C   UNL     1      44.787   4.607  11.295  0.00  0.00    +0.000 A 
ATOM     33  H   UNL     1      43.149   3.059  13.690  0.00  0.00    +0.000 HD
ENDBRANCH  20  23
ENDBRANCH   2  19
TORSDOF 6
ENDMDL
MODEL 5
REMARK VINA RESULT:    -6.915      2.361      3.333
REMARK INTER + INTRA:         -10.474
REMARK INTER:                  -8.949
REMARK INTRA:                  -1.526
REMARK UNBOUND:                -1.134
REMARK  Name = 
REMARK  7 active torsions:
REMARK  status: ('A' for Active; 'I' for Inactive)
REMARK    1  A    between atoms: C_1  and  C_2
REMARK    2  A    between atoms: C_2  and  N_3
REMARK    3  A    between atoms: C_2  and  C_16
REMARK    4  A    between atoms: C_4  and  C_6
REMARK    5  A    between atoms: C_19  and  C_20
REMARK    6  A    between atoms: C_20  and  N_21
REMARK    7  A    between atoms: C_22  and  C_24
REMARK                            x       y       z     vdW  Elec       q    Type
REMARK                         _______ _______ _______ _____ _____    ______ ____
ROOT
ATOM      1  C   UNL     1      48.945  10.094  15.017  0.00  0.00    +0.000 C 
ATOM      2  C   UNL     1      49.045   8.666  14.469  0.00  0.00    +0.000 C 
ENDROOT
BRANCH   2   3
ATOM      3  C   UNL     1      47.884   8.376  13.524  0.00  0.00    +0.000 A 
ATOM      4  C   UNL     1      48.035   7.487  12.453  0.00  0.00    +0.000 A 
ATOM      5  C   UNL     1      46.951   7.185  11.619  0.00  0.00    +0.000 A 
ATOM      6  C   UNL     1      45.695   7.772  11.835  0.00  0.00    +0.000 A 
ATOM      7  C   UNL     1      45.543   8.660  12.904  0.00  0.00    +0.000 A 
ATOM      8  C   UNL     1      46.624   8.965  13.735  0.00  0.00    +0.000 A 
BRANCH   6   9
ATOM      9  C   UNL     1      44.522   7.426  10.957  0.00  0.00    +0.000 C 
BRANCH   9  10
ATOM     10  N   UNL     1      44.326   5.996  10.876  0.00  0.00    +0.000 N 
ATOM     11  C   UNL     1      43.159   5.419  11.331  0.00  0.00    +0.000 C 
ATOM     12  O   UNL     1      42.234   6.079  11.796  0.00  0.00    +0.000 OA
ATOM     13  H   UNL     1      45.014   5.446  10.378  0.00  0.00    +0.000 HD
BRANCH  11  14
ATOM     14  C   UNL     1      43.111   3.904  11.180  0.00  0.00    +0.000 C 
ATOM     15  C   UNL     1      43.571   3.166  12.421  0.00  0.00    +0.000 C 
ATOM     16  C   UNL     1      45.070   3.103  12.234  0.00  0.00    +0.000 C 
ATOM     17  O   UNL     1      45.299   3.012  10.822  0.00  0.00    +0.000 OA
ATOM     18  C   UNL     1      44.106   3.427  10.137  0.00  0.00    +0.000 C 
ENDBRANCH  11  14
ENDBRANCH   9  10
ENDBRANCH   6   9
ENDBRANCH   2   3
BRANCH   2  19
ATOM     19  N   UNL     1      49.053   7.655  15.517  0.00  0.00    +0.000 N 
ATOM     20  C   UNL     1      50.167   6.947  15.884  0.00  0.00    +0.000 C 
ATOM     21  O   UNL     1      51.273   7.142  15.390  0.00  0.00    +0.000 OA
ATOM     22  H   UNL     1      48.149   7.243  15.730  0.00  0.00    +0.000 HD
BRANCH  20  23
ATOM     23  C   UNL     1      49.983   5.980  16.971  0.00  0.00    +0.000 A 
ATOM     24  C   UNL     1      50.828   6.015  18.072  0.00  0.00    +0.000 A 
ATOM     25  S   UNL     1      50.458   4.845  19.256  0.00  0.00    +0.000 S 
ATOM     26  C   UNL     1      49.187   4.218  18.316  0.00  0.00    +0.000 A 
ATOM     27  N   UNL     1      48.460   3.151  18.744  0.00  0.00    +0.000 NA
ATOM     28  C   UNL     1      47.552   2.758  17.916  0.00  0.00    +0.000 A 
ATOM     29  N   UNL     1      47.295   3.342  16.703  0.00  0.00    +0.000 N 
ATOM     30  C   UNL     1      47.969   4.451  16.250  0.00  0.00    +0.000 A 
ATOM     31  O   UNL     1      47.665   4.999  15.196  0.00  0.00    +0.000 OA
ATOM     32  C   UNL     1      49.026   4.912  17.129  0.00  0.00    +0.000 A 
ATOM     33  H   UNL     1      46.556   2.994  16.110  0.00  0.00    +0.000 HD
ENDBRANCH  20  23
ENDBRANCH   2  19
TORSDOF 6
ENDMDL
MODEL 6
REMARK VINA RESULT:    -6.885      2.876      8.643
REMARK INTER + INTRA:         -10.434
REMARK INTER:                  -9.044
REMARK INTRA:                  -1.390
REMARK UNBOUND:                -1.134
REMARK  Name = 
REMARK  7 active torsions:
REMARK  status: ('A' for Active; 'I' for Inactive)
REMARK    1  A    between atoms: C_1  and  C_2
REMARK    2  A    between atoms: C_2  and  N_3
REMARK    3  A    between atoms: C_2  and  C_16
REMARK    4  A    between atoms: C_4  and  C_6
REMARK    5  A    between atoms: C_19  and  C_20
REMARK    6  A    between atoms: C_20  and  N_21
REMARK    7  A    between atoms: C_22  and  C_24
REMARK                            x       y       z     vdW  Elec       q    Type
REMARK                         _______ _______ _______ _____ _____    ______ ____
ROOT
ATOM      1  C   UNL     1      48.987   7.772  11.353  0.00  0.00    +0.000 C 
ATOM      2  C   UNL     1      47.698   7.717  12.181  0.00  0.00    +0.000 C 
ENDROOT
BRANCH   2   3
ATOM      3  C   UNL     1      48.019   7.787  13.670  0.00  0.00    +0.000 A 
ATOM      4  C   UNL     1      48.397   6.638  14.377  0.00  0.00    +0.000 A 
ATOM      5  C   UNL     1      48.740   6.716  15.732  0.00  0.00    +0.000 A 
ATOM      6  C   UNL     1      48.707   7.944  16.411  0.00  0.00    +0.000 A 
ATOM      7  C   UNL     1      48.331   9.091  15.706  0.00  0.00    +0.000 A 
ATOM      8  C   UNL     1      47.985   9.014  14.355  0.00  0.00    +0.000 A 
BRANCH   6   9
ATOM      9  C   UNL     1      49.104   8.035  17.860  0.00  0.00    +0.000 C 
BRANCH   9  10
ATOM     10  N   UNL     1      49.278   6.723  18.444  0.00  0.00    +0.000 N 
ATOM     11  C   UNL     1      50.532   6.155  18.533  0.00  0.00    +0.000 C 
ATOM     12  O   UNL     1      51.547   6.732  18.154  0.00  0.00    +0.000 OA
ATOM     13  H   UNL     1      48.480   6.284  18.883  0.00  0.00    +0.000 HD
BRANCH  11  14
ATOM     14  C   UNL     1      50.545   4.769  19.166  0.00  0.00    +0.000 C 
ATOM     15  C   UNL     1      50.927   3.673  18.194  0.00  0.00    +0.000 C 
ATOM     16  C   UNL     1      49.605   3.327  17.545  0.00  0.00    +0.000 C 
ATOM     17  O   UNL     1      48.599   3.529  18.546  0.00  0.00    +0.000 OA
ATOM     18  C   UNL     1      49.149   4.348  19.589  0.00  0.00    +0.000 C 
ENDBRANCH  11  14
ENDBRANCH   9  10
ENDBRANCH   6   9
ENDBRANCH   2   3
BRANCH   2  19
ATOM     19  N   UNL     1      46.914   6.516  11.932  0.00  0.00    +0.000 N 
ATOM     20  C   UNL     1      45.547   6.504  11.843  0.00  0.00    +0.000 C 
ATOM     21  O   UNL     1      44.865   7.521  11.918  0.00  0.00    +0.000 OA
ATOM     22  H   UNL     1      47.372   5.641  12.168  0.00  0.00    +0.000 HD
BRANCH  20  23
ATOM     23  C   UNL     1      44.933   5.199  11.572  0.00  0.00    +0.000 A 
ATOM     24  C   UNL     1      44.197   4.568  12.566  0.00  0.00    +0.000 A 
ATOM     25  S   UNL     1      43.528   3.078  12.078  0.00  0.00    +0.000 S 
ATOM     26  C   UNL     1      44.239   3.201  10.538  0.00  0.00    +0.000 A 
ATOM     27  N   UNL     1      44.087   2.212   9.616  0.00  0.00    +0.000 NA
ATOM     28  C   UNL     1      44.710   2.420   8.505  0.00  0.00    +0.000 A 
ATOM     29  N   UNL     1      45.462   3.531   8.227  0.00  0.00    +0.000 N 
ATOM     30  C   UNL     1      45.605   4.577   9.108  0.00  0.00    +0.000 A 
ATOM     31  O   UNL     1      46.220   5.593   8.801  0.00  0.00    +0.000 OA
ATOM     32  C   UNL     1      44.951   4.378  10.387  0.00  0.00    +0.000 A 
ATOM     33  H   UNL     1      45.910   3.639   7.329  0.00  0.00    +0.000 HD
ENDBRANCH  20  23
ENDBRANCH   2  19
TORSDOF 6
ENDMDL
MODEL 7
REMARK VINA RESULT:    -6.779      4.325      9.366
REMARK INTER + INTRA:         -10.291
REMARK INTER:                  -9.068
REMARK INTRA:                  -1.222
REMARK UNBOUND:                -1.134
REMARK  Name = 
REMARK  7 active torsions:
REMARK  status: ('A' for Active; 'I' for Inactive)
REMARK    1  A    between atoms: C_1  and  C_2
REMARK    2  A    between atoms: C_2  and  N_3
REMARK    3  A    between atoms: C_2  and  C_16
REMARK    4  A    between atoms: C_4  and  C_6
REMARK    5  A    between atoms: C_19  and  C_20
REMARK    6  A    between atoms: C_20  and  N_21
REMARK    7  A    between atoms: C_22  and  C_24
REMARK                            x       y       z     vdW  Elec       q    Type
REMARK                         _______ _______ _______ _____ _____    ______ ____
ROOT
ATOM      1  C   UNL     1      46.753   3.206  17.758  0.00  0.00    +0.000 C 
ATOM      2  C   UNL     1      47.613   3.438  16.510  0.00  0.00    +0.000 C 
ENDROOT
BRANCH   2   3
ATOM      3  C   UNL     1      48.994   3.949  16.903  0.00  0.00    +0.000 A 
ATOM      4  C   UNL     1      49.279   5.320  16.902  0.00  0.00    +0.000 A 
ATOM      5  C   UNL     1      50.533   5.788  17.313  0.00  0.00    +0.000 A 
ATOM      6  C   UNL     1      51.531   4.894  17.727  0.00  0.00    +0.000 A 
ATOM      7  C   UNL     1      51.249   3.525  17.729  0.00  0.00    +0.000 A 
ATOM      8  C   UNL     1      49.999   3.056  17.316  0.00  0.00    +0.000 A 
BRANCH   6   9
ATOM      9  C   UNL     1      52.870   5.397  18.197  0.00  0.00    +0.000 C 
BRANCH   9  10
ATOM     10  N   UNL     1      53.747   4.306  18.562  0.00  0.00    +0.000 N 
ATOM     11  C   UNL     1      54.786   3.934  17.735  0.00  0.00    +0.000 C 
ATOM     12  O   UNL     1      55.032   4.513  16.682  0.00  0.00    +0.000 OA
ATOM     13  H   UNL     1      53.649   3.900  19.483  0.00  0.00    +0.000 HD
BRANCH  11  14
ATOM     14  C   UNL     1      55.612   2.765  18.258  0.00  0.00    +0.000 C 
ATOM     15  C   UNL     1      55.442   1.502  17.440  0.00  0.00    +0.000 C 
ATOM     16  C   UNL     1      54.215   0.867  18.056  0.00  0.00    +0.000 C 
ATOM     17  O   UNL     1      54.236   1.214  19.447  0.00  0.00    +0.000 OA
ATOM     18  C   UNL     1      55.128   2.325  19.629  0.00  0.00    +0.000 C 
ENDBRANCH  11  14
ENDBRANCH   9  10
ENDBRANCH   6   9
ENDBRANCH   2   3
BRANCH   2  19
ATOM     19  N   UNL     1      47.017   4.384  15.577  0.00  0.00    +0.000 N 
ATOM     20  C   UNL     1      46.780   4.105  14.257  0.00  0.00    +0.000 C 
ATOM     21  O   UNL     1      47.008   3.009  13.755  0.00  0.00    +0.000 OA
ATOM     22  H   UNL     1      47.098   5.362  15.839  0.00  0.00    +0.000 HD
BRANCH  20  23
ATOM     23  C   UNL     1      46.159   5.180  13.475  0.00  0.00    +0.000 A 
ATOM     24  C   UNL     1      46.845   6.371  13.280  0.00  0.00    +0.000 A 
ATOM     25  S   UNL     1      45.996   7.500  12.326  0.00  0.00    +0.000 S 
ATOM     26  C   UNL     1      44.660   6.456  12.183  0.00  0.00    +0.000 A 
ATOM     27  N   UNL     1      43.545   6.836  11.503  0.00  0.00    +0.000 NA
ATOM     28  C   UNL     1      42.596   5.961  11.505  0.00  0.00    +0.000 A 
ATOM     29  N   UNL     1      42.665   4.735  12.115  0.00  0.00    +0.000 N 
ATOM     30  C   UNL     1      43.788   4.289  12.770  0.00  0.00    +0.000 A 
ATOM     31  O   UNL     1      43.848   3.157  13.239  0.00  0.00    +0.000 OA
ATOM     32  C   UNL     1      44.872   5.249  12.827  0.00  0.00    +0.000 A 
ATOM     33  H   UNL     1      41.891   4.090  12.063  0.00  0.00    +0.000 HD
ENDBRANCH  20  23
ENDBRANCH   2  19
TORSDOF 6
ENDMDL
MODEL 8
REMARK VINA RESULT:    -6.700      5.176      7.160
REMARK INTER + INTRA:         -10.184
REMARK INTER:                  -9.044
REMARK INTRA:                  -1.140
REMARK UNBOUND:                -1.134
REMARK  Name = 
REMARK  7 active torsions:
REMARK  status: ('A' for Active; 'I' for Inactive)
REMARK    1  A    between atoms: C_1  and  C_2
REMARK    2  A    between atoms: C_2  and  N_3
REMARK    3  A    between atoms: C_2  and  C_16
REMARK    4  A    between atoms: C_4  and  C_6
REMARK    5  A    between atoms: C_19  and  C_20
REMARK    6  A    between atoms: C_20  and  N_21
REMARK    7  A    between atoms: C_22  and  C_24
REMARK                            x       y       z     vdW  Elec       q    Type
REMARK                         _______ _______ _______ _____ _____    ______ ____
ROOT
ATOM      1  C   UNL     1      50.589   9.594  12.184  0.00  0.00    +0.000 C 
ATOM      2  C   UNL     1      50.170   8.400  11.319  0.00  0.00    +0.000 C 
ENDROOT
BRANCH   2   3
ATOM      3  C   UNL     1      49.079   7.596  12.015  0.00  0.00    +0.000 A 
ATOM      4  C   UNL     1      47.887   7.277  11.352  0.00  0.00    +0.000 A 
ATOM      5  C   UNL     1      46.910   6.494  11.978  0.00  0.00    +0.000 A 
ATOM      6  C   UNL     1      47.101   6.019  13.284  0.00  0.00    +0.000 A 
ATOM      7  C   UNL     1      48.290   6.336  13.948  0.00  0.00    +0.000 A 
ATOM      8  C   UNL     1      49.265   7.120  13.325  0.00  0.00    +0.000 A 
BRANCH   6   9
ATOM      9  C   UNL     1      46.064   5.152  13.949  0.00  0.00    +0.000 C 
BRANCH   9  10
ATOM     10  N   UNL     1      45.021   4.772  13.022  0.00  0.00    +0.000 N 
ATOM     11  C   UNL     1      44.965   3.491  12.515  0.00  0.00    +0.000 C 
ATOM     12  O   UNL     1      45.765   2.618  12.835  0.00  0.00    +0.000 OA
ATOM     13  H   UNL     1      44.274   5.431  12.844  0.00  0.00    +0.000 HD
BRANCH  11  14
ATOM     14  C   UNL     1      43.812   3.252  11.548  0.00  0.00    +0.000 C 
ATOM     15  C   UNL     1      44.270   2.928  10.141  0.00  0.00    +0.000 C 
ATOM     16  C   UNL     1      44.456   4.297   9.527  0.00  0.00    +0.000 C 
ATOM     17  O   UNL     1      43.477   5.150  10.134  0.00  0.00    +0.000 OA
ATOM     18  C   UNL     1      43.005   4.521  11.336  0.00  0.00    +0.000 C 
ENDBRANCH  11  14
ENDBRANCH   9  10
ENDBRANCH   6   9
ENDBRANCH   2   3
BRANCH   2  19
ATOM     19  N   UNL     1      51.278   7.507  11.008  0.00  0.00    +0.000 N 
ATOM     20  C   UNL     1      52.255   7.796  10.092  0.00  0.00    +0.000 C 
ATOM     21  O   UNL     1      52.306   8.861   9.485  0.00  0.00    +0.000 OA
ATOM     22  H   UNL     1      51.121   6.528  11.229  0.00  0.00    +0.000 HD
BRANCH  20  23
ATOM     23  C   UNL     1      53.298   6.778   9.925  0.00  0.00    +0.000 A 
ATOM     24  C   UNL     1      54.194   6.538  10.957  0.00  0.00    +0.000 A 
ATOM     25  S   UNL     1      55.320   5.305  10.613  0.00  0.00    +0.000 S 
ATOM     26  C   UNL     1      54.681   5.083   9.053  0.00  0.00    +0.000 A 
ATOM     27  N   UNL     1      55.224   4.177   8.196  0.00  0.00    +0.000 NA
ATOM     28  C   UNL     1      54.663   4.139   7.034  0.00  0.00    +0.000 A 
ATOM     29  N   UNL     1      53.600   4.916   6.654  0.00  0.00    +0.000 N 
ATOM     30  C   UNL     1      52.987   5.810   7.500  0.00  0.00    +0.000 A 
ATOM     31  O   UNL     1      51.989   6.435   7.157  0.00  0.00    +0.000 OA
ATOM     32  C   UNL     1      53.602   5.916   8.809  0.00  0.00    +0.000 A 
ATOM     33  H   UNL     1      53.197   4.823   5.734  0.00  0.00    +0.000 HD
ENDBRANCH  20  23
ENDBRANCH   2  19
TORSDOF 6
ENDMDL
MODEL 9
REMARK VINA RESULT:    -6.529      3.583      8.880
REMARK INTER + INTRA:          -9.953
REMARK INTER:                  -8.552
REMARK INTRA:                  -1.401
REMARK UNBOUND:                -1.134
REMARK  Name = 
REMARK  7 active torsions:
REMARK  status: ('A' for Active; 'I' for Inactive)
REMARK    1  A    between atoms: C_1  and  C_2
REMARK    2  A    between atoms: C_2  and  N_3
REMARK    3  A    between atoms: C_2  and  C_16
REMARK    4  A    between atoms: C_4  and  C_6
REMARK    5  A    between atoms: C_19  and  C_20
REMARK    6  A    between atoms: C_20  and  N_21
REMARK    7  A    between atoms: C_22  and  C_24
REMARK                            x       y       z     vdW  Elec       q    Type
REMARK                         _______ _______ _______ _____ _____    ______ ____
ROOT
ATOM      1  C   UNL     1      49.154   7.601  12.883  0.00  0.00    +0.000 C 
ATOM      2  C   UNL     1      47.887   7.012  13.514  0.00  0.00    +0.000 C 
ENDROOT
BRANCH   2   3
ATOM      3  C   UNL     1      48.230   6.271  14.802  0.00  0.00    +0.000 A 
ATOM      4  C   UNL     1      49.224   6.751  15.663  0.00  0.00    +0.000 A 
ATOM      5  C   UNL     1      49.500   6.096  16.869  0.00  0.00    +0.000 A 
ATOM      6  C   UNL     1      48.791   4.943  17.237  0.00  0.00    +0.000 A 
ATOM      7  C   UNL     1      47.797   4.463  16.379  0.00  0.00    +0.000 A 
ATOM      8  C   UNL     1      47.524   5.113  15.173  0.00  0.00    +0.000 A 
BRANCH   6   9
ATOM      9  C   UNL     1      49.065   4.254  18.547  0.00  0.00    +0.000 C 
BRANCH   9  10
ATOM     10  N   UNL     1      50.482   4.040  18.745  0.00  0.00    +0.000 N 
ATOM     11  C   UNL     1      51.163   4.717  19.734  0.00  0.00    +0.000 C 
ATOM     12  O   UNL     1      50.610   5.502  20.499  0.00  0.00    +0.000 OA
ATOM     13  H   UNL     1      50.933   3.303  18.218  0.00  0.00    +0.000 HD
BRANCH  11  14
ATOM     14  C   UNL     1      52.648   4.385  19.808  0.00  0.00    +0.000 C 
ATOM     15  C   UNL     1      53.531   5.462  19.212  0.00  0.00    +0.000 C 
ATOM     16  C   UNL     1      53.558   5.096  17.745  0.00  0.00    +0.000 C 
ATOM     17  O   UNL     1      53.470   3.666  17.682  0.00  0.00    +0.000 OA
ATOM     18  C   UNL     1      52.983   3.182  18.944  0.00  0.00    +0.000 C 
ENDBRANCH  11  14
ENDBRANCH   9  10
ENDBRANCH   6   9
ENDBRANCH   2   3
BRANCH   2  19
ATOM     19  N   UNL     1      47.184   6.096  12.626  0.00  0.00    +0.000 N 
ATOM     20  C   UNL     1      46.179   6.480  11.777  0.00  0.00    +0.000 C 
ATOM     21  O   UNL     1      45.817   7.646  11.656  0.00  0.00    +0.000 OA
ATOM     22  H   UNL     1      47.215   5.118  12.898  0.00  0.00    +0.000 HD
BRANCH  20  23
ATOM     23  C   UNL     1      45.599   5.417  10.948  0.00  0.00    +0.000 A 
ATOM     24  C   UNL     1      45.735   5.471   9.568  0.00  0.00    +0.000 A 
ATOM     25  S   UNL     1      45.032   4.145   8.760  0.00  0.00    +0.000 S 
ATOM     26  C   UNL     1      44.477   3.478  10.222  0.00  0.00    +0.000 A 
ATOM     27  N   UNL     1      43.750   2.329  10.236  0.00  0.00    +0.000 NA
ATOM     28  C   UNL     1      43.364   1.957  11.410  0.00  0.00    +0.000 A 
ATOM     29  N   UNL     1      43.649   2.622  12.574  0.00  0.00    +0.000 N 
ATOM     30  C   UNL     1      44.421   3.759  12.615  0.00  0.00    +0.000 A 
ATOM     31  O   UNL     1      44.724   4.289  13.678  0.00  0.00    +0.000 OA
ATOM     32  C   UNL     1      44.851   4.239  11.316  0.00  0.00    +0.000 A 
ATOM     33  H   UNL     1      43.330   2.266  13.463  0.00  0.00    +0.000 HD
ENDBRANCH  20  23
ENDBRANCH   2  19
TORSDOF 6
ENDMDL
