MODEL 1
REMARK VINA RESULT:    -8.693      0.000      0.000
REMARK INTER + INTRA:         -11.631
REMARK INTER:                 -11.235
REMARK INTRA:                  -0.396
REMARK UNBOUND:                -0.396
REMARK  Name = 
REMARK  5 active torsions:
REMARK  status: ('A' for Active; 'I' for Inactive)
REMARK    1  A    between atoms: C_2  and  C_18
REMARK    2  A    between atoms: N_3  and  C_4
REMARK    3  A    between atoms: C_4  and  C_5
REMARK    4  A    between atoms: C_8  and  C_9
REMARK    5  A    between atoms: C_9  and  C_10
REMARK                            x       y       z     vdW  Elec       q    Type
REMARK                         _______ _______ _______ _____ _____    ______ ____
ROOT
ATOM      1  O   UNL     1      48.388   6.882  12.570  0.00  0.00    +0.000 OA
ATOM      2  C   UNL     1      47.729   6.774  13.600  0.00  0.00    +0.000 C 
ATOM      3  N   UNL     1      46.389   7.043  13.639  0.00  0.00    +0.000 N 
ATOM      4  H   UNL     1      45.863   6.909  14.494  0.00  0.00    +0.000 HD
ENDROOT
BRANCH   2   5
ATOM      5  C   UNL     1      48.341   6.394  14.876  0.00  0.00    +0.000 A 
ATOM      6  C   UNL     1      49.378   7.146  15.408  0.00  0.00    +0.000 A 
ATOM      7  S   UNL     1      49.945   6.558  16.906  0.00  0.00    +0.000 S 
ATOM      8  C   UNL     1      48.850   5.255  16.874  0.00  0.00    +0.000 A 
ATOM      9  N   UNL     1      48.819   4.337  17.879  0.00  0.00    +0.000 NA
ATOM     10  C   UNL     1      47.962   3.387  17.708  0.00  0.00    +0.000 A 
ATOM     11  N   UNL     1      47.131   3.270  16.624  0.00  0.00    +0.000 N 
ATOM     12  C   UNL     1      47.102   4.188  15.602  0.00  0.00    +0.000 A 
ATOM     13  O   UNL     1      46.304   4.081  14.676  0.00  0.00    +0.000 OA
ATOM     14  C   UNL     1      48.056   5.273  15.742  0.00  0.00    +0.000 A 
ATOM     15  H   UNL     1      46.471   2.508  16.557  0.00  0.00    +0.000 HD
ENDBRANCH   2   5
BRANCH   3  16
ATOM     16  C   UNL     1      45.617   7.359  12.461  0.00  0.00    +0.000 C 
BRANCH  16  17
ATOM     17  C   UNL     1      45.279   6.141  11.647  0.00  0.00    +0.000 A 
ATOM     18  C   UNL     1      45.837   5.962  10.386  0.00  0.00    +0.000 A 
ATOM     19  N   UNL     1      45.595   4.870   9.623  0.00  0.00    +0.000 NA
ATOM     20  C   UNL     1      44.742   3.952  10.149  0.00  0.00    +0.000 A 
ATOM     21  C   UNL     1      44.153   4.151  11.394  0.00  0.00    +0.000 A 
ATOM     22  N   UNL     1      44.410   5.235  12.168  0.00  0.00    +0.000 NA
BRANCH  20  23
ATOM     23  C   UNL     1      44.437   2.728   9.331  0.00  0.00    +0.000 C 
BRANCH  23  24
ATOM     24  C   UNL     1      45.480   2.441   8.280  0.00  0.00    +0.000 A 
ATOM     25  C   UNL     1      45.716   3.348   7.247  0.00  0.00    +0.000 A 
ATOM     26  C   UNL     1      46.673   3.042   6.284  0.00  0.00    +0.000 A 
ATOM     27  C   UNL     1      47.381   1.853   6.386  0.00  0.00    +0.000 A 
ATOM     28  C   UNL     1      47.103   1.015   7.451  0.00  0.00    +0.000 A 
ATOM     29  N   UNL     1      46.169   1.276   8.394  0.00  0.00    +0.000 NA
ENDBRANCH  23  24
ENDBRANCH  20  23
ENDBRANCH  16  17
ENDBRANCH   3  16
TORSDOF 5
ENDMDL
MODEL 2
REMARK VINA RESULT:    -8.476      1.025      1.330
REMARK INTER + INTRA:         -11.350
REMARK INTER:                 -10.767
REMARK INTRA:                  -0.583
REMARK UNBOUND:                -0.396
REMARK  Name = 
REMARK  5 active torsions:
REMARK  status: ('A' for Active; 'I' for Inactive)
REMARK    1  A    between atoms: C_2  and  C_18
REMARK    2  A    between atoms: N_3  and  C_4
REMARK    3  A    between atoms: C_4  and  C_5
REMARK    4  A    between atoms: C_8  and  C_9
REMARK    5  A    between atoms: C_9  and  C_10
REMARK                            x       y       z     vdW  Elec       q    Type
REMARK                         _______ _______ _______ _____ _____    ______ ____
ROOT
ATOM      1  O   UNL     1      49.122   6.819  13.209  0.00  0.00    +0.000 OA
ATOM      2  C   UNL     1      48.400   6.832  14.202  0.00  0.00    +0.000 C 
ATOM      3  N   UNL     1      47.169   7.428  14.199  0.00  0.00    +0.000 N 
ATOM      4  H   UNL     1      46.579   7.391  15.022  0.00  0.00    +0.000 HD
ENDROOT
BRANCH   2   5
ATOM      5  C   UNL     1      48.825   6.250  15.477  0.00  0.00    +0.000 A 
ATOM      6  C   UNL     1      49.906   6.780  16.165  0.00  0.00    +0.000 A 
ATOM      7  S   UNL     1      50.234   5.981  17.636  0.00  0.00    +0.000 S 
ATOM      8  C   UNL     1      48.966   4.874  17.384  0.00  0.00    +0.000 A 
ATOM      9  N   UNL     1      48.704   3.888  18.285  0.00  0.00    +0.000 NA
ATOM     10  C   UNL     1      47.735   3.103  17.951  0.00  0.00    +0.000 A 
ATOM     11  N   UNL     1      47.003   3.214  16.797  0.00  0.00    +0.000 N 
ATOM     12  C   UNL     1      47.208   4.211  15.874  0.00  0.00    +0.000 A 
ATOM     13  O   UNL     1      46.494   4.313  14.881  0.00  0.00    +0.000 OA
ATOM     14  C   UNL     1      48.295   5.116  16.199  0.00  0.00    +0.000 A 
ATOM     15  H   UNL     1      46.246   2.574  16.600  0.00  0.00    +0.000 HD
ENDBRANCH   2   5
BRANCH   3  16
ATOM     16  C   UNL     1      46.568   7.984  13.010  0.00  0.00    +0.000 C 
BRANCH  16  17
ATOM     17  C   UNL     1      45.883   6.944  12.167  0.00  0.00    +0.000 A 
ATOM     18  C   UNL     1      46.458   6.515  10.977  0.00  0.00    +0.000 A 
ATOM     19  N   UNL     1      45.904   5.559  10.195  0.00  0.00    +0.000 NA
ATOM     20  C   UNL     1      44.722   5.047  10.627  0.00  0.00    +0.000 A 
ATOM     21  C   UNL     1      44.127   5.505  11.798  0.00  0.00    +0.000 A 
ATOM     22  N   UNL     1      44.691   6.449  12.593  0.00  0.00    +0.000 NA
BRANCH  20  23
ATOM     23  C   UNL     1      44.066   3.989   9.784  0.00  0.00    +0.000 C 
BRANCH  23  24
ATOM     24  C   UNL     1      45.014   3.331   8.812  0.00  0.00    +0.000 A 
ATOM     25  C   UNL     1      45.372   1.992   8.967  0.00  0.00    +0.000 A 
ATOM     26  C   UNL     1      46.262   1.421   8.063  0.00  0.00    +0.000 A 
ATOM     27  C   UNL     1      46.757   2.192   7.020  0.00  0.00    +0.000 A 
ATOM     28  C   UNL     1      46.338   3.508   6.923  0.00  0.00    +0.000 A 
ATOM     29  N   UNL     1      45.487   4.095   7.794  0.00  0.00    +0.000 NA
ENDBRANCH  23  24
ENDBRANCH  20  23
ENDBRANCH  16  17
ENDBRANCH   3  16
TORSDOF 5
ENDMDL
MODEL 3
REMARK VINA RESULT:    -8.451      3.120      3.853
REMARK INTER + INTRA:         -11.318
REMARK INTER:                 -10.411
REMARK INTRA:                  -0.907
REMARK UNBOUND:                -0.396
REMARK  Name = 
REMARK  5 active torsions:
REMARK  status: ('A' for Active; 'I' for Inactive)
REMARK    1  A    between atoms: C_2  and  C_18
REMARK    2  A    between atoms: N_3  and  C_4
REMARK    3  A    between atoms: C_4  and  C_5
REMARK    4  A    between atoms: C_8  and  C_9
REMARK    5  A    between atoms: C_9  and  C_10
REMARK                            x       y       z     vdW  Elec       q    Type
REMARK                         _______ _______ _______ _____ _____    ______ ____
ROOT
ATOM      1  O   UNL     1      44.457   8.507  11.284  0.00  0.00    +0.000 OA
ATOM      2  C   UNL     1      45.366   8.220  12.057  0.00  0.00    +0.000 C 
ATOM      3  N   UNL     1      45.250   7.213  12.975  0.00  0.00    +0.000 N 
ATOM      4  H   UNL     1      46.030   6.974  13.576  0.00  0.00    +0.000 HD
ENDROOT
BRANCH   2   5
ATOM      5  C   UNL     1      46.626   8.968  12.084  0.00  0.00    +0.000 A 
ATOM      6  C   UNL     1      46.628  10.345  11.917  0.00  0.00    +0.000 A 
ATOM      7  S   UNL     1      48.185  11.037  12.000  0.00  0.00    +0.000 S 
ATOM      8  C   UNL     1      48.913   9.514  12.222  0.00  0.00    +0.000 A 
ATOM      9  N   UNL     1      50.262   9.392  12.351  0.00  0.00    +0.000 NA
ATOM     10  C   UNL     1      50.678   8.176  12.482  0.00  0.00    +0.000 A 
ATOM     11  N   UNL     1      49.867   7.071  12.496  0.00  0.00    +0.000 N 
ATOM     12  C   UNL     1      48.499   7.146  12.402  0.00  0.00    +0.000 A 
ATOM     13  O   UNL     1      47.802   6.139  12.476  0.00  0.00    +0.000 OA
ATOM     14  C   UNL     1      47.981   8.492  12.243  0.00  0.00    +0.000 A 
ATOM     15  H   UNL     1      50.256   6.146  12.616  0.00  0.00    +0.000 HD
ENDBRANCH   2   5
BRANCH   3  16
ATOM     16  C   UNL     1      44.109   6.333  13.035  0.00  0.00    +0.000 C 
BRANCH  16  17
ATOM     17  C   UNL     1      44.222   5.171  12.087  0.00  0.00    +0.000 A 
ATOM     18  C   UNL     1      43.381   5.082  10.984  0.00  0.00    +0.000 A 
ATOM     19  N   UNL     1      43.460   4.078  10.079  0.00  0.00    +0.000 NA
ATOM     20  C   UNL     1      44.403   3.130  10.321  0.00  0.00    +0.000 A 
ATOM     21  C   UNL     1      45.217   3.199  11.447  0.00  0.00    +0.000 A 
ATOM     22  N   UNL     1      45.153   4.215  12.344  0.00  0.00    +0.000 NA
BRANCH  20  23
ATOM     23  C   UNL     1      44.519   1.991   9.347  0.00  0.00    +0.000 C 
BRANCH  23  24
ATOM     24  C   UNL     1      45.644   2.167   8.357  0.00  0.00    +0.000 A 
ATOM     25  C   UNL     1      45.840   3.391   7.717  0.00  0.00    +0.000 A 
ATOM     26  C   UNL     1      46.876   3.514   6.797  0.00  0.00    +0.000 A 
ATOM     27  C   UNL     1      47.698   2.423   6.552  0.00  0.00    +0.000 A 
ATOM     28  C   UNL     1      47.451   1.248   7.242  0.00  0.00    +0.000 A 
ATOM     29  N   UNL     1      46.443   1.093   8.130  0.00  0.00    +0.000 NA
ENDBRANCH  23  24
ENDBRANCH  20  23
ENDBRANCH  16  17
ENDBRANCH   3  16
TORSDOF 5
ENDMDL
MODEL 4
REMARK VINA RESULT:    -8.182      1.582      2.147
REMARK INTER + INTRA:         -10.970
REMARK INTER:                 -10.484
REMARK INTRA:                  -0.487
REMARK UNBOUND:                -0.396
REMARK  Name = 
REMARK  5 active torsions:
REMARK  status: ('A' for Active; 'I' for Inactive)
REMARK    1  A    between atoms: C_2  and  C_18
REMARK    2  A    between atoms: N_3  and  C_4
REMARK    3  A    between atoms: C_4  and  C_5
REMARK    4  A    between atoms: C_8  and  C_9
REMARK    5  A    between atoms: C_9  and  C_10
REMARK                            x       y       z     vdW  Elec       q    Type
REMARK                         _______ _______ _______ _____ _____    ______ ____
ROOT
ATOM      1  O   UNL     1      48.602   6.069  13.812  0.00  0.00    +0.000 OA
ATOM      2  C   UNL     1      47.666   5.680  14.503  0.00  0.00    +0.000 C 
ATOM      3  N   UNL     1      46.362   5.901  14.154  0.00  0.00    +0.000 N 
ATOM      4  H   UNL     1      45.609   5.535  14.725  0.00  0.00    +0.000 HD
ENDROOT
BRANCH   2   5
ATOM      5  C   UNL     1      47.877   4.990  15.778  0.00  0.00    +0.000 A 
ATOM      6  C   UNL     1      47.512   3.660  15.924  0.00  0.00    +0.000 A 
ATOM      7  S   UNL     1      47.855   3.027  17.472  0.00  0.00    +0.000 S 
ATOM      8  C   UNL     1      48.466   4.522  18.010  0.00  0.00    +0.000 A 
ATOM      9  N   UNL     1      48.927   4.676  19.281  0.00  0.00    +0.000 NA
ATOM     10  C   UNL     1      49.332   5.870  19.562  0.00  0.00    +0.000 A 
ATOM     11  N   UNL     1      49.318   6.925  18.686  0.00  0.00    +0.000 N 
ATOM     12  C   UNL     1      48.894   6.810  17.384  0.00  0.00    +0.000 A 
ATOM     13  O   UNL     1      48.951   7.763  16.613  0.00  0.00    +0.000 OA
ATOM     14  C   UNL     1      48.419   5.488  17.021  0.00  0.00    +0.000 A 
ATOM     15  H   UNL     1      49.662   7.833  18.964  0.00  0.00    +0.000 HD
ENDBRANCH   2   5
BRANCH   3  16
ATOM     16  C   UNL     1      45.976   6.499  12.899  0.00  0.00    +0.000 C 
BRANCH  16  17
ATOM     17  C   UNL     1      45.567   5.479  11.872  0.00  0.00    +0.000 A 
ATOM     18  C   UNL     1      45.639   5.780  10.517  0.00  0.00    +0.000 A 
ATOM     19  N   UNL     1      45.317   4.891   9.548  0.00  0.00    +0.000 NA
ATOM     20  C   UNL     1      44.886   3.675   9.975  0.00  0.00    +0.000 A 
ATOM     21  C   UNL     1      44.776   3.388  11.332  0.00  0.00    +0.000 A 
ATOM     22  N   UNL     1      45.118   4.271  12.303  0.00  0.00    +0.000 NA
BRANCH  20  23
ATOM     23  C   UNL     1      44.508   2.659   8.933  0.00  0.00    +0.000 C 
BRANCH  23  24
ATOM     24  C   UNL     1      45.626   2.354   7.966  0.00  0.00    +0.000 A 
ATOM     25  C   UNL     1      45.884   3.203   6.890  0.00  0.00    +0.000 A 
ATOM     26  C   UNL     1      46.911   2.882   6.008  0.00  0.00    +0.000 A 
ATOM     27  C   UNL     1      47.664   1.737   6.231  0.00  0.00    +0.000 A 
ATOM     28  C   UNL     1      47.358   0.957   7.333  0.00  0.00    +0.000 A 
ATOM     29  N   UNL     1      46.357   1.234   8.199  0.00  0.00    +0.000 NA
ENDBRANCH  23  24
ENDBRANCH  20  23
ENDBRANCH  16  17
ENDBRANCH   3  16
TORSDOF 5
ENDMDL
MODEL 5
REMARK VINA RESULT:    -7.962      1.755      3.168
REMARK INTER + INTRA:         -10.686
REMARK INTER:                  -9.905
REMARK INTRA:                  -0.781
REMARK UNBOUND:                -0.396
REMARK  Name = 
REMARK  5 active torsions:
REMARK  status: ('A' for Active; 'I' for Inactive)
REMARK    1  A    between atoms: C_2  and  C_18
REMARK    2  A    between atoms: N_3  and  C_4
REMARK    3  A    between atoms: C_4  and  C_5
REMARK    4  A    between atoms: C_8  and  C_9
REMARK    5  A    between atoms: C_9  and  C_10
REMARK                            x       y       z     vdW  Elec       q    Type
REMARK                         _______ _______ _______ _____ _____    ______ ____
ROOT
ATOM      1  O   UNL     1      47.434   3.849  14.472  0.00  0.00    +0.000 OA
ATOM      2  C   UNL     1      47.246   5.061  14.431  0.00  0.00    +0.000 C 
ATOM      3  N   UNL     1      46.075   5.600  13.972  0.00  0.00    +0.000 N 
ATOM      4  H   UNL     1      45.934   6.603  13.985  0.00  0.00    +0.000 HD
ENDROOT
BRANCH   2   5
ATOM      5  C   UNL     1      48.280   6.020  14.827  0.00  0.00    +0.000 A 
ATOM      6  C   UNL     1      48.721   6.073  16.141  0.00  0.00    +0.000 A 
ATOM      7  S   UNL     1      49.940   7.238  16.402  0.00  0.00    +0.000 S 
ATOM      8  C   UNL     1      49.890   7.739  14.776  0.00  0.00    +0.000 A 
ATOM      9  N   UNL     1      50.694   8.739  14.323  0.00  0.00    +0.000 NA
ATOM     10  C   UNL     1      50.528   9.035  13.076  0.00  0.00    +0.000 A 
ATOM     11  N   UNL     1      49.631   8.421  12.241  0.00  0.00    +0.000 N 
ATOM     12  C   UNL     1      48.822   7.385  12.643  0.00  0.00    +0.000 A 
ATOM     13  O   UNL     1      48.073   6.822  11.851  0.00  0.00    +0.000 OA
ATOM     14  C   UNL     1      48.964   7.020  14.040  0.00  0.00    +0.000 A 
ATOM     15  H   UNL     1      49.560   8.692  11.270  0.00  0.00    +0.000 HD
ENDBRANCH   2   5
BRANCH   3  16
ATOM     16  C   UNL     1      44.930   4.800  13.613  0.00  0.00    +0.000 C 
BRANCH  16  17
ATOM     17  C   UNL     1      44.856   4.525  12.136  0.00  0.00    +0.000 A 
ATOM     18  C   UNL     1      44.186   3.403  11.664  0.00  0.00    +0.000 A 
ATOM     19  N   UNL     1      44.058   3.124  10.345  0.00  0.00    +0.000 NA
ATOM     20  C   UNL     1      44.652   3.997   9.491  0.00  0.00    +0.000 A 
ATOM     21  C   UNL     1      45.358   5.098   9.966  0.00  0.00    +0.000 A 
ATOM     22  N   UNL     1      45.469   5.391  11.286  0.00  0.00    +0.000 NA
BRANCH  20  23
ATOM     23  C   UNL     1      44.544   3.719   8.017  0.00  0.00    +0.000 C 
BRANCH  23  24
ATOM     24  C   UNL     1      45.713   2.936   7.473  0.00  0.00    +0.000 A 
ATOM     25  C   UNL     1      46.427   3.401   6.369  0.00  0.00    +0.000 A 
ATOM     26  C   UNL     1      47.488   2.644   5.882  0.00  0.00    +0.000 A 
ATOM     27  C   UNL     1      47.821   1.456   6.518  0.00  0.00    +0.000 A 
ATOM     28  C   UNL     1      47.077   1.072   7.620  0.00  0.00    +0.000 A 
ATOM     29  N   UNL     1      46.031   1.778   8.107  0.00  0.00    +0.000 NA
ENDBRANCH  23  24
ENDBRANCH  20  23
ENDBRANCH  16  17
ENDBRANCH   3  16
TORSDOF 5
ENDMDL
MODEL 6
REMARK VINA RESULT:    -7.617      2.419      3.182
REMARK INTER + INTRA:         -10.239
REMARK INTER:                  -9.390
REMARK INTRA:                  -0.850
REMARK UNBOUND:                -0.396
REMARK  Name = 
REMARK  5 active torsions:
REMARK  status: ('A' for Active; 'I' for Inactive)
REMARK    1  A    between atoms: C_2  and  C_18
REMARK    2  A    between atoms: N_3  and  C_4
REMARK    3  A    between atoms: C_4  and  C_5
REMARK    4  A    between atoms: C_8  and  C_9
REMARK    5  A    between atoms: C_9  and  C_10
REMARK                            x       y       z     vdW  Elec       q    Type
REMARK                         _______ _______ _______ _____ _____    ______ ____
ROOT
ATOM      1  O   UNL     1      50.150   6.640  15.386  0.00  0.00    +0.000 OA
ATOM      2  C   UNL     1      49.028   6.476  15.856  0.00  0.00    +0.000 C 
ATOM      3  N   UNL     1      47.897   6.864  15.194  0.00  0.00    +0.000 N 
ATOM      4  H   UNL     1      46.982   6.681  15.590  0.00  0.00    +0.000 HD
ENDROOT
BRANCH   2   5
ATOM      5  C   UNL     1      48.822   5.892  17.184  0.00  0.00    +0.000 A 
ATOM      6  C   UNL     1      49.068   4.545  17.404  0.00  0.00    +0.000 A 
ATOM      7  S   UNL     1      48.791   4.057  19.015  0.00  0.00    +0.000 S 
ATOM      8  C   UNL     1      48.294   5.622  19.464  0.00  0.00    +0.000 A 
ATOM      9  N   UNL     1      47.898   5.896  20.737  0.00  0.00    +0.000 NA
ATOM     10  C   UNL     1      47.518   7.115  20.927  0.00  0.00    +0.000 A 
ATOM     11  N   UNL     1      47.499   8.087  19.960  0.00  0.00    +0.000 N 
ATOM     12  C   UNL     1      47.920   7.868  18.671  0.00  0.00    +0.000 A 
ATOM     13  O   UNL     1      47.943   8.777  17.848  0.00  0.00    +0.000 OA
ATOM     14  C   UNL     1      48.348   6.507  18.402  0.00  0.00    +0.000 A 
ATOM     15  H   UNL     1      47.203   9.028  20.178  0.00  0.00    +0.000 HD
ENDBRANCH   2   5
BRANCH   3  16
ATOM     16  C   UNL     1      47.915   7.387  13.849  0.00  0.00    +0.000 C 
BRANCH  16  17
ATOM     17  C   UNL     1      46.975   6.656  12.930  0.00  0.00    +0.000 A 
ATOM     18  C   UNL     1      46.288   7.344  11.937  0.00  0.00    +0.000 A 
ATOM     19  N   UNL     1      45.456   6.733  11.060  0.00  0.00    +0.000 NA
ATOM     20  C   UNL     1      45.303   5.393  11.219  0.00  0.00    +0.000 A 
ATOM     21  C   UNL     1      45.960   4.711  12.239  0.00  0.00    +0.000 A 
ATOM     22  N   UNL     1      46.809   5.319  13.105  0.00  0.00    +0.000 NA
BRANCH  20  23
ATOM     23  C   UNL     1      44.380   4.675  10.274  0.00  0.00    +0.000 C 
BRANCH  23  24
ATOM     24  C   UNL     1      45.108   3.814   9.271  0.00  0.00    +0.000 A 
ATOM     25  C   UNL     1      45.067   2.424   9.368  0.00  0.00    +0.000 A 
ATOM     26  C   UNL     1      45.765   1.661   8.437  0.00  0.00    +0.000 A 
ATOM     27  C   UNL     1      46.468   2.301   7.426  0.00  0.00    +0.000 A 
ATOM     28  C   UNL     1      46.443   3.684   7.386  0.00  0.00    +0.000 A 
ATOM     29  N   UNL     1      45.787   4.454   8.285  0.00  0.00    +0.000 NA
ENDBRANCH  23  24
ENDBRANCH  20  23
ENDBRANCH  16  17
ENDBRANCH   3  16
TORSDOF 5
ENDMDL
MODEL 7
REMARK VINA RESULT:    -7.540      1.970      2.677
REMARK INTER + INTRA:         -10.140
REMARK INTER:                  -9.592
REMARK INTRA:                  -0.548
REMARK UNBOUND:                -0.396
REMARK  Name = 
REMARK  5 active torsions:
REMARK  status: ('A' for Active; 'I' for Inactive)
REMARK    1  A    between atoms: C_2  and  C_18
REMARK    2  A    between atoms: N_3  and  C_4
REMARK    3  A    between atoms: C_4  and  C_5
REMARK    4  A    between atoms: C_8  and  C_9
REMARK    5  A    between atoms: C_9  and  C_10
REMARK                            x       y       z     vdW  Elec       q    Type
REMARK                         _______ _______ _______ _____ _____    ______ ____
ROOT
ATOM      1  O   UNL     1      47.885   4.775  13.722  0.00  0.00    +0.000 OA
ATOM      2  C   UNL     1      47.419   5.907  13.807  0.00  0.00    +0.000 C 
ATOM      3  N   UNL     1      46.086   6.160  13.636  0.00  0.00    +0.000 N 
ATOM      4  H   UNL     1      45.723   7.100  13.749  0.00  0.00    +0.000 HD
ENDROOT
BRANCH   2   5
ATOM      5  C   UNL     1      48.265   7.078  14.054  0.00  0.00    +0.000 A 
ATOM      6  C   UNL     1      48.500   7.998  13.043  0.00  0.00    +0.000 A 
ATOM      7  S   UNL     1      49.491   9.301  13.527  0.00  0.00    +0.000 S 
ATOM      8  C   UNL     1      49.671   8.657  15.092  0.00  0.00    +0.000 A 
ATOM      9  N   UNL     1      50.428   9.289  16.030  0.00  0.00    +0.000 NA
ATOM     10  C   UNL     1      50.501   8.673  17.162  0.00  0.00    +0.000 A 
ATOM     11  N   UNL     1      49.884   7.481  17.443  0.00  0.00    +0.000 N 
ATOM     12  C   UNL     1      49.083   6.822  16.542  0.00  0.00    +0.000 A 
ATOM     13  O   UNL     1      48.501   5.787  16.849  0.00  0.00    +0.000 OA
ATOM     14  C   UNL     1      48.977   7.470  15.248  0.00  0.00    +0.000 A 
ATOM     15  H   UNL     1      49.971   7.057  18.356  0.00  0.00    +0.000 HD
ENDBRANCH   2   5
BRANCH   3  16
ATOM     16  C   UNL     1      45.105   5.117  13.458  0.00  0.00    +0.000 C 
BRANCH  16  17
ATOM     17  C   UNL     1      44.930   4.725  12.017  0.00  0.00    +0.000 A 
ATOM     18  C   UNL     1      45.453   5.522  11.005  0.00  0.00    +0.000 A 
ATOM     19  N   UNL     1      45.356   5.202   9.693  0.00  0.00    +0.000 NA
ATOM     20  C   UNL     1      44.685   4.055   9.407  0.00  0.00    +0.000 A 
ATOM     21  C   UNL     1      44.126   3.280  10.419  0.00  0.00    +0.000 A 
ATOM     22  N   UNL     1      44.241   3.589  11.735  0.00  0.00    +0.000 NA
BRANCH  20  23
ATOM     23  C   UNL     1      44.543   3.667   7.962  0.00  0.00    +0.000 C 
BRANCH  23  24
ATOM     24  C   UNL     1      45.735   2.910   7.431  0.00  0.00    +0.000 A 
ATOM     25  C   UNL     1      46.454   3.394   6.338  0.00  0.00    +0.000 A 
ATOM     26  C   UNL     1      47.537   2.661   5.863  0.00  0.00    +0.000 A 
ATOM     27  C   UNL     1      47.886   1.477   6.499  0.00  0.00    +0.000 A 
ATOM     28  C   UNL     1      47.135   1.074   7.589  0.00  0.00    +0.000 A 
ATOM     29  N   UNL     1      46.068   1.756   8.064  0.00  0.00    +0.000 NA
ENDBRANCH  23  24
ENDBRANCH  20  23
ENDBRANCH  16  17
ENDBRANCH   3  16
TORSDOF 5
ENDMDL
MODEL 8
REMARK VINA RESULT:    -7.336      3.042      7.850
REMARK INTER + INTRA:          -9.877
REMARK INTER:                  -9.120
REMARK INTRA:                  -0.757
REMARK UNBOUND:                -0.396
REMARK  Name = 
REMARK  5 active torsions:
REMARK  status: ('A' for Active; 'I' for Inactive)
REMARK    1  A    between atoms: C_2  and  C_18
REMARK    2  A    between atoms: N_3  and  C_4
REMARK    3  A    between atoms: C_4  and  C_5
REMARK    4  A    between atoms: C_8  and  C_9
REMARK    5  A    between atoms: C_9  and  C_10
REMARK                            x       y       z     vdW  Elec       q    Type
REMARK                         _______ _______ _______ _____ _____    ______ ____
ROOT
ATOM      1  O   UNL     1      45.785   7.744  11.817  0.00  0.00    +0.000 OA
ATOM      2  C   UNL     1      46.307   6.641  11.681  0.00  0.00    +0.000 C 
ATOM      3  N   UNL     1      47.543   6.354  12.191  0.00  0.00    +0.000 N 
ATOM      4  H   UNL     1      47.933   5.423  12.096  0.00  0.00    +0.000 HD
ENDROOT
BRANCH   2   5
ATOM      5  C   UNL     1      45.662   5.566  10.924  0.00  0.00    +0.000 A 
ATOM      6  C   UNL     1      45.738   5.541   9.539  0.00  0.00    +0.000 A 
ATOM      7  S   UNL     1      44.944   4.202   8.839  0.00  0.00    +0.000 S 
ATOM      8  C   UNL     1      44.438   3.634  10.361  0.00  0.00    +0.000 A 
ATOM      9  N   UNL     1      43.686   2.505  10.476  0.00  0.00    +0.000 NA
ATOM     10  C   UNL     1      43.348   2.209  11.687  0.00  0.00    +0.000 A 
ATOM     11  N   UNL     1      43.694   2.939  12.795  0.00  0.00    +0.000 N 
ATOM     12  C   UNL     1      44.477   4.066  12.733  0.00  0.00    +0.000 A 
ATOM     13  O   UNL     1      44.814   4.660  13.752  0.00  0.00    +0.000 OA
ATOM     14  C   UNL     1      44.876   4.447  11.391  0.00  0.00    +0.000 A 
ATOM     15  H   UNL     1      43.407   2.645  13.718  0.00  0.00    +0.000 HD
ENDBRANCH   2   5
BRANCH   3  16
ATOM     16  C   UNL     1      48.282   7.272  13.023  0.00  0.00    +0.000 C 
BRANCH  16  17
ATOM     17  C   UNL     1      48.661   6.675  14.350  0.00  0.00    +0.000 A 
ATOM     18  C   UNL     1      47.853   5.712  14.942  0.00  0.00    +0.000 A 
ATOM     19  N   UNL     1      48.161   5.115  16.118  0.00  0.00    +0.000 NA
ATOM     20  C   UNL     1      49.308   5.532  16.716  0.00  0.00    +0.000 A 
ATOM     21  C   UNL     1      50.095   6.525  16.142  0.00  0.00    +0.000 A 
ATOM     22  N   UNL     1      49.799   7.109  14.954  0.00  0.00    +0.000 NA
BRANCH  20  23
ATOM     23  C   UNL     1      49.683   4.904  18.029  0.00  0.00    +0.000 C 
BRANCH  23  24
ATOM     24  C   UNL     1      50.619   3.730  17.880  0.00  0.00    +0.000 A 
ATOM     25  C   UNL     1      51.932   3.806  18.343  0.00  0.00    +0.000 A 
ATOM     26  C   UNL     1      52.773   2.711  18.174  0.00  0.00    +0.000 A 
ATOM     27  C   UNL     1      52.280   1.565  17.566  0.00  0.00    +0.000 A 
ATOM     28  C   UNL     1      50.959   1.561  17.151  0.00  0.00    +0.000 A 
ATOM     29  N   UNL     1      50.122   2.614  17.288  0.00  0.00    +0.000 NA
ENDBRANCH  23  24
ENDBRANCH  20  23
ENDBRANCH  16  17
ENDBRANCH   3  16
TORSDOF 5
ENDMDL
MODEL 9
REMARK VINA RESULT:    -7.314      2.018      2.806
REMARK INTER + INTRA:          -9.848
REMARK INTER:                  -8.976
REMARK INTRA:                  -0.872
REMARK UNBOUND:                -0.396
REMARK  Name = 
REMARK  5 active torsions:
REMARK  status: ('A' for Active; 'I' for Inactive)
REMARK    1  A    between atoms: C_2  and  C_18
REMARK    2  A    between atoms: N_3  and  C_4
REMARK    3  A    between atoms: C_4  and  C_5
REMARK    4  A    between atoms: C_8  and  C_9
REMARK    5  A    between atoms: C_9  and  C_10
REMARK                            x       y       z     vdW  Elec       q    Type
REMARK                         _______ _______ _______ _____ _____    ______ ____
ROOT
ATOM      1  O   UNL     1      48.956   9.992  14.640  0.00  0.00    +0.000 OA
ATOM      2  C   UNL     1      48.198   9.193  15.183  0.00  0.00    +0.000 C 
ATOM      3  N   UNL     1      47.146   8.623  14.521  0.00  0.00    +0.000 N 
ATOM      4  H   UNL     1      46.560   7.938  14.983  0.00  0.00    +0.000 HD
ENDROOT
BRANCH   2   5
ATOM      5  C   UNL     1      48.339   8.827  16.594  0.00  0.00    +0.000 A 
ATOM      6  C   UNL     1      48.133   9.772  17.588  0.00  0.00    +0.000 A 
ATOM      7  S   UNL     1      48.323   9.152  19.166  0.00  0.00    +0.000 S 
ATOM      8  C   UNL     1      48.726   7.608  18.573  0.00  0.00    +0.000 A 
ATOM      9  N   UNL     1      49.026   6.586  19.419  0.00  0.00    +0.000 NA
ATOM     10  C   UNL     1      49.344   5.481  18.831  0.00  0.00    +0.000 A 
ATOM     11  N   UNL     1      49.388   5.305  17.472  0.00  0.00    +0.000 N 
ATOM     12  C   UNL     1      49.062   6.296  16.578  0.00  0.00    +0.000 A 
ATOM     13  O   UNL     1      49.057   6.084  15.370  0.00  0.00    +0.000 OA
ATOM     14  C   UNL     1      48.707   7.563  17.190  0.00  0.00    +0.000 A 
ATOM     15  H   UNL     1      49.632   4.408  17.074  0.00  0.00    +0.000 HD
ENDBRANCH   2   5
BRANCH   3  16
ATOM     16  C   UNL     1      46.907   8.818  13.111  0.00  0.00    +0.000 C 
BRANCH  16  17
ATOM     17  C   UNL     1      46.164   7.669  12.486  0.00  0.00    +0.000 A 
ATOM     18  C   UNL     1      44.991   7.896  11.775  0.00  0.00    +0.000 A 
ATOM     19  N   UNL     1      44.299   6.907  11.163  0.00  0.00    +0.000 NA
ATOM     20  C   UNL     1      44.803   5.653  11.303  0.00  0.00    +0.000 A 
ATOM     21  C   UNL     1      45.955   5.421  12.048  0.00  0.00    +0.000 A 
ATOM     22  N   UNL     1      46.661   6.414  12.645  0.00  0.00    +0.000 NA
BRANCH  20  23
ATOM     23  C   UNL     1      44.061   4.521  10.648  0.00  0.00    +0.000 C 
BRANCH  23  24
ATOM     24  C   UNL     1      44.861   3.830   9.571  0.00  0.00    +0.000 A 
ATOM     25  C   UNL     1      44.986   2.441   9.562  0.00  0.00    +0.000 A 
ATOM     26  C   UNL     1      45.746   1.837   8.565  0.00  0.00    +0.000 A 
ATOM     27  C   UNL     1      46.344   2.630   7.595  0.00  0.00    +0.000 A 
ATOM     28  C   UNL     1      46.156   4.000   7.662  0.00  0.00    +0.000 A 
ATOM     29  N   UNL     1      45.437   4.617   8.627  0.00  0.00    +0.000 NA
ENDBRANCH  23  24
ENDBRANCH  20  23
ENDBRANCH  16  17
ENDBRANCH   3  16
TORSDOF 5
ENDMDL
