MODEL 1
REMARK VINA RESULT:    -8.649      0.000      0.000
REMARK INTER + INTRA:         -11.275
REMARK INTER:                 -11.177
REMARK INTRA:                  -0.097
REMARK UNBOUND:                -0.097
REMARK  Name = 
REMARK  6 active torsions:
REMARK  status: ('A' for Active; 'I' for Inactive)
REMARK    1  A    between atoms: C_1  and  C_2
REMARK    2  A    between atoms: C_2  and  N_3
REMARK    3  A    between atoms: C_2  and  C_16
REMARK    4  A    between atoms: C_4  and  C_6
REMARK    5  A    between atoms: C_19  and  O_20
REMARK    6  A    between atoms: O_20  and  C_21
REMARK                            x       y       z     vdW  Elec       q    Type
REMARK                         _______ _______ _______ _____ _____    ______ ____
ROOT
ATOM      1  C   UNL     1      46.850   8.393  12.102  0.00  0.00    +0.000 C 
ATOM      2  C   UNL     1      46.051   7.298  12.809  0.00  0.00    +0.000 C 
ENDROOT
BRANCH   2   3
ATOM      3  C   UNL     1      45.752   6.139  11.868  0.00  0.00    +0.000 A 
ATOM      4  C   UNL     1      46.056   6.264  10.514  0.00  0.00    +0.000 A 
ATOM      5  C   UNL     1      45.693   5.241   9.645  0.00  0.00    +0.000 A 
ATOM      6  C   UNL     1      45.064   4.103  10.142  0.00  0.00    +0.000 A 
ATOM      7  C   UNL     1      44.763   4.074  11.494  0.00  0.00    +0.000 A 
ATOM      8  N   UNL     1      45.084   5.063  12.363  0.00  0.00    +0.000 NA
BRANCH   6   9
ATOM      9  O   UNL     1      44.647   3.045   9.373  0.00  0.00    +0.000 OA
BRANCH   9  10
ATOM     10  C   UNL     1      45.510   2.576   8.390  0.00  0.00    +0.000 A 
ATOM     11  C   UNL     1      45.727   3.409   7.303  0.00  0.00    +0.000 A 
ATOM     12  C   UNL     1      46.608   2.982   6.313  0.00  0.00    +0.000 A 
ATOM     13  C   UNL     1      47.231   1.744   6.442  0.00  0.00    +0.000 A 
ATOM     14  C   UNL     1      46.931   0.971   7.551  0.00  0.00    +0.000 A 
ATOM     15  N   UNL     1      46.073   1.352   8.517  0.00  0.00    +0.000 NA
ENDBRANCH   9  10
ENDBRANCH   6   9
ENDBRANCH   2   3
BRANCH   2  16
ATOM     16  N   UNL     1      46.761   6.787  13.972  0.00  0.00    +0.000 N 
ATOM     17  C   UNL     1      48.099   6.502  13.986  0.00  0.00    +0.000 C 
ATOM     18  O   UNL     1      48.784   6.586  12.972  0.00  0.00    +0.000 OA
ATOM     19  H   UNL     1      46.206   6.732  14.821  0.00  0.00    +0.000 HD
BRANCH  17  20
ATOM     20  C   UNL     1      48.683   6.095  15.277  0.00  0.00    +0.000 A 
ATOM     21  C   UNL     1      49.758   6.812  15.795  0.00  0.00    +0.000 A 
ATOM     22  S   UNL     1      50.348   6.206  17.273  0.00  0.00    +0.000 S 
ATOM     23  C   UNL     1      49.199   4.953  17.280  0.00  0.00    +0.000 A 
ATOM     24  N   UNL     1      49.186   4.026  18.277  0.00  0.00    +0.000 NA
ATOM     25  C   UNL     1      48.273   3.121  18.152  0.00  0.00    +0.000 A 
ATOM     26  N   UNL     1      47.358   3.074  17.135  0.00  0.00    +0.000 N 
ATOM     27  C   UNL     1      47.297   4.021  16.143  0.00  0.00    +0.000 A 
ATOM     28  O   UNL     1      46.400   3.999  15.307  0.00  0.00    +0.000 OA
ATOM     29  C   UNL     1      48.346   5.023  16.190  0.00  0.00    +0.000 A 
ATOM     30  H   UNL     1      46.646   2.359  17.108  0.00  0.00    +0.000 HD
ENDBRANCH  17  20
ENDBRANCH   2  16
TORSDOF 5
ENDMDL
MODEL 2
REMARK VINA RESULT:    -7.990      1.744      2.238
REMARK INTER + INTRA:         -10.423
REMARK INTER:                  -9.242
REMARK INTRA:                  -1.181
REMARK UNBOUND:                -0.097
REMARK  Name = 
REMARK  6 active torsions:
REMARK  status: ('A' for Active; 'I' for Inactive)
REMARK    1  A    between atoms: C_1  and  C_2
REMARK    2  A    between atoms: C_2  and  N_3
REMARK    3  A    between atoms: C_2  and  C_16
REMARK    4  A    between atoms: C_4  and  C_6
REMARK    5  A    between atoms: C_19  and  O_20
REMARK    6  A    between atoms: O_20  and  C_21
REMARK                            x       y       z     vdW  Elec       q    Type
REMARK                         _______ _______ _______ _____ _____    ______ ____
ROOT
ATOM      1  C   UNL     1      48.131   9.205  13.022  0.00  0.00    +0.000 C 
ATOM      2  C   UNL     1      47.413   8.165  13.883  0.00  0.00    +0.000 C 
ENDROOT
BRANCH   2   3
ATOM      3  C   UNL     1      46.538   7.255  13.032  0.00  0.00    +0.000 A 
ATOM      4  C   UNL     1      46.782   5.884  13.026  0.00  0.00    +0.000 A 
ATOM      5  C   UNL     1      46.043   5.071  12.174  0.00  0.00    +0.000 A 
ATOM      6  C   UNL     1      45.055   5.631  11.370  0.00  0.00    +0.000 A 
ATOM      7  C   UNL     1      44.901   7.007  11.408  0.00  0.00    +0.000 A 
ATOM      8  N   UNL     1      45.619   7.830  12.209  0.00  0.00    +0.000 NA
BRANCH   6   9
ATOM      9  O   UNL     1      44.280   4.926  10.482  0.00  0.00    +0.000 OA
BRANCH   9  10
ATOM     10  C   UNL     1      44.926   4.116   9.556  0.00  0.00    +0.000 A 
ATOM     11  C   UNL     1      44.793   2.746   9.727  0.00  0.00    +0.000 A 
ATOM     12  C   UNL     1      45.405   1.907   8.800  0.00  0.00    +0.000 A 
ATOM     13  C   UNL     1      46.126   2.463   7.747  0.00  0.00    +0.000 A 
ATOM     14  C   UNL     1      46.225   3.842   7.675  0.00  0.00    +0.000 A 
ATOM     15  N   UNL     1      45.655   4.678   8.565  0.00  0.00    +0.000 NA
ENDBRANCH   9  10
ENDBRANCH   6   9
ENDBRANCH   2   3
BRANCH   2  16
ATOM     16  N   UNL     1      48.358   7.346  14.628  0.00  0.00    +0.000 N 
ATOM     17  C   UNL     1      48.750   7.608  15.911  0.00  0.00    +0.000 C 
ATOM     18  O   UNL     1      48.384   8.620  16.501  0.00  0.00    +0.000 OA
ATOM     19  H   UNL     1      48.651   6.496  14.154  0.00  0.00    +0.000 HD
BRANCH  17  20
ATOM     20  C   UNL     1      49.630   6.617  16.558  0.00  0.00    +0.000 A 
ATOM     21  C   UNL     1      50.897   7.005  16.983  0.00  0.00    +0.000 A 
ATOM     22  S   UNL     1      51.810   5.748  17.680  0.00  0.00    +0.000 S 
ATOM     23  C   UNL     1      50.554   4.628  17.436  0.00  0.00    +0.000 A 
ATOM     24  N   UNL     1      50.710   3.321  17.782  0.00  0.00    +0.000 NA
ATOM     25  C   UNL     1      49.686   2.576  17.528  0.00  0.00    +0.000 A 
ATOM     26  N   UNL     1      48.513   3.025  16.983  0.00  0.00    +0.000 N 
ATOM     27  C   UNL     1      48.291   4.344  16.675  0.00  0.00    +0.000 A 
ATOM     28  O   UNL     1      47.193   4.722  16.283  0.00  0.00    +0.000 OA
ATOM     29  C   UNL     1      49.435   5.217  16.870  0.00  0.00    +0.000 A 
ATOM     30  H   UNL     1      47.734   2.400  16.838  0.00  0.00    +0.000 HD
ENDBRANCH  17  20
ENDBRANCH   2  16
TORSDOF 5
ENDMDL
MODEL 3
REMARK VINA RESULT:    -7.872      2.989      3.897
REMARK INTER + INTRA:         -10.271
REMARK INTER:                  -9.267
REMARK INTRA:                  -1.004
REMARK UNBOUND:                -0.097
REMARK  Name = 
REMARK  6 active torsions:
REMARK  status: ('A' for Active; 'I' for Inactive)
REMARK    1  A    between atoms: C_1  and  C_2
REMARK    2  A    between atoms: C_2  and  N_3
REMARK    3  A    between atoms: C_2  and  C_16
REMARK    4  A    between atoms: C_4  and  C_6
REMARK    5  A    between atoms: C_19  and  O_20
REMARK    6  A    between atoms: O_20  and  C_21
REMARK                            x       y       z     vdW  Elec       q    Type
REMARK                         _______ _______ _______ _____ _____    ______ ____
ROOT
ATOM      1  C   UNL     1      47.284   3.728  16.537  0.00  0.00    +0.000 C 
ATOM      2  C   UNL     1      47.824   4.653  15.446  0.00  0.00    +0.000 C 
ENDROOT
BRANCH   2   3
ATOM      3  C   UNL     1      46.985   4.557  14.177  0.00  0.00    +0.000 A 
ATOM      4  C   UNL     1      46.568   5.725  13.545  0.00  0.00    +0.000 A 
ATOM      5  C   UNL     1      45.724   5.632  12.444  0.00  0.00    +0.000 A 
ATOM      6  C   UNL     1      45.338   4.379  11.975  0.00  0.00    +0.000 A 
ATOM      7  C   UNL     1      45.766   3.269  12.683  0.00  0.00    +0.000 A 
ATOM      8  N   UNL     1      46.570   3.326  13.772  0.00  0.00    +0.000 NA
BRANCH   6   9
ATOM      9  O   UNL     1      44.496   4.173  10.910  0.00  0.00    +0.000 OA
BRANCH   9  10
ATOM     10  C   UNL     1      45.037   3.635   9.749  0.00  0.00    +0.000 A 
ATOM     11  C   UNL     1      45.540   4.535   8.821  0.00  0.00    +0.000 A 
ATOM     12  C   UNL     1      46.114   4.028   7.659  0.00  0.00    +0.000 A 
ATOM     13  C   UNL     1      46.159   2.650   7.464  0.00  0.00    +0.000 A 
ATOM     14  C   UNL     1      45.606   1.832   8.435  0.00  0.00    +0.000 A 
ATOM     15  N   UNL     1      45.032   2.295   9.563  0.00  0.00    +0.000 NA
ENDBRANCH   9  10
ENDBRANCH   6   9
ENDBRANCH   2   3
BRANCH   2  16
ATOM     16  N   UNL     1      47.849   6.039  15.887  0.00  0.00    +0.000 N 
ATOM     17  C   UNL     1      48.995   6.768  16.048  0.00  0.00    +0.000 C 
ATOM     18  O   UNL     1      50.104   6.262  15.905  0.00  0.00    +0.000 OA
ATOM     19  H   UNL     1      46.936   6.472  15.989  0.00  0.00    +0.000 HD
BRANCH  17  20
ATOM     20  C   UNL     1      48.840   8.192  16.396  0.00  0.00    +0.000 A 
ATOM     21  C   UNL     1      49.333   9.164  15.530  0.00  0.00    +0.000 A 
ATOM     22  S   UNL     1      49.111  10.760  16.079  0.00  0.00    +0.000 S 
ATOM     23  C   UNL     1      48.354  10.222  17.504  0.00  0.00    +0.000 A 
ATOM     24  N   UNL     1      47.945  11.109  18.452  0.00  0.00    +0.000 NA
ATOM     25  C   UNL     1      47.400  10.567  19.490  0.00  0.00    +0.000 A 
ATOM     26  N   UNL     1      47.205   9.221  19.653  0.00  0.00    +0.000 N 
ATOM     27  C   UNL     1      47.547   8.298  18.696  0.00  0.00    +0.000 A 
ATOM     28  O   UNL     1      47.264   7.113  18.837  0.00  0.00    +0.000 OA
ATOM     29  C   UNL     1      48.232   8.843  17.538  0.00  0.00    +0.000 A 
ATOM     30  H   UNL     1      46.743   8.858  20.473  0.00  0.00    +0.000 HD
ENDBRANCH  17  20
ENDBRANCH   2  16
TORSDOF 5
ENDMDL
MODEL 4
REMARK VINA RESULT:    -7.358      3.591      7.859
REMARK INTER + INTRA:          -9.606
REMARK INTER:                  -8.517
REMARK INTRA:                  -1.089
REMARK UNBOUND:                -0.097
REMARK  Name = 
REMARK  6 active torsions:
REMARK  status: ('A' for Active; 'I' for Inactive)
REMARK    1  A    between atoms: C_1  and  C_2
REMARK    2  A    between atoms: C_2  and  N_3
REMARK    3  A    between atoms: C_2  and  C_16
REMARK    4  A    between atoms: C_4  and  C_6
REMARK    5  A    between atoms: C_19  and  O_20
REMARK    6  A    between atoms: O_20  and  C_21
REMARK                            x       y       z     vdW  Elec       q    Type
REMARK                         _______ _______ _______ _____ _____    ______ ____
ROOT
ATOM      1  C   UNL     1      48.508   8.956  14.920  0.00  0.00    +0.000 C 
ATOM      2  C   UNL     1      48.590   7.512  14.425  0.00  0.00    +0.000 C 
ENDROOT
BRANCH   2   3
ATOM      3  C   UNL     1      48.982   6.565  15.551  0.00  0.00    +0.000 A 
ATOM      4  C   UNL     1      50.215   6.725  16.179  0.00  0.00    +0.000 A 
ATOM      5  C   UNL     1      50.608   5.799  17.139  0.00  0.00    +0.000 A 
ATOM      6  C   UNL     1      49.755   4.753  17.479  0.00  0.00    +0.000 A 
ATOM      7  C   UNL     1      48.563   4.644  16.781  0.00  0.00    +0.000 A 
ATOM      8  N   UNL     1      48.161   5.515  15.825  0.00  0.00    +0.000 NA
BRANCH   6   9
ATOM      9  O   UNL     1      50.049   3.776  18.398  0.00  0.00    +0.000 OA
BRANCH   9  10
ATOM     10  C   UNL     1      51.169   2.985  18.171  0.00  0.00    +0.000 A 
ATOM     11  C   UNL     1      50.972   1.819  17.448  0.00  0.00    +0.000 A 
ATOM     12  C   UNL     1      52.078   1.018  17.180  0.00  0.00    +0.000 A 
ATOM     13  C   UNL     1      53.331   1.407  17.644  0.00  0.00    +0.000 A 
ATOM     14  C   UNL     1      53.425   2.575  18.381  0.00  0.00    +0.000 A 
ATOM     15  N   UNL     1      52.370   3.363  18.668  0.00  0.00    +0.000 NA
ENDBRANCH   9  10
ENDBRANCH   6   9
ENDBRANCH   2   3
BRANCH   2  16
ATOM     16  N   UNL     1      47.323   7.070  13.860  0.00  0.00    +0.000 N 
ATOM     17  C   UNL     1      47.025   7.114  12.526  0.00  0.00    +0.000 C 
ATOM     18  O   UNL     1      47.794   7.616  11.712  0.00  0.00    +0.000 OA
ATOM     19  H   UNL     1      46.689   6.635  14.524  0.00  0.00    +0.000 HD
BRANCH  17  20
ATOM     20  C   UNL     1      45.740   6.526  12.107  0.00  0.00    +0.000 A 
ATOM     21  C   UNL     1      44.798   7.329  11.470  0.00  0.00    +0.000 A 
ATOM     22  S   UNL     1      43.351   6.522  11.076  0.00  0.00    +0.000 S 
ATOM     23  C   UNL     1      43.917   5.066  11.749  0.00  0.00    +0.000 A 
ATOM     24  N   UNL     1      43.126   3.959  11.777  0.00  0.00    +0.000 NA
ATOM     25  C   UNL     1      43.671   2.927  12.331  0.00  0.00    +0.000 A 
ATOM     26  N   UNL     1      44.944   2.897  12.835  0.00  0.00    +0.000 N 
ATOM     27  C   UNL     1      45.796   3.972  12.773  0.00  0.00    +0.000 A 
ATOM     28  O   UNL     1      46.960   3.873  13.146  0.00  0.00    +0.000 OA
ATOM     29  C   UNL     1      45.211   5.184  12.228  0.00  0.00    +0.000 A 
ATOM     30  H   UNL     1      45.328   2.050  13.227  0.00  0.00    +0.000 HD
ENDBRANCH  17  20
ENDBRANCH   2  16
TORSDOF 5
ENDMDL
MODEL 5
REMARK VINA RESULT:    -7.347      3.751      8.146
REMARK INTER + INTRA:          -9.592
REMARK INTER:                  -8.444
REMARK INTRA:                  -1.147
REMARK UNBOUND:                -0.097
REMARK  Name = 
REMARK  6 active torsions:
REMARK  status: ('A' for Active; 'I' for Inactive)
REMARK    1  A    between atoms: C_1  and  C_2
REMARK    2  A    between atoms: C_2  and  N_3
REMARK    3  A    between atoms: C_2  and  C_16
REMARK    4  A    between atoms: C_4  and  C_6
REMARK    5  A    between atoms: C_19  and  O_20
REMARK    6  A    between atoms: O_20  and  C_21
REMARK                            x       y       z     vdW  Elec       q    Type
REMARK                         _______ _______ _______ _____ _____    ______ ____
ROOT
ATOM      1  C   UNL     1      48.259   9.398  15.594  0.00  0.00    +0.000 C 
ATOM      2  C   UNL     1      48.777   8.098  14.980  0.00  0.00    +0.000 C 
ENDROOT
BRANCH   2   3
ATOM      3  C   UNL     1      49.493   7.244  16.018  0.00  0.00    +0.000 A 
ATOM      4  C   UNL     1      50.858   7.003  15.879  0.00  0.00    +0.000 A 
ATOM      5  C   UNL     1      51.486   6.145  16.776  0.00  0.00    +0.000 A 
ATOM      6  C   UNL     1      50.752   5.571  17.811  0.00  0.00    +0.000 A 
ATOM      7  C   UNL     1      49.393   5.833  17.856  0.00  0.00    +0.000 A 
ATOM      8  N   UNL     1      48.747   6.646  16.985  0.00  0.00    +0.000 NA
BRANCH   6   9
ATOM      9  O   UNL     1      51.266   4.699  18.739  0.00  0.00    +0.000 OA
BRANCH   9  10
ATOM     10  C   UNL     1      51.691   3.453  18.295  0.00  0.00    +0.000 A 
ATOM     11  C   UNL     1      53.032   3.150  18.479  0.00  0.00    +0.000 A 
ATOM     12  C   UNL     1      53.484   1.899  18.071  0.00  0.00    +0.000 A 
ATOM     13  C   UNL     1      52.588   1.004  17.492  0.00  0.00    +0.000 A 
ATOM     14  C   UNL     1      51.274   1.407  17.326  0.00  0.00    +0.000 A 
ATOM     15  N   UNL     1      50.811   2.616  17.699  0.00  0.00    +0.000 NA
ENDBRANCH   9  10
ENDBRANCH   6   9
ENDBRANCH   2   3
BRANCH   2  16
ATOM     16  N   UNL     1      47.697   7.317  14.396  0.00  0.00    +0.000 N 
ATOM     17  C   UNL     1      47.869   6.407  13.389  0.00  0.00    +0.000 C 
ATOM     18  O   UNL     1      48.959   6.246  12.848  0.00  0.00    +0.000 OA
ATOM     19  H   UNL     1      46.795   7.429  14.850  0.00  0.00    +0.000 HD
BRANCH  17  20
ATOM     20  C   UNL     1      46.688   5.621  12.987  0.00  0.00    +0.000 A 
ATOM     21  C   UNL     1      46.695   4.241  13.164  0.00  0.00    +0.000 A 
ATOM     22  S   UNL     1      45.280   3.465  12.623  0.00  0.00    +0.000 S 
ATOM     23  C   UNL     1      44.599   4.940  12.119  0.00  0.00    +0.000 A 
ATOM     24  N   UNL     1      43.380   4.973  11.514  0.00  0.00    +0.000 NA
ATOM     25  C   UNL     1      42.989   6.155  11.167  0.00  0.00    +0.000 A 
ATOM     26  N   UNL     1      43.695   7.306  11.394  0.00  0.00    +0.000 N 
ATOM     27  C   UNL     1      44.899   7.324  12.054  0.00  0.00    +0.000 A 
ATOM     28  O   UNL     1      45.450   8.385  12.325  0.00  0.00    +0.000 OA
ATOM     29  C   UNL     1      45.424   6.016  12.402  0.00  0.00    +0.000 A 
ATOM     30  H   UNL     1      43.322   8.206  11.129  0.00  0.00    +0.000 HD
ENDBRANCH  17  20
ENDBRANCH   2  16
TORSDOF 5
ENDMDL
MODEL 6
REMARK VINA RESULT:    -7.340      1.481      2.219
REMARK INTER + INTRA:          -9.582
REMARK INTER:                 -10.138
REMARK INTRA:                   0.556
REMARK UNBOUND:                -0.097
REMARK  Name = 
REMARK  6 active torsions:
REMARK  status: ('A' for Active; 'I' for Inactive)
REMARK    1  A    between atoms: C_1  and  C_2
REMARK    2  A    between atoms: C_2  and  N_3
REMARK    3  A    between atoms: C_2  and  C_16
REMARK    4  A    between atoms: C_4  and  C_6
REMARK    5  A    between atoms: C_19  and  O_20
REMARK    6  A    between atoms: O_20  and  C_21
REMARK                            x       y       z     vdW  Elec       q    Type
REMARK                         _______ _______ _______ _____ _____    ______ ____
ROOT
ATOM      1  C   UNL     1      46.362   7.824  11.975  0.00  0.00    +0.000 C 
ATOM      2  C   UNL     1      45.390   6.823  12.599  0.00  0.00    +0.000 C 
ENDROOT
BRANCH   2   3
ATOM      3  C   UNL     1      45.019   5.725  11.611  0.00  0.00    +0.000 A 
ATOM      4  C   UNL     1      44.106   4.744  11.992  0.00  0.00    +0.000 A 
ATOM      5  C   UNL     1      43.845   3.692  11.121  0.00  0.00    +0.000 A 
ATOM      6  C   UNL     1      44.470   3.653   9.878  0.00  0.00    +0.000 A 
ATOM      7  C   UNL     1      45.391   4.647   9.591  0.00  0.00    +0.000 A 
ATOM      8  N   UNL     1      45.685   5.673  10.426  0.00  0.00    +0.000 NA
BRANCH   6   9
ATOM      9  O   UNL     1      44.298   2.655   8.951  0.00  0.00    +0.000 OA
BRANCH   9  10
ATOM     10  C   UNL     1      45.361   2.363   8.105  0.00  0.00    +0.000 A 
ATOM     11  C   UNL     1      45.619   3.273   7.092  0.00  0.00    +0.000 A 
ATOM     12  C   UNL     1      46.694   3.024   6.244  0.00  0.00    +0.000 A 
ATOM     13  C   UNL     1      47.463   1.880   6.434  0.00  0.00    +0.000 A 
ATOM     14  C   UNL     1      47.112   1.016   7.457  0.00  0.00    +0.000 A 
ATOM     15  N   UNL     1      46.069   1.224   8.285  0.00  0.00    +0.000 NA
ENDBRANCH   9  10
ENDBRANCH   6   9
ENDBRANCH   2   3
BRANCH   2  16
ATOM     16  N   UNL     1      45.952   6.208  13.793  0.00  0.00    +0.000 N 
ATOM     17  C   UNL     1      46.989   5.317  13.777  0.00  0.00    +0.000 C 
ATOM     18  O   UNL     1      47.469   4.908  12.725  0.00  0.00    +0.000 OA
ATOM     19  H   UNL     1      45.574   6.555  14.670  0.00  0.00    +0.000 HD
BRANCH  17  20
ATOM     20  C   UNL     1      47.510   4.872  15.083  0.00  0.00    +0.000 A 
ATOM     21  C   UNL     1      47.279   3.564  15.499  0.00  0.00    +0.000 A 
ATOM     22  S   UNL     1      47.909   3.205  17.040  0.00  0.00    +0.000 S 
ATOM     23  C   UNL     1      48.510   4.786  17.222  0.00  0.00    +0.000 A 
ATOM     24  N   UNL     1      49.140   5.163  18.368  0.00  0.00    +0.000 NA
ATOM     25  C   UNL     1      49.532   6.394  18.380  0.00  0.00    +0.000 A 
ATOM     26  N   UNL     1      49.374   7.272  17.341  0.00  0.00    +0.000 N 
ATOM     27  C   UNL     1      48.799   6.916  16.146  0.00  0.00    +0.000 A 
ATOM     28  O   UNL     1      48.767   7.702  15.206  0.00  0.00    +0.000 OA
ATOM     29  C   UNL     1      48.272   5.564  16.101  0.00  0.00    +0.000 A 
ATOM     30  H   UNL     1      49.731   8.214  17.398  0.00  0.00    +0.000 HD
ENDBRANCH  17  20
ENDBRANCH   2  16
TORSDOF 5
ENDMDL
MODEL 7
REMARK VINA RESULT:    -7.244      3.254      5.707
REMARK INTER + INTRA:          -9.458
REMARK INTER:                  -8.527
REMARK INTRA:                  -0.931
REMARK UNBOUND:                -0.097
REMARK  Name = 
REMARK  6 active torsions:
REMARK  status: ('A' for Active; 'I' for Inactive)
REMARK    1  A    between atoms: C_1  and  C_2
REMARK    2  A    between atoms: C_2  and  N_3
REMARK    3  A    between atoms: C_2  and  C_16
REMARK    4  A    between atoms: C_4  and  C_6
REMARK    5  A    between atoms: C_19  and  O_20
REMARK    6  A    between atoms: O_20  and  C_21
REMARK                            x       y       z     vdW  Elec       q    Type
REMARK                         _______ _______ _______ _____ _____    ______ ____
ROOT
ATOM      1  C   UNL     1      47.239   2.723  18.105  0.00  0.00    +0.000 C 
ATOM      2  C   UNL     1      48.299   2.692  17.004  0.00  0.00    +0.000 C 
ENDROOT
BRANCH   2   3
ATOM      3  C   UNL     1      47.886   3.552  15.816  0.00  0.00    +0.000 A 
ATOM      4  C   UNL     1      47.807   4.934  15.970  0.00  0.00    +0.000 A 
ATOM      5  C   UNL     1      47.337   5.704  14.912  0.00  0.00    +0.000 A 
ATOM      6  C   UNL     1      46.987   5.090  13.713  0.00  0.00    +0.000 A 
ATOM      7  C   UNL     1      47.060   3.708  13.655  0.00  0.00    +0.000 A 
ATOM      8  N   UNL     1      47.492   2.927  14.675  0.00  0.00    +0.000 NA
BRANCH   6   9
ATOM      9  O   UNL     1      46.497   5.750  12.614  0.00  0.00    +0.000 OA
BRANCH   9  10
ATOM     10  C   UNL     1      45.170   5.533  12.262  0.00  0.00    +0.000 A 
ATOM     11  C   UNL     1      44.924   5.190  10.942  0.00  0.00    +0.000 A 
ATOM     12  C   UNL     1      43.608   4.939  10.564  0.00  0.00    +0.000 A 
ATOM     13  C   UNL     1      42.593   5.044  11.510  0.00  0.00    +0.000 A 
ATOM     14  C   UNL     1      42.934   5.419  12.799  0.00  0.00    +0.000 A 
ATOM     15  N   UNL     1      44.197   5.682  13.190  0.00  0.00    +0.000 NA
ENDBRANCH   9  10
ENDBRANCH   6   9
ENDBRANCH   2   3
BRANCH   2  16
ATOM     16  N   UNL     1      49.589   3.156  17.493  0.00  0.00    +0.000 N 
ATOM     17  C   UNL     1      50.762   2.474  17.319  0.00  0.00    +0.000 C 
ATOM     18  O   UNL     1      50.788   1.363  16.798  0.00  0.00    +0.000 OA
ATOM     19  H   UNL     1      49.580   4.082  17.908  0.00  0.00    +0.000 HD
BRANCH  17  20
ATOM     20  C   UNL     1      51.996   3.135  17.781  0.00  0.00    +0.000 A 
ATOM     21  C   UNL     1      52.972   2.383  18.428  0.00  0.00    +0.000 A 
ATOM     22  S   UNL     1      54.324   3.286  18.933  0.00  0.00    +0.000 S 
ATOM     23  C   UNL     1      53.659   4.726  18.317  0.00  0.00    +0.000 A 
ATOM     24  N   UNL     1      54.311   5.911  18.462  0.00  0.00    +0.000 NA
ATOM     25  C   UNL     1      53.689   6.927  17.963  0.00  0.00    +0.000 A 
ATOM     26  N   UNL     1      52.487   6.860  17.310  0.00  0.00    +0.000 N 
ATOM     27  C   UNL     1      51.825   5.678  17.089  0.00  0.00    +0.000 A 
ATOM     28  O   UNL     1      50.802   5.647  16.414  0.00  0.00    +0.000 OA
ATOM     29  C   UNL     1      52.441   4.510  17.693  0.00  0.00    +0.000 A 
ATOM     30  H   UNL     1      52.064   7.685  16.912  0.00  0.00    +0.000 HD
ENDBRANCH  17  20
ENDBRANCH   2  16
TORSDOF 5
ENDMDL
MODEL 8
REMARK VINA RESULT:    -6.925      2.966      3.919
REMARK INTER + INTRA:          -9.046
REMARK INTER:                  -7.982
REMARK INTRA:                  -1.064
REMARK UNBOUND:                -0.097
REMARK  Name = 
REMARK  6 active torsions:
REMARK  status: ('A' for Active; 'I' for Inactive)
REMARK    1  A    between atoms: C_1  and  C_2
REMARK    2  A    between atoms: C_2  and  N_3
REMARK    3  A    between atoms: C_2  and  C_16
REMARK    4  A    between atoms: C_4  and  C_6
REMARK    5  A    between atoms: C_19  and  O_20
REMARK    6  A    between atoms: O_20  and  C_21
REMARK                            x       y       z     vdW  Elec       q    Type
REMARK                         _______ _______ _______ _____ _____    ______ ____
ROOT
ATOM      1  C   UNL     1      50.518   7.938  11.299  0.00  0.00    +0.000 C 
ATOM      2  C   UNL     1      49.896   8.101  12.685  0.00  0.00    +0.000 C 
ENDROOT
BRANCH   2   3
ATOM      3  C   UNL     1      48.465   7.579  12.713  0.00  0.00    +0.000 A 
ATOM      4  C   UNL     1      47.424   8.420  12.329  0.00  0.00    +0.000 A 
ATOM      5  C   UNL     1      46.114   7.969  12.448  0.00  0.00    +0.000 A 
ATOM      6  C   UNL     1      45.867   6.681  12.914  0.00  0.00    +0.000 A 
ATOM      7  C   UNL     1      46.956   5.922  13.309  0.00  0.00    +0.000 A 
ATOM      8  N   UNL     1      48.242   6.339  13.227  0.00  0.00    +0.000 NA
BRANCH   6   9
ATOM      9  O   UNL     1      44.616   6.142  13.087  0.00  0.00    +0.000 OA
BRANCH   9  10
ATOM     10  C   UNL     1      44.287   5.012  12.348  0.00  0.00    +0.000 A 
ATOM     11  C   UNL     1      44.359   5.127  10.968  0.00  0.00    +0.000 A 
ATOM     12  C   UNL     1      44.063   4.006  10.199  0.00  0.00    +0.000 A 
ATOM     13  C   UNL     1      43.703   2.819  10.832  0.00  0.00    +0.000 A 
ATOM     14  C   UNL     1      43.634   2.809  12.215  0.00  0.00    +0.000 A 
ATOM     15  N   UNL     1      43.901   3.882  12.984  0.00  0.00    +0.000 NA
ENDBRANCH   9  10
ENDBRANCH   6   9
ENDBRANCH   2   3
BRANCH   2  16
ATOM     16  N   UNL     1      50.669   7.404  13.702  0.00  0.00    +0.000 N 
ATOM     17  C   UNL     1      50.960   7.926  14.933  0.00  0.00    +0.000 C 
ATOM     18  O   UNL     1      50.647   9.073  15.234  0.00  0.00    +0.000 OA
ATOM     19  H   UNL     1      50.915   6.446  13.469  0.00  0.00    +0.000 HD
BRANCH  17  20
ATOM     20  C   UNL     1      51.660   7.045  15.885  0.00  0.00    +0.000 A 
ATOM     21  C   UNL     1      53.045   7.129  16.000  0.00  0.00    +0.000 A 
ATOM     22  S   UNL     1      53.717   6.029  17.112  0.00  0.00    +0.000 S 
ATOM     23  C   UNL     1      52.187   5.386  17.482  0.00  0.00    +0.000 A 
ATOM     24  N   UNL     1      52.060   4.352  18.359  0.00  0.00    +0.000 NA
ATOM     25  C   UNL     1      50.846   3.949  18.537  0.00  0.00    +0.000 A 
ATOM     26  N   UNL     1      49.747   4.503  17.937  0.00  0.00    +0.000 N 
ATOM     27  C   UNL     1      49.823   5.584  17.094  0.00  0.00    +0.000 A 
ATOM     28  O   UNL     1      48.807   6.113  16.657  0.00  0.00    +0.000 OA
ATOM     29  C   UNL     1      51.171   6.033  16.798  0.00  0.00    +0.000 A 
ATOM     30  H   UNL     1      48.818   4.166  18.141  0.00  0.00    +0.000 HD
ENDBRANCH  17  20
ENDBRANCH   2  16
TORSDOF 5
ENDMDL
MODEL 9
REMARK VINA RESULT:    -6.825      2.955      8.535
REMARK INTER + INTRA:          -8.918
REMARK INTER:                  -8.424
REMARK INTRA:                  -0.494
REMARK UNBOUND:                -0.097
REMARK  Name = 
REMARK  6 active torsions:
REMARK  status: ('A' for Active; 'I' for Inactive)
REMARK    1  A    between atoms: C_1  and  C_2
REMARK    2  A    between atoms: C_2  and  N_3
REMARK    3  A    between atoms: C_2  and  C_16
REMARK    4  A    between atoms: C_4  and  C_6
REMARK    5  A    between atoms: C_19  and  O_20
REMARK    6  A    between atoms: O_20  and  C_21
REMARK                            x       y       z     vdW  Elec       q    Type
REMARK                         _______ _______ _______ _____ _____    ______ ____
ROOT
ATOM      1  C   UNL     1      47.376   8.933  11.801  0.00  0.00    +0.000 C 
ATOM      2  C   UNL     1      48.048   7.651  12.292  0.00  0.00    +0.000 C 
ENDROOT
BRANCH   2   3
ATOM      3  C   UNL     1      48.381   7.735  13.776  0.00  0.00    +0.000 A 
ATOM      4  C   UNL     1      48.025   8.876  14.491  0.00  0.00    +0.000 A 
ATOM      5  C   UNL     1      48.416   8.988  15.820  0.00  0.00    +0.000 A 
ATOM      6  C   UNL     1      49.125   7.952  16.421  0.00  0.00    +0.000 A 
ATOM      7  C   UNL     1      49.472   6.869  15.630  0.00  0.00    +0.000 A 
ATOM      8  N   UNL     1      49.126   6.739  14.326  0.00  0.00    +0.000 NA
BRANCH   6   9
ATOM      9  O   UNL     1      49.575   7.965  17.718  0.00  0.00    +0.000 OA
BRANCH   9  10
ATOM     10  C   UNL     1      49.122   6.969  18.574  0.00  0.00    +0.000 A 
ATOM     11  C   UNL     1      50.079   6.107  19.088  0.00  0.00    +0.000 A 
ATOM     12  C   UNL     1      49.662   5.115  19.971  0.00  0.00    +0.000 A 
ATOM     13  C   UNL     1      48.314   5.017  20.301  0.00  0.00    +0.000 A 
ATOM     14  C   UNL     1      47.429   5.907  19.716  0.00  0.00    +0.000 A 
ATOM     15  N   UNL     1      47.801   6.868  18.848  0.00  0.00    +0.000 NA
ENDBRANCH   9  10
ENDBRANCH   6   9
ENDBRANCH   2   3
BRANCH   2  16
ATOM     16  N   UNL     1      47.203   6.487  12.067  0.00  0.00    +0.000 N 
ATOM     17  C   UNL     1      45.862   6.454  12.332  0.00  0.00    +0.000 C 
ATOM     18  O   UNL     1      45.289   7.399  12.864  0.00  0.00    +0.000 OA
ATOM     19  H   UNL     1      47.665   5.707  11.608  0.00  0.00    +0.000 HD
BRANCH  17  20
ATOM     20  C   UNL     1      45.133   5.233  11.944  0.00  0.00    +0.000 A 
ATOM     21  C   UNL     1      44.373   4.560  12.897  0.00  0.00    +0.000 A 
ATOM     22  S   UNL     1      43.616   3.151  12.313  0.00  0.00    +0.000 S 
ATOM     23  C   UNL     1      44.279   3.373  10.763  0.00  0.00    +0.000 A 
ATOM     24  N   UNL     1      44.049   2.469   9.772  0.00  0.00    +0.000 NA
ATOM     25  C   UNL     1      44.624   2.750   8.650  0.00  0.00    +0.000 A 
ATOM     26  N   UNL     1      45.385   3.865   8.423  0.00  0.00    +0.000 N 
ATOM     27  C   UNL     1      45.592   4.832   9.375  0.00  0.00    +0.000 A 
ATOM     28  O   UNL     1      46.196   5.863   9.102  0.00  0.00    +0.000 OA
ATOM     29  C   UNL     1      45.032   4.534  10.680  0.00  0.00    +0.000 A 
ATOM     30  H   UNL     1      45.783   4.047   7.513  0.00  0.00    +0.000 HD
ENDBRANCH  17  20
ENDBRANCH   2  16
TORSDOF 5
ENDMDL
