MODEL 1
REMARK VINA RESULT:    -7.100      0.000      0.000
REMARK INTER + INTRA:         -10.937
REMARK INTER:                 -10.213
REMARK INTRA:                  -0.724
REMARK UNBOUND:                -0.724
REMARK  Name = 
REMARK  8 active torsions:
REMARK  status: ('A' for Active; 'I' for Inactive)
REMARK    1  A    between atoms: C_2  and  C_21
REMARK    2  A    between atoms: N_3  and  CA_4
REMARK    3  A    between atoms: CA_4  and  C_5
REMARK    4  A    between atoms: CA_4  and  C_7
REMARK    5  A    between atoms: C_5  and  O_6
REMARK    6  A    between atoms: C_10  and  C_11
REMARK    7  A    between atoms: C_12  and  C_13
REMARK    8  A    between atoms: C_13  and  N_14
REMARK                            x       y       z     vdW  Elec       q    Type
REMARK                         _______ _______ _______ _____ _____    ______ ____
ROOT
ATOM      1  CA  UNL     1      48.020   4.298  17.238  0.00  0.00    +0.000 C 
ENDROOT
BRANCH   1   2
ATOM      2  C   UNL     1      49.426   3.705  17.257  0.00  0.00    +0.000 A 
ATOM      3  C   UNL     1      49.607   2.328  17.059  0.00  0.00    +0.000 A 
ATOM      4  C   UNL     1      50.852   1.732  17.284  0.00  0.00    +0.000 A 
ATOM      5  C   UNL     1      51.952   2.494  17.693  0.00  0.00    +0.000 A 
ATOM      6  C   UNL     1      51.788   3.877  17.824  0.00  0.00    +0.000 A 
ATOM      7  C   UNL     1      50.545   4.479  17.591  0.00  0.00    +0.000 A 
BRANCH   5   8
ATOM      8  C   UNL     1      53.213   1.873  18.126  0.00  0.00    +0.000 C 
ATOM      9  C   UNL     1      53.497   0.566  18.008  0.00  0.00    +0.000 C 
BRANCH   9  10
ATOM     10  C   UNL     1      54.694  -0.098  18.629  0.00  0.00    +0.000 C 
BRANCH  10  11
ATOM     11  N   UNL     1      54.674  -1.562  18.562  0.00  0.00    +0.000 NA
ATOM     12  C   UNL     1      55.682  -2.122  19.475  0.00  0.00    +0.000 C 
ATOM     13  C   UNL     1      54.980  -2.200  20.819  0.00  0.00    +0.000 C 
ATOM     14  O   UNL     1      53.583  -2.299  20.529  0.00  0.00    +0.000 OA
ATOM     15  C   UNL     1      53.453  -2.146  19.115  0.00  0.00    +0.000 C 
ENDBRANCH  10  11
ENDBRANCH   9  10
ENDBRANCH   5   8
ENDBRANCH   1   2
BRANCH   1  18
ATOM     16  O   UNL     1      47.405   3.167  14.656  0.00  0.00    +0.000 OA
ATOM     17  C   UNL     1      47.396   4.386  14.813  0.00  0.00    +0.000 C 
ATOM     18  N   UNL     1      47.718   4.988  15.999  0.00  0.00    +0.000 N 
ATOM     19  H   UNL     1      47.560   5.986  16.087  0.00  0.00    +0.000 HD
BRANCH  17  20
ATOM     20  C   UNL     1      47.093   5.284  13.698  0.00  0.00    +0.000 A 
ATOM     21  C   UNL     1      47.942   6.342  13.402  0.00  0.00    +0.000 A 
ATOM     22  S   UNL     1      47.457   7.242  12.036  0.00  0.00    +0.000 S 
ATOM     23  C   UNL     1      46.117   6.223  11.774  0.00  0.00    +0.000 A 
ATOM     24  N   UNL     1      45.295   6.403  10.704  0.00  0.00    +0.000 NA
ATOM     25  C   UNL     1      44.349   5.533  10.610  0.00  0.00    +0.000 A 
ATOM     26  N   UNL     1      44.126   4.516  11.505  0.00  0.00    +0.000 N 
ATOM     27  C   UNL     1      44.869   4.362  12.651  0.00  0.00    +0.000 A 
ATOM     28  O   UNL     1      44.543   3.558  13.521  0.00  0.00    +0.000 OA
ATOM     29  C   UNL     1      46.004   5.253  12.753  0.00  0.00    +0.000 A 
ATOM     30  H   UNL     1      43.331   3.903  11.401  0.00  0.00    +0.000 HD
ENDBRANCH  17  20
ENDBRANCH   1  18
BRANCH   1  31
ATOM     31  C   UNL     1      47.708   5.095  18.529  0.00  0.00    +0.000 C 
BRANCH  31  32
ATOM     32  O   UNL     1      46.307   5.364  18.645  0.00  0.00    +0.000 OA
ATOM     33  H   UNL     1      46.215   6.332  18.718  0.00  0.00    +0.000 HD
ENDBRANCH  31  32
ENDBRANCH   1  31
TORSDOF 8
ENDMDL
MODEL 2
REMARK VINA RESULT:    -6.935      3.083      9.679
REMARK INTER + INTRA:         -10.700
REMARK INTER:                  -9.692
REMARK INTRA:                  -1.008
REMARK UNBOUND:                -0.724
REMARK  Name = 
REMARK  8 active torsions:
REMARK  status: ('A' for Active; 'I' for Inactive)
REMARK    1  A    between atoms: C_2  and  C_21
REMARK    2  A    between atoms: N_3  and  CA_4
REMARK    3  A    between atoms: CA_4  and  C_5
REMARK    4  A    between atoms: CA_4  and  C_7
REMARK    5  A    between atoms: C_5  and  O_6
REMARK    6  A    between atoms: C_10  and  C_11
REMARK    7  A    between atoms: C_12  and  C_13
REMARK    8  A    between atoms: C_13  and  N_14
REMARK                            x       y       z     vdW  Elec       q    Type
REMARK                         _______ _______ _______ _____ _____    ______ ____
ROOT
ATOM      1  CA  UNL     1      48.247   5.284  17.036  0.00  0.00    +0.000 C 
ENDROOT
BRANCH   1   2
ATOM      2  C   UNL     1      47.920   5.331  15.545  0.00  0.00    +0.000 A 
ATOM      3  C   UNL     1      48.294   6.447  14.782  0.00  0.00    +0.000 A 
ATOM      4  C   UNL     1      47.822   6.610  13.477  0.00  0.00    +0.000 A 
ATOM      5  C   UNL     1      46.982   5.656  12.891  0.00  0.00    +0.000 A 
ATOM      6  C   UNL     1      46.665   4.510  13.627  0.00  0.00    +0.000 A 
ATOM      7  C   UNL     1      47.143   4.340  14.932  0.00  0.00    +0.000 A 
BRANCH   5   8
ATOM      8  C   UNL     1      46.314   5.893  11.601  0.00  0.00    +0.000 C 
ATOM      9  C   UNL     1      45.497   5.017  10.995  0.00  0.00    +0.000 C 
BRANCH   9  10
ATOM     10  C   UNL     1      44.978   5.176   9.593  0.00  0.00    +0.000 C 
BRANCH  10  11
ATOM     11  N   UNL     1      44.202   4.032   9.105  0.00  0.00    +0.000 NA
ATOM     12  C   UNL     1      44.682   3.630   7.774  0.00  0.00    +0.000 C 
ATOM     13  C   UNL     1      45.842   2.690   8.054  0.00  0.00    +0.000 C 
ATOM     14  O   UNL     1      45.596   2.135   9.349  0.00  0.00    +0.000 OA
ATOM     15  C   UNL     1      44.446   2.806   9.864  0.00  0.00    +0.000 C 
ENDBRANCH  10  11
ENDBRANCH   9  10
ENDBRANCH   5   8
ENDBRANCH   1   2
BRANCH   1  18
ATOM     16  O   UNL     1      49.736   5.338  19.507  0.00  0.00    +0.000 OA
ATOM     17  C   UNL     1      50.205   4.781  18.516  0.00  0.00    +0.000 C 
ATOM     18  N   UNL     1      49.571   4.755  17.304  0.00  0.00    +0.000 N 
ATOM     19  H   UNL     1      49.957   4.166  16.574  0.00  0.00    +0.000 HD
BRANCH  17  20
ATOM     20  C   UNL     1      51.527   4.153  18.563  0.00  0.00    +0.000 A 
ATOM     21  C   UNL     1      52.582   4.792  19.200  0.00  0.00    +0.000 A 
ATOM     22  S   UNL     1      54.026   3.883  19.202  0.00  0.00    +0.000 S 
ATOM     23  C   UNL     1      53.277   2.591  18.382  0.00  0.00    +0.000 A 
ATOM     24  N   UNL     1      53.953   1.440  18.116  0.00  0.00    +0.000 NA
ATOM     25  C   UNL     1      53.248   0.534  17.530  0.00  0.00    +0.000 A 
ATOM     26  N   UNL     1      51.935   0.682  17.154  0.00  0.00    +0.000 N 
ATOM     27  C   UNL     1      51.249   1.861  17.313  0.00  0.00    +0.000 A 
ATOM     28  O   UNL     1      50.138   2.026  16.813  0.00  0.00    +0.000 OA
ATOM     29  C   UNL     1      51.964   2.877  18.054  0.00  0.00    +0.000 A 
ATOM     30  H   UNL     1      51.459  -0.050  16.647  0.00  0.00    +0.000 HD
ENDBRANCH  17  20
ENDBRANCH   1  18
BRANCH   1  31
ATOM     31  C   UNL     1      47.103   4.645  17.861  0.00  0.00    +0.000 C 
BRANCH  31  32
ATOM     32  O   UNL     1      46.788   5.439  19.010  0.00  0.00    +0.000 OA
ATOM     33  H   UNL     1      47.615   5.527  19.521  0.00  0.00    +0.000 HD
ENDBRANCH  31  32
ENDBRANCH   1  31
TORSDOF 8
ENDMDL
MODEL 3
REMARK VINA RESULT:    -6.829      3.001      9.577
REMARK INTER + INTRA:         -10.548
REMARK INTER:                  -9.677
REMARK INTRA:                  -0.871
REMARK UNBOUND:                -0.724
REMARK  Name = 
REMARK  8 active torsions:
REMARK  status: ('A' for Active; 'I' for Inactive)
REMARK    1  A    between atoms: C_2  and  C_21
REMARK    2  A    between atoms: N_3  and  CA_4
REMARK    3  A    between atoms: CA_4  and  C_5
REMARK    4  A    between atoms: CA_4  and  C_7
REMARK    5  A    between atoms: C_5  and  O_6
REMARK    6  A    between atoms: C_10  and  C_11
REMARK    7  A    between atoms: C_12  and  C_13
REMARK    8  A    between atoms: C_13  and  N_14
REMARK                            x       y       z     vdW  Elec       q    Type
REMARK                         _______ _______ _______ _____ _____    ______ ____
ROOT
ATOM      1  CA  UNL     1      49.194   5.848  17.828  0.00  0.00    +0.000 C 
ENDROOT
BRANCH   1   2
ATOM      2  C   UNL     1      48.635   5.699  16.415  0.00  0.00    +0.000 A 
ATOM      3  C   UNL     1      48.872   6.700  15.461  0.00  0.00    +0.000 A 
ATOM      4  C   UNL     1      48.198   6.692  14.236  0.00  0.00    +0.000 A 
ATOM      5  C   UNL     1      47.286   5.678  13.922  0.00  0.00    +0.000 A 
ATOM      6  C   UNL     1      47.101   4.644  14.846  0.00  0.00    +0.000 A 
ATOM      7  C   UNL     1      47.781   4.644  16.070  0.00  0.00    +0.000 A 
BRANCH   5   8
ATOM      8  C   UNL     1      46.420   5.749  12.735  0.00  0.00    +0.000 C 
ATOM      9  C   UNL     1      45.198   6.305  12.716  0.00  0.00    +0.000 C 
BRANCH   9  10
ATOM     10  C   UNL     1      44.239   6.199  11.564  0.00  0.00    +0.000 C 
BRANCH  10  11
ATOM     11  N   UNL     1      43.055   5.378  11.839  0.00  0.00    +0.000 NA
ATOM     12  C   UNL     1      43.097   4.149  11.032  0.00  0.00    +0.000 C 
ATOM     13  C   UNL     1      43.928   3.179  11.853  0.00  0.00    +0.000 C 
ATOM     14  O   UNL     1      43.791   3.598  13.214  0.00  0.00    +0.000 OA
ATOM     15  C   UNL     1      43.047   4.816  13.189  0.00  0.00    +0.000 C 
ENDBRANCH  10  11
ENDBRANCH   9  10
ENDBRANCH   5   8
ENDBRANCH   1   2
BRANCH   1  18
ATOM     16  O   UNL     1      51.903   6.076  16.860  0.00  0.00    +0.000 OA
ATOM     17  C   UNL     1      51.595   5.160  17.620  0.00  0.00    +0.000 C 
ATOM     18  N   UNL     1      50.320   4.970  18.081  0.00  0.00    +0.000 N 
ATOM     19  H   UNL     1      50.172   4.274  18.805  0.00  0.00    +0.000 HD
BRANCH  17  20
ATOM     20  C   UNL     1      52.583   4.162  18.032  0.00  0.00    +0.000 A 
ATOM     21  C   UNL     1      53.779   4.560  18.612  0.00  0.00    +0.000 A 
ATOM     22  S   UNL     1      54.776   3.257  19.078  0.00  0.00    +0.000 S 
ATOM     23  C   UNL     1      53.624   2.118  18.552  0.00  0.00    +0.000 A 
ATOM     24  N   UNL     1      53.828   0.782  18.719  0.00  0.00    +0.000 NA
ATOM     25  C   UNL     1      52.854   0.042  18.312  0.00  0.00    +0.000 A 
ATOM     26  N   UNL     1      51.705   0.510  17.723  0.00  0.00    +0.000 N 
ATOM     27  C   UNL     1      51.506   1.841  17.444  0.00  0.00    +0.000 A 
ATOM     28  O   UNL     1      50.554   2.215  16.762  0.00  0.00    +0.000 OA
ATOM     29  C   UNL     1      52.526   2.723  17.969  0.00  0.00    +0.000 A 
ATOM     30  H   UNL     1      51.006  -0.130  17.377  0.00  0.00    +0.000 HD
ENDBRANCH  17  20
ENDBRANCH   1  18
BRANCH   1  31
ATOM     31  C   UNL     1      48.078   5.813  18.900  0.00  0.00    +0.000 C 
BRANCH  31  32
ATOM     32  O   UNL     1      47.064   6.786  18.624  0.00  0.00    +0.000 OA
ATOM     33  H   UNL     1      47.514   7.651  18.582  0.00  0.00    +0.000 HD
ENDBRANCH  31  32
ENDBRANCH   1  31
TORSDOF 8
ENDMDL
MODEL 4
REMARK VINA RESULT:    -6.735      7.905      8.886
REMARK INTER + INTRA:         -10.413
REMARK INTER:                  -9.981
REMARK INTRA:                  -0.432
REMARK UNBOUND:                -0.724
REMARK  Name = 
REMARK  8 active torsions:
REMARK  status: ('A' for Active; 'I' for Inactive)
REMARK    1  A    between atoms: C_2  and  C_21
REMARK    2  A    between atoms: N_3  and  CA_4
REMARK    3  A    between atoms: CA_4  and  C_5
REMARK    4  A    between atoms: CA_4  and  C_7
REMARK    5  A    between atoms: C_5  and  O_6
REMARK    6  A    between atoms: C_10  and  C_11
REMARK    7  A    between atoms: C_12  and  C_13
REMARK    8  A    between atoms: C_13  and  N_14
REMARK                            x       y       z     vdW  Elec       q    Type
REMARK                         _______ _______ _______ _____ _____    ______ ____
ROOT
ATOM      1  CA  UNL     1      46.433   8.379  12.658  0.00  0.00    +0.000 C 
ENDROOT
BRANCH   1   2
ATOM      2  C   UNL     1      47.919   8.481  12.324  0.00  0.00    +0.000 A 
ATOM      3  C   UNL     1      48.443   9.684  11.827  0.00  0.00    +0.000 A 
ATOM      4  C   UNL     1      49.742   9.739  11.315  0.00  0.00    +0.000 A 
ATOM      5  C   UNL     1      50.560   8.603  11.302  0.00  0.00    +0.000 A 
ATOM      6  C   UNL     1      50.062   7.421  11.860  0.00  0.00    +0.000 A 
ATOM      7  C   UNL     1      48.763   7.365  12.381  0.00  0.00    +0.000 A 
BRANCH   5   8
ATOM      8  C   UNL     1      51.850   8.579  10.595  0.00  0.00    +0.000 C 
ATOM      9  C   UNL     1      52.303   7.542   9.873  0.00  0.00    +0.000 C 
BRANCH   9  10
ATOM     10  C   UNL     1      53.697   7.441   9.322  0.00  0.00    +0.000 C 
BRANCH  10  11
ATOM     11  N   UNL     1      53.801   7.725   7.887  0.00  0.00    +0.000 NA
ATOM     12  C   UNL     1      54.839   6.879   7.280  0.00  0.00    +0.000 C 
ATOM     13  C   UNL     1      54.128   5.580   6.945  0.00  0.00    +0.000 C 
ATOM     14  O   UNL     1      52.747   5.918   6.779  0.00  0.00    +0.000 OA
ATOM     15  C   UNL     1      52.624   7.296   7.131  0.00  0.00    +0.000 C 
ENDBRANCH  10  11
ENDBRANCH   9  10
ENDBRANCH   5   8
ENDBRANCH   1   2
BRANCH   1  18
ATOM     16  O   UNL     1      44.213   7.591  10.991  0.00  0.00    +0.000 OA
ATOM     17  C   UNL     1      44.862   6.740  11.597  0.00  0.00    +0.000 C 
ATOM     18  N   UNL     1      45.898   7.049  12.437  0.00  0.00    +0.000 N 
ATOM     19  H   UNL     1      46.465   6.289  12.796  0.00  0.00    +0.000 HD
BRANCH  17  20
ATOM     20  C   UNL     1      44.513   5.322  11.503  0.00  0.00    +0.000 A 
ATOM     21  C   UNL     1      43.838   4.697  12.542  0.00  0.00    +0.000 A 
ATOM     22  S   UNL     1      43.468   3.061  12.227  0.00  0.00    +0.000 S 
ATOM     23  C   UNL     1      44.166   3.147  10.675  0.00  0.00    +0.000 A 
ATOM     24  N   UNL     1      44.133   2.082   9.829  0.00  0.00    +0.000 NA
ATOM     25  C   UNL     1      44.661   2.304   8.674  0.00  0.00    +0.000 A 
ATOM     26  N   UNL     1      45.250   3.485   8.295  0.00  0.00    +0.000 N 
ATOM     27  C   UNL     1      45.394   4.549   9.153  0.00  0.00    +0.000 A 
ATOM     28  O   UNL     1      46.076   5.526   8.851  0.00  0.00    +0.000 OA
ATOM     29  C   UNL     1      44.731   4.385  10.429  0.00  0.00    +0.000 A 
ATOM     30  H   UNL     1      45.695   3.573   7.393  0.00  0.00    +0.000 HD
ENDBRANCH  17  20
ENDBRANCH   1  18
BRANCH   1  31
ATOM     31  C   UNL     1      45.615   9.532  12.026  0.00  0.00    +0.000 C 
BRANCH  31  32
ATOM     32  O   UNL     1      44.487   9.872  12.839  0.00  0.00    +0.000 OA
ATOM     33  H   UNL     1      43.810   9.189  12.674  0.00  0.00    +0.000 HD
ENDBRANCH  31  32
ENDBRANCH   1  31
TORSDOF 8
ENDMDL
MODEL 5
REMARK VINA RESULT:    -6.681      2.426      3.449
REMARK INTER + INTRA:         -10.334
REMARK INTER:                  -9.531
REMARK INTRA:                  -0.804
REMARK UNBOUND:                -0.724
REMARK  Name = 
REMARK  8 active torsions:
REMARK  status: ('A' for Active; 'I' for Inactive)
REMARK    1  A    between atoms: C_2  and  C_21
REMARK    2  A    between atoms: N_3  and  CA_4
REMARK    3  A    between atoms: CA_4  and  C_5
REMARK    4  A    between atoms: CA_4  and  C_7
REMARK    5  A    between atoms: C_5  and  O_6
REMARK    6  A    between atoms: C_10  and  C_11
REMARK    7  A    between atoms: C_12  and  C_13
REMARK    8  A    between atoms: C_13  and  N_14
REMARK                            x       y       z     vdW  Elec       q    Type
REMARK                         _______ _______ _______ _____ _____    ______ ____
ROOT
ATOM      1  CA  UNL     1      48.711   7.795  15.195  0.00  0.00    +0.000 C 
ENDROOT
BRANCH   1   2
ATOM      2  C   UNL     1      49.180   6.667  16.111  0.00  0.00    +0.000 A 
ATOM      3  C   UNL     1      50.542   6.541  16.422  0.00  0.00    +0.000 A 
ATOM      4  C   UNL     1      51.022   5.402  17.076  0.00  0.00    +0.000 A 
ATOM      5  C   UNL     1      50.156   4.370  17.455  0.00  0.00    +0.000 A 
ATOM      6  C   UNL     1      48.788   4.528  17.206  0.00  0.00    +0.000 A 
ATOM      7  C   UNL     1      48.303   5.670  16.557  0.00  0.00    +0.000 A 
BRANCH   5   8
ATOM      8  C   UNL     1      50.653   3.082  17.962  0.00  0.00    +0.000 C 
ATOM      9  C   UNL     1      51.623   2.359  17.381  0.00  0.00    +0.000 C 
BRANCH   9  10
ATOM     10  C   UNL     1      51.988   0.957  17.783  0.00  0.00    +0.000 C 
BRANCH  10  11
ATOM     11  N   UNL     1      53.275   0.845  18.477  0.00  0.00    +0.000 NA
ATOM     12  C   UNL     1      53.936  -0.416  18.110  0.00  0.00    +0.000 C 
ATOM     13  C   UNL     1      54.685  -0.097  16.827  0.00  0.00    +0.000 C 
ATOM     14  O   UNL     1      54.940   1.310  16.860  0.00  0.00    +0.000 OA
ATOM     15  C   UNL     1      54.265   1.816  18.011  0.00  0.00    +0.000 C 
ENDBRANCH  10  11
ENDBRANCH   9  10
ENDBRANCH   5   8
ENDBRANCH   1   2
BRANCH   1  18
ATOM     16  O   UNL     1      48.618   6.050  12.898  0.00  0.00    +0.000 OA
ATOM     17  C   UNL     1      47.584   6.554  13.332  0.00  0.00    +0.000 C 
ATOM     18  N   UNL     1      47.563   7.423  14.389  0.00  0.00    +0.000 N 
ATOM     19  H   UNL     1      46.662   7.692  14.770  0.00  0.00    +0.000 HD
BRANCH  17  20
ATOM     20  C   UNL     1      46.295   6.298  12.686  0.00  0.00    +0.000 A 
ATOM     21  C   UNL     1      45.600   7.333  12.078  0.00  0.00    +0.000 A 
ATOM     22  S   UNL     1      44.151   6.832  11.330  0.00  0.00    +0.000 S 
ATOM     23  C   UNL     1      44.425   5.208  11.764  0.00  0.00    +0.000 A 
ATOM     24  N   UNL     1      43.574   4.221  11.372  0.00  0.00    +0.000 NA
ATOM     25  C   UNL     1      43.930   3.037  11.737  0.00  0.00    +0.000 A 
ATOM     26  N   UNL     1      45.044   2.749  12.486  0.00  0.00    +0.000 N 
ATOM     27  C   UNL     1      45.872   3.724  12.988  0.00  0.00    +0.000 A 
ATOM     28  O   UNL     1      46.757   3.457  13.798  0.00  0.00    +0.000 OA
ATOM     29  C   UNL     1      45.571   5.062  12.525  0.00  0.00    +0.000 A 
ATOM     30  H   UNL     1      45.233   1.803  12.784  0.00  0.00    +0.000 HD
ENDBRANCH  17  20
ENDBRANCH   1  18
BRANCH   1  31
ATOM     31  C   UNL     1      49.884   8.435  14.413  0.00  0.00    +0.000 C 
BRANCH  31  32
ATOM     32  O   UNL     1      49.543   9.746  13.951  0.00  0.00    +0.000 OA
ATOM     33  H   UNL     1      50.016  10.375  14.527  0.00  0.00    +0.000 HD
ENDBRANCH  31  32
ENDBRANCH   1  31
TORSDOF 8
ENDMDL
MODEL 6
REMARK VINA RESULT:    -6.187      7.011      8.966
REMARK INTER + INTRA:          -9.623
REMARK INTER:                  -8.273
REMARK INTRA:                  -1.350
REMARK UNBOUND:                -0.724
REMARK  Name = 
REMARK  8 active torsions:
REMARK  status: ('A' for Active; 'I' for Inactive)
REMARK    1  A    between atoms: C_2  and  C_21
REMARK    2  A    between atoms: N_3  and  CA_4
REMARK    3  A    between atoms: CA_4  and  C_5
REMARK    4  A    between atoms: CA_4  and  C_7
REMARK    5  A    between atoms: C_5  and  O_6
REMARK    6  A    between atoms: C_10  and  C_11
REMARK    7  A    between atoms: C_12  and  C_13
REMARK    8  A    between atoms: C_13  and  N_14
REMARK                            x       y       z     vdW  Elec       q    Type
REMARK                         _______ _______ _______ _____ _____    ______ ____
ROOT
ATOM      1  CA  UNL     1      48.508   9.206  12.295  0.00  0.00    +0.000 C 
ENDROOT
BRANCH   1   2
ATOM      2  C   UNL     1      49.863   9.006  11.623  0.00  0.00    +0.000 A 
ATOM      3  C   UNL     1      50.538  10.104  11.069  0.00  0.00    +0.000 A 
ATOM      4  C   UNL     1      51.666   9.917  10.266  0.00  0.00    +0.000 A 
ATOM      5  C   UNL     1      52.165   8.634  10.010  0.00  0.00    +0.000 A 
ATOM      6  C   UNL     1      51.533   7.545  10.619  0.00  0.00    +0.000 A 
ATOM      7  C   UNL     1      50.407   7.729  11.431  0.00  0.00    +0.000 A 
BRANCH   5   8
ATOM      8  C   UNL     1      53.223   8.392   9.017  0.00  0.00    +0.000 C 
ATOM      9  C   UNL     1      53.001   8.047   7.739  0.00  0.00    +0.000 C 
BRANCH   9  10
ATOM     10  C   UNL     1      54.076   7.606   6.785  0.00  0.00    +0.000 C 
BRANCH  10  11
ATOM     11  N   UNL     1      53.811   6.322   6.129  0.00  0.00    +0.000 NA
ATOM     12  C   UNL     1      55.078   5.633   5.841  0.00  0.00    +0.000 C 
ATOM     13  C   UNL     1      55.405   4.883   7.120  0.00  0.00    +0.000 C 
ATOM     14  O   UNL     1      54.154   4.657   7.776  0.00  0.00    +0.000 OA
ATOM     15  C   UNL     1      53.167   5.349   7.011  0.00  0.00    +0.000 C 
ENDBRANCH  10  11
ENDBRANCH   9  10
ENDBRANCH   5   8
ENDBRANCH   1   2
BRANCH   1  18
ATOM     16  O   UNL     1      47.898   7.266  14.344  0.00  0.00    +0.000 OA
ATOM     17  C   UNL     1      47.380   7.173  13.233  0.00  0.00    +0.000 C 
ATOM     18  N   UNL     1      47.658   8.033  12.205  0.00  0.00    +0.000 N 
ATOM     19  H   UNL     1      47.095   7.971  11.364  0.00  0.00    +0.000 HD
BRANCH  17  20
ATOM     20  C   UNL     1      46.465   6.075  12.921  0.00  0.00    +0.000 A 
ATOM     21  C   UNL     1      46.774   4.777  13.303  0.00  0.00    +0.000 A 
ATOM     22  S   UNL     1      45.563   3.643  12.906  0.00  0.00    +0.000 S 
ATOM     23  C   UNL     1      44.570   4.857  12.242  0.00  0.00    +0.000 A 
ATOM     24  N   UNL     1      43.328   4.568  11.765  0.00  0.00    +0.000 NA
ATOM     25  C   UNL     1      42.674   5.592  11.333  0.00  0.00    +0.000 A 
ATOM     26  N   UNL     1      43.157   6.876  11.303  0.00  0.00    +0.000 N 
ATOM     27  C   UNL     1      44.440   7.193  11.679  0.00  0.00    +0.000 A 
ATOM     28  O   UNL     1      44.906   8.313  11.480  0.00  0.00    +0.000 OA
ATOM     29  C   UNL     1      45.182   6.097  12.264  0.00  0.00    +0.000 A 
ATOM     30  H   UNL     1      42.611   7.623  10.899  0.00  0.00    +0.000 HD
ENDBRANCH  17  20
ENDBRANCH   1  18
BRANCH   1  31
ATOM     31  C   UNL     1      47.840  10.537  11.872  0.00  0.00    +0.000 C 
BRANCH  31  32
ATOM     32  O   UNL     1      46.537  10.669  12.450  0.00  0.00    +0.000 OA
ATOM     33  H   UNL     1      46.562  10.194  13.302  0.00  0.00    +0.000 HD
ENDBRANCH  31  32
ENDBRANCH   1  31
TORSDOF 8
ENDMDL
MODEL 7
REMARK VINA RESULT:    -6.164      4.916      7.523
REMARK INTER + INTRA:          -9.590
REMARK INTER:                  -8.502
REMARK INTRA:                  -1.088
REMARK UNBOUND:                -0.724
REMARK  Name = 
REMARK  8 active torsions:
REMARK  status: ('A' for Active; 'I' for Inactive)
REMARK    1  A    between atoms: C_2  and  C_21
REMARK    2  A    between atoms: N_3  and  CA_4
REMARK    3  A    between atoms: CA_4  and  C_5
REMARK    4  A    between atoms: CA_4  and  C_7
REMARK    5  A    between atoms: C_5  and  O_6
REMARK    6  A    between atoms: C_10  and  C_11
REMARK    7  A    between atoms: C_12  and  C_13
REMARK    8  A    between atoms: C_13  and  N_14
REMARK                            x       y       z     vdW  Elec       q    Type
REMARK                         _______ _______ _______ _____ _____    ______ ____
ROOT
ATOM      1  CA  UNL     1      44.627   4.256  11.464  0.00  0.00    +0.000 C 
ENDROOT
BRANCH   1   2
ATOM      2  C   UNL     1      45.591   5.023  12.366  0.00  0.00    +0.000 A 
ATOM      3  C   UNL     1      46.086   6.271  11.960  0.00  0.00    +0.000 A 
ATOM      4  C   UNL     1      47.126   6.888  12.661  0.00  0.00    +0.000 A 
ATOM      5  C   UNL     1      47.686   6.289  13.795  0.00  0.00    +0.000 A 
ATOM      6  C   UNL     1      47.145   5.077  14.240  0.00  0.00    +0.000 A 
ATOM      7  C   UNL     1      46.098   4.460  13.544  0.00  0.00    +0.000 A 
BRANCH   5   8
ATOM      8  C   UNL     1      48.904   6.813  14.433  0.00  0.00    +0.000 C 
ATOM      9  C   UNL     1      49.190   6.693  15.739  0.00  0.00    +0.000 C 
BRANCH   9  10
ATOM     10  C   UNL     1      50.328   7.398  16.423  0.00  0.00    +0.000 C 
BRANCH  10  11
ATOM     11  N   UNL     1      51.169   6.526  17.249  0.00  0.00    +0.000 NA
ATOM     12  C   UNL     1      51.512   7.204  18.508  0.00  0.00    +0.000 C 
ATOM     13  C   UNL     1      50.343   6.910  19.432  0.00  0.00    +0.000 C 
ATOM     14  O   UNL     1      49.767   5.688  18.962  0.00  0.00    +0.000 OA
ATOM     15  C   UNL     1      50.455   5.355  17.757  0.00  0.00    +0.000 C 
ENDBRANCH  10  11
ENDBRANCH   9  10
ENDBRANCH   5   8
ENDBRANCH   1   2
BRANCH   1  18
ATOM     16  O   UNL     1      43.640   2.021   9.929  0.00  0.00    +0.000 OA
ATOM     17  C   UNL     1      44.763   2.470   9.711  0.00  0.00    +0.000 C 
ATOM     18  N   UNL     1      45.308   3.500  10.430  0.00  0.00    +0.000 N 
ATOM     19  H   UNL     1      46.182   3.900  10.106  0.00  0.00    +0.000 HD
BRANCH  17  20
ATOM     20  C   UNL     1      45.625   1.874   8.689  0.00  0.00    +0.000 A 
ATOM     21  C   UNL     1      45.822   0.501   8.654  0.00  0.00    +0.000 A 
ATOM     22  S   UNL     1      46.808  -0.013   7.361  0.00  0.00    +0.000 S 
ATOM     23  C   UNL     1      46.975   1.581   6.785  0.00  0.00    +0.000 A 
ATOM     24  N   UNL     1      47.664   1.848   5.642  0.00  0.00    +0.000 NA
ATOM     25  C   UNL     1      47.671   3.092   5.304  0.00  0.00    +0.000 A 
ATOM     26  N   UNL     1      47.080   4.103   6.021  0.00  0.00    +0.000 N 
ATOM     27  C   UNL     1      46.463   3.890   7.230  0.00  0.00    +0.000 A 
ATOM     28  O   UNL     1      46.097   4.828   7.935  0.00  0.00    +0.000 OA
ATOM     29  C   UNL     1      46.343   2.498   7.605  0.00  0.00    +0.000 A 
ATOM     30  H   UNL     1      47.172   5.064   5.727  0.00  0.00    +0.000 HD
ENDBRANCH  17  20
ENDBRANCH   1  18
BRANCH   1  31
ATOM     31  C   UNL     1      43.462   5.148  10.968  0.00  0.00    +0.000 C 
BRANCH  31  32
ATOM     32  O   UNL     1      43.367   5.128   9.540  0.00  0.00    +0.000 OA
ATOM     33  H   UNL     1      42.963   4.273   9.300  0.00  0.00    +0.000 HD
ENDBRANCH  31  32
ENDBRANCH   1  31
TORSDOF 8
ENDMDL
MODEL 8
REMARK VINA RESULT:    -6.104      4.556      9.393
REMARK INTER + INTRA:          -9.505
REMARK INTER:                  -8.463
REMARK INTRA:                  -1.042
REMARK UNBOUND:                -0.724
REMARK  Name = 
REMARK  8 active torsions:
REMARK  status: ('A' for Active; 'I' for Inactive)
REMARK    1  A    between atoms: C_2  and  C_21
REMARK    2  A    between atoms: N_3  and  CA_4
REMARK    3  A    between atoms: CA_4  and  C_5
REMARK    4  A    between atoms: CA_4  and  C_7
REMARK    5  A    between atoms: C_5  and  O_6
REMARK    6  A    between atoms: C_10  and  C_11
REMARK    7  A    between atoms: C_12  and  C_13
REMARK    8  A    between atoms: C_13  and  N_14
REMARK                            x       y       z     vdW  Elec       q    Type
REMARK                         _______ _______ _______ _____ _____    ______ ____
ROOT
ATOM      1  CA  UNL     1      47.824   4.746  16.203  0.00  0.00    +0.000 C 
ENDROOT
BRANCH   1   2
ATOM      2  C   UNL     1      47.166   5.127  14.879  0.00  0.00    +0.000 A 
ATOM      3  C   UNL     1      46.099   4.364  14.383  0.00  0.00    +0.000 A 
ATOM      4  C   UNL     1      45.625   4.559  13.082  0.00  0.00    +0.000 A 
ATOM      5  C   UNL     1      46.188   5.533  12.249  0.00  0.00    +0.000 A 
ATOM      6  C   UNL     1      47.206   6.341  12.768  0.00  0.00    +0.000 A 
ATOM      7  C   UNL     1      47.678   6.153  14.073  0.00  0.00    +0.000 A 
BRANCH   5   8
ATOM      8  C   UNL     1      45.848   5.628  10.821  0.00  0.00    +0.000 C 
ATOM      9  C   UNL     1      45.573   4.577  10.033  0.00  0.00    +0.000 C 
BRANCH   9  10
ATOM     10  C   UNL     1      45.425   4.657   8.539  0.00  0.00    +0.000 C 
BRANCH  10  11
ATOM     11  N   UNL     1      44.832   3.464   7.927  0.00  0.00    +0.000 NA
ATOM     12  C   UNL     1      45.716   2.948   6.871  0.00  0.00    +0.000 C 
ATOM     13  C   UNL     1      46.702   2.052   7.600  0.00  0.00    +0.000 C 
ATOM     14  O   UNL     1      46.033   1.614   8.787  0.00  0.00    +0.000 OA
ATOM     15  C   UNL     1      44.790   2.315   8.832  0.00  0.00    +0.000 C 
ENDBRANCH  10  11
ENDBRANCH   9  10
ENDBRANCH   5   8
ENDBRANCH   1   2
BRANCH   1  18
ATOM     16  O   UNL     1      49.329   5.803  18.426  0.00  0.00    +0.000 OA
ATOM     17  C   UNL     1      49.891   5.563  17.360  0.00  0.00    +0.000 C 
ATOM     18  N   UNL     1      49.229   5.102  16.254  0.00  0.00    +0.000 N 
ATOM     19  H   UNL     1      49.780   4.804  15.456  0.00  0.00    +0.000 HD
BRANCH  17  20
ATOM     20  C   UNL     1      51.321   5.824  17.189  0.00  0.00    +0.000 A 
ATOM     21  C   UNL     1      52.250   5.187  18.001  0.00  0.00    +0.000 A 
ATOM     22  S   UNL     1      53.867   5.572  17.616  0.00  0.00    +0.000 S 
ATOM     23  C   UNL     1      53.378   6.573  16.328  0.00  0.00    +0.000 A 
ATOM     24  N   UNL     1      54.292   7.181  15.523  0.00  0.00    +0.000 NA
ATOM     25  C   UNL     1      53.779   7.873  14.565  0.00  0.00    +0.000 A 
ATOM     26  N   UNL     1      52.433   8.043  14.353  0.00  0.00    +0.000 N 
ATOM     27  C   UNL     1      51.480   7.532  15.201  0.00  0.00    +0.000 A 
ATOM     28  O   UNL     1      50.296   7.842  15.093  0.00  0.00    +0.000 OA
ATOM     29  C   UNL     1      52.002   6.665  16.236  0.00  0.00    +0.000 A 
ATOM     30  H   UNL     1      52.099   8.645  13.615  0.00  0.00    +0.000 HD
ENDBRANCH  17  20
ENDBRANCH   1  18
BRANCH   1  31
ATOM     31  C   UNL     1      47.497   3.290  16.616  0.00  0.00    +0.000 C 
BRANCH  31  32
ATOM     32  O   UNL     1      46.494   3.254  17.636  0.00  0.00    +0.000 OA
ATOM     33  H   UNL     1      45.712   3.711  17.273  0.00  0.00    +0.000 HD
ENDBRANCH  31  32
ENDBRANCH   1  31
TORSDOF 8
ENDMDL
MODEL 9
REMARK VINA RESULT:    -5.708      4.794      9.468
REMARK INTER + INTRA:          -8.936
REMARK INTER:                  -7.751
REMARK INTRA:                  -1.184
REMARK UNBOUND:                -0.724
REMARK  Name = 
REMARK  8 active torsions:
REMARK  status: ('A' for Active; 'I' for Inactive)
REMARK    1  A    between atoms: C_2  and  C_21
REMARK    2  A    between atoms: N_3  and  CA_4
REMARK    3  A    between atoms: CA_4  and  C_5
REMARK    4  A    between atoms: CA_4  and  C_7
REMARK    5  A    between atoms: C_5  and  O_6
REMARK    6  A    between atoms: C_10  and  C_11
REMARK    7  A    between atoms: C_12  and  C_13
REMARK    8  A    between atoms: C_13  and  N_14
REMARK                            x       y       z     vdW  Elec       q    Type
REMARK                         _______ _______ _______ _____ _____    ______ ____
ROOT
ATOM      1  CA  UNL     1      51.269   8.317  14.750  0.00  0.00    +0.000 C 
ENDROOT
BRANCH   1   2
ATOM      2  C   UNL     1      50.049   8.076  13.865  0.00  0.00    +0.000 A 
ATOM      3  C   UNL     1      48.808   7.783  14.450  0.00  0.00    +0.000 A 
ATOM      4  C   UNL     1      47.734   7.350  13.667  0.00  0.00    +0.000 A 
ATOM      5  C   UNL     1      47.862   7.217  12.280  0.00  0.00    +0.000 A 
ATOM      6  C   UNL     1      49.079   7.575  11.689  0.00  0.00    +0.000 A 
ATOM      7  C   UNL     1      50.154   8.016  12.470  0.00  0.00    +0.000 A 
BRANCH   5   8
ATOM      8  C   UNL     1      46.821   6.580  11.458  0.00  0.00    +0.000 C 
ATOM      9  C   UNL     1      45.558   6.368  11.861  0.00  0.00    +0.000 C 
BRANCH   9  10
ATOM     10  C   UNL     1      44.557   5.542  11.103  0.00  0.00    +0.000 C 
BRANCH  10  11
ATOM     11  N   UNL     1      44.967   4.152  10.881  0.00  0.00    +0.000 NA
ATOM     12  C   UNL     1      45.117   3.460  12.170  0.00  0.00    +0.000 C 
ATOM     13  C   UNL     1      43.720   2.967  12.505  0.00  0.00    +0.000 C 
ATOM     14  O   UNL     1      43.040   2.828  11.254  0.00  0.00    +0.000 OA
ATOM     15  C   UNL     1      43.923   3.339  10.256  0.00  0.00    +0.000 C 
ENDBRANCH  10  11
ENDBRANCH   9  10
ENDBRANCH   5   8
ENDBRANCH   1   2
BRANCH   1  18
ATOM     16  O   UNL     1      53.036   6.384  15.963  0.00  0.00    +0.000 OA
ATOM     17  C   UNL     1      52.056   6.796  16.580  0.00  0.00    +0.000 C 
ATOM     18  N   UNL     1      51.156   7.679  16.048  0.00  0.00    +0.000 N 
ATOM     19  H   UNL     1      50.450   8.071  16.663  0.00  0.00    +0.000 HD
BRANCH  17  20
ATOM     20  C   UNL     1      51.756   6.305  17.926  0.00  0.00    +0.000 A 
ATOM     21  C   UNL     1      52.627   6.563  18.975  0.00  0.00    +0.000 A 
ATOM     22  S   UNL     1      52.081   5.962  20.476  0.00  0.00    +0.000 S 
ATOM     23  C   UNL     1      50.644   5.371  19.777  0.00  0.00    +0.000 A 
ATOM     24  N   UNL     1      49.682   4.783  20.539  0.00  0.00    +0.000 NA
ATOM     25  C   UNL     1      48.632   4.423  19.883  0.00  0.00    +0.000 A 
ATOM     26  N   UNL     1      48.466   4.566  18.527  0.00  0.00    +0.000 N 
ATOM     27  C   UNL     1      49.454   5.060  17.709  0.00  0.00    +0.000 A 
ATOM     28  O   UNL     1      49.351   5.016  16.485  0.00  0.00    +0.000 OA
ATOM     29  C   UNL     1      50.613   5.570  18.409  0.00  0.00    +0.000 A 
ATOM     30  H   UNL     1      47.641   4.211  18.069  0.00  0.00    +0.000 HD
ENDBRANCH  17  20
ENDBRANCH   1  18
BRANCH   1  31
ATOM     31  C   UNL     1      51.677   9.810  14.783  0.00  0.00    +0.000 C 
BRANCH  31  32
ATOM     32  O   UNL     1      50.531  10.661  14.682  0.00  0.00    +0.000 OA
ATOM     33  H   UNL     1      49.764  10.130  14.968  0.00  0.00    +0.000 HD
ENDBRANCH  31  32
ENDBRANCH   1  31
TORSDOF 8
ENDMDL
