MODEL 1
REMARK VINA RESULT:    -7.197      0.000      0.000
REMARK INTER + INTRA:         -11.632
REMARK INTER:                 -10.142
REMARK INTRA:                  -1.490
REMARK UNBOUND:                -1.490
REMARK  Name = 
REMARK  8 active torsions:
REMARK  status: ('A' for Active; 'I' for Inactive)
REMARK    1  A    between atoms: C_1  and  N_2
REMARK    2  A    between atoms: N_2  and  C_3
REMARK    3  A    between atoms: N_2  and  C_24
REMARK    4  A    between atoms: C_3  and  C_4
REMARK    5  A    between atoms: C_7  and  C_8
REMARK    6  A    between atoms: C_8  and  N_9
REMARK    7  A    between atoms: C_10  and  C_12
REMARK    8  A    between atoms: C_24  and  C_25
REMARK                            x       y       z     vdW  Elec       q    Type
REMARK                         _______ _______ _______ _____ _____    ______ ____
ROOT
ATOM      1  C   UNL     1      45.656   6.469  12.576  0.00  0.00    +0.000 C 
ATOM      2  C   UNL     1      46.927   6.038  12.461  0.00  0.00    +0.000 C 
ATOM      3  C   UNL     1      48.109   6.957  12.355  0.00  0.00    +0.000 C 
ATOM      4  C   UNL     1      47.803   8.394  12.813  0.00  0.00    +0.000 C 
ATOM      5  C   UNL     1      46.505   8.836  12.120  0.00  0.00    +0.000 C 
ATOM      6  C   UNL     1      45.311   7.942  12.496  0.00  0.00    +0.000 C 
ENDROOT
BRANCH   1   7
ATOM      7  C   UNL     1      44.509   5.494  12.760  0.00  0.00    +0.000 C 
BRANCH   7   9
ATOM      8  C   UNL     1      42.310   5.513  11.725  0.00  0.00    +0.000 C 
ATOM      9  N   UNL     1      43.739   5.221  11.529  0.00  0.00    +0.000 NA
BRANCH   9  10
ATOM     10  C   UNL     1      43.902   3.781  11.185  0.00  0.00    +0.000 C 
BRANCH  10  11
ATOM     11  C   UNL     1      44.757   3.519   9.953  0.00  0.00    +0.000 A 
ATOM     12  C   UNL     1      45.269   4.585   9.218  0.00  0.00    +0.000 A 
ATOM     13  C   UNL     1      45.985   4.317   8.054  0.00  0.00    +0.000 A 
ATOM     14  C   UNL     1      46.175   2.998   7.659  0.00  0.00    +0.000 A 
ATOM     15  C   UNL     1      45.646   1.996   8.454  0.00  0.00    +0.000 A 
ATOM     16  N   UNL     1      44.944   2.223   9.586  0.00  0.00    +0.000 NA
ENDBRANCH  10  11
ENDBRANCH   9  10
ENDBRANCH   7   9
ENDBRANCH   1   7
BRANCH   4  17
ATOM     17  C   UNL     1      47.682   8.534  14.343  0.00  0.00    +0.000 C 
BRANCH  17  18
ATOM     18  N   UNL     1      48.409   7.506  15.058  0.00  0.00    +0.000 N 
ATOM     19  C   UNL     1      48.684   7.569  16.399  0.00  0.00    +0.000 C 
ATOM     20  O   UNL     1      48.335   8.514  17.099  0.00  0.00    +0.000 OA
ATOM     21  H   UNL     1      48.814   6.763  14.498  0.00  0.00    +0.000 HD
BRANCH  19  22
ATOM     22  C   UNL     1      49.379   6.408  16.971  0.00  0.00    +0.000 A 
ATOM     23  C   UNL     1      50.539   6.603  17.708  0.00  0.00    +0.000 A 
ATOM     24  S   UNL     1      51.206   5.162  18.328  0.00  0.00    +0.000 S 
ATOM     25  C   UNL     1      49.995   4.220  17.596  0.00  0.00    +0.000 A 
ATOM     26  N   UNL     1      49.996   2.866  17.714  0.00  0.00    +0.000 NA
ATOM     27  C   UNL     1      49.049   2.268  17.074  0.00  0.00    +0.000 A 
ATOM     28  N   UNL     1      48.087   2.909  16.334  0.00  0.00    +0.000 N 
ATOM     29  C   UNL     1      47.999   4.275  16.255  0.00  0.00    +0.000 A 
ATOM     30  O   UNL     1      47.053   4.814  15.693  0.00  0.00    +0.000 OA
ATOM     31  C   UNL     1      49.076   4.995  16.910  0.00  0.00    +0.000 A 
ATOM     32  H   UNL     1      47.351   2.388  15.878  0.00  0.00    +0.000 HD
ENDBRANCH  19  22
ENDBRANCH  17  18
ENDBRANCH   4  17
TORSDOF 7
ENDMDL
MODEL 2
REMARK VINA RESULT:    -7.084      2.378      2.970
REMARK INTER + INTRA:         -11.474
REMARK INTER:                 -10.232
REMARK INTRA:                  -1.242
REMARK UNBOUND:                -1.490
REMARK  Name = 
REMARK  8 active torsions:
REMARK  status: ('A' for Active; 'I' for Inactive)
REMARK    1  A    between atoms: C_1  and  N_2
REMARK    2  A    between atoms: N_2  and  C_3
REMARK    3  A    between atoms: N_2  and  C_24
REMARK    4  A    between atoms: C_3  and  C_4
REMARK    5  A    between atoms: C_7  and  C_8
REMARK    6  A    between atoms: C_8  and  N_9
REMARK    7  A    between atoms: C_10  and  C_12
REMARK    8  A    between atoms: C_24  and  C_25
REMARK                            x       y       z     vdW  Elec       q    Type
REMARK                         _______ _______ _______ _____ _____    ______ ____
ROOT
ATOM      1  C   UNL     1      46.173   5.674  12.543  0.00  0.00    +0.000 C 
ATOM      2  C   UNL     1      46.975   5.477  13.608  0.00  0.00    +0.000 C 
ATOM      3  C   UNL     1      48.225   6.265  13.864  0.00  0.00    +0.000 C 
ATOM      4  C   UNL     1      48.288   7.579  13.066  0.00  0.00    +0.000 C 
ATOM      5  C   UNL     1      47.952   7.251  11.603  0.00  0.00    +0.000 C 
ATOM      6  C   UNL     1      46.542   6.655  11.449  0.00  0.00    +0.000 C 
ENDROOT
BRANCH   1   7
ATOM      7  C   UNL     1      44.881   4.900  12.377  0.00  0.00    +0.000 C 
BRANCH   7   9
ATOM      8  C   UNL     1      42.918   5.880  11.329  0.00  0.00    +0.000 C 
ATOM      9  N   UNL     1      44.178   5.152  11.102  0.00  0.00    +0.000 NA
BRANCH   9  10
ATOM     10  C   UNL     1      43.878   3.841  10.465  0.00  0.00    +0.000 C 
BRANCH  10  11
ATOM     11  C   UNL     1      44.886   3.407   9.409  0.00  0.00    +0.000 A 
ATOM     12  C   UNL     1      45.471   4.352   8.571  0.00  0.00    +0.000 A 
ATOM     13  C   UNL     1      46.331   3.918   7.565  0.00  0.00    +0.000 A 
ATOM     14  C   UNL     1      46.588   2.559   7.428  0.00  0.00    +0.000 A 
ATOM     15  C   UNL     1      45.977   1.686   8.311  0.00  0.00    +0.000 A 
ATOM     16  N   UNL     1      45.135   2.075   9.294  0.00  0.00    +0.000 NA
ENDBRANCH  10  11
ENDBRANCH   9  10
ENDBRANCH   7   9
ENDBRANCH   1   7
BRANCH   4  17
ATOM     17  C   UNL     1      47.345   8.671  13.611  0.00  0.00    +0.000 C 
BRANCH  17  18
ATOM     18  N   UNL     1      47.342   8.736  15.058  0.00  0.00    +0.000 N 
ATOM     19  C   UNL     1      48.255   9.455  15.783  0.00  0.00    +0.000 C 
ATOM     20  O   UNL     1      49.154  10.101  15.255  0.00  0.00    +0.000 OA
ATOM     21  H   UNL     1      46.688   8.127  15.538  0.00  0.00    +0.000 HD
BRANCH  19  22
ATOM     22  C   UNL     1      48.066   9.457  17.240  0.00  0.00    +0.000 A 
ATOM     23  C   UNL     1      47.776  10.649  17.889  0.00  0.00    +0.000 A 
ATOM     24  S   UNL     1      47.556  10.478  19.570  0.00  0.00    +0.000 S 
ATOM     25  C   UNL     1      47.886   8.812  19.500  0.00  0.00    +0.000 A 
ATOM     26  N   UNL     1      47.890   8.053  20.628  0.00  0.00    +0.000 NA
ATOM     27  C   UNL     1      48.199   6.814  20.442  0.00  0.00    +0.000 A 
ATOM     28  N   UNL     1      48.492   6.261  19.221  0.00  0.00    +0.000 N 
ATOM     29  C   UNL     1      48.421   6.970  18.049  0.00  0.00    +0.000 A 
ATOM     30  O   UNL     1      48.563   6.413  16.967  0.00  0.00    +0.000 OA
ATOM     31  C   UNL     1      48.134   8.384  18.208  0.00  0.00    +0.000 A 
ATOM     32  H   UNL     1      48.699   5.275  19.134  0.00  0.00    +0.000 HD
ENDBRANCH  19  22
ENDBRANCH  17  18
ENDBRANCH   4  17
TORSDOF 7
ENDMDL
MODEL 3
REMARK VINA RESULT:    -7.024      2.894      7.829
REMARK INTER + INTRA:         -11.388
REMARK INTER:                  -9.735
REMARK INTRA:                  -1.653
REMARK UNBOUND:                -1.490
REMARK  Name = 
REMARK  8 active torsions:
REMARK  status: ('A' for Active; 'I' for Inactive)
REMARK    1  A    between atoms: C_1  and  N_2
REMARK    2  A    between atoms: N_2  and  C_3
REMARK    3  A    between atoms: N_2  and  C_24
REMARK    4  A    between atoms: C_3  and  C_4
REMARK    5  A    between atoms: C_7  and  C_8
REMARK    6  A    between atoms: C_8  and  N_9
REMARK    7  A    between atoms: C_10  and  C_12
REMARK    8  A    between atoms: C_24  and  C_25
REMARK                            x       y       z     vdW  Elec       q    Type
REMARK                         _______ _______ _______ _____ _____    ______ ____
ROOT
ATOM      1  C   UNL     1      51.487   6.642  17.720  0.00  0.00    +0.000 C 
ATOM      2  C   UNL     1      50.427   7.245  18.293  0.00  0.00    +0.000 C 
ATOM      3  C   UNL     1      49.340   7.929  17.516  0.00  0.00    +0.000 C 
ATOM      4  C   UNL     1      49.306   7.520  16.033  0.00  0.00    +0.000 C 
ATOM      5  C   UNL     1      50.738   7.634  15.487  0.00  0.00    +0.000 C 
ATOM      6  C   UNL     1      51.717   6.705  16.225  0.00  0.00    +0.000 C 
ENDROOT
BRANCH   1   7
ATOM      7  C   UNL     1      52.513   5.899  18.553  0.00  0.00    +0.000 C 
BRANCH   7   9
ATOM      8  C   UNL     1      52.937   4.218  20.257  0.00  0.00    +0.000 C 
ATOM      9  N   UNL     1      51.988   4.702  19.241  0.00  0.00    +0.000 NA
BRANCH   9  10
ATOM     10  C   UNL     1      51.771   3.635  18.226  0.00  0.00    +0.000 C 
BRANCH  10  11
ATOM     11  C   UNL     1      50.311   3.383  17.876  0.00  0.00    +0.000 A 
ATOM     12  C   UNL     1      49.300   3.890  18.689  0.00  0.00    +0.000 A 
ATOM     13  C   UNL     1      47.976   3.581  18.387  0.00  0.00    +0.000 A 
ATOM     14  C   UNL     1      47.697   2.783  17.283  0.00  0.00    +0.000 A 
ATOM     15  C   UNL     1      48.759   2.331  16.519  0.00  0.00    +0.000 A 
ATOM     16  N   UNL     1      50.054   2.610  16.788  0.00  0.00    +0.000 NA
ENDBRANCH  10  11
ENDBRANCH   9  10
ENDBRANCH   7   9
ENDBRANCH   1   7
BRANCH   4  17
ATOM     17  C   UNL     1      48.743   6.103  15.802  0.00  0.00    +0.000 C 
BRANCH  17  18
ATOM     18  N   UNL     1      47.597   6.094  14.918  0.00  0.00    +0.000 N 
ATOM     19  C   UNL     1      47.697   6.072  13.552  0.00  0.00    +0.000 C 
ATOM     20  O   UNL     1      48.776   6.061  12.971  0.00  0.00    +0.000 OA
ATOM     21  H   UNL     1      46.688   6.217  15.353  0.00  0.00    +0.000 HD
BRANCH  19  22
ATOM     22  C   UNL     1      46.429   6.004  12.813  0.00  0.00    +0.000 A 
ATOM     23  C   UNL     1      45.885   7.167  12.285  0.00  0.00    +0.000 A 
ATOM     24  S   UNL     1      44.431   6.917  11.431  0.00  0.00    +0.000 S 
ATOM     25  C   UNL     1      44.450   5.252  11.775  0.00  0.00    +0.000 A 
ATOM     26  N   UNL     1      43.449   4.438  11.347  0.00  0.00    +0.000 NA
ATOM     27  C   UNL     1      43.562   3.206  11.714  0.00  0.00    +0.000 A 
ATOM     28  N   UNL     1      44.600   2.711  12.463  0.00  0.00    +0.000 N 
ATOM     29  C   UNL     1      45.670   3.477  12.846  0.00  0.00    +0.000 A 
ATOM     30  O   UNL     1      46.639   2.972  13.401  0.00  0.00    +0.000 OA
ATOM     31  C   UNL     1      45.566   4.885  12.508  0.00  0.00    +0.000 A 
ATOM     32  H   UNL     1      44.648   1.728  12.694  0.00  0.00    +0.000 HD
ENDBRANCH  19  22
ENDBRANCH  17  18
ENDBRANCH   4  17
TORSDOF 7
ENDMDL
MODEL 4
REMARK VINA RESULT:    -6.833      2.928      7.618
REMARK INTER + INTRA:         -11.120
REMARK INTER:                  -9.925
REMARK INTRA:                  -1.195
REMARK UNBOUND:                -1.490
REMARK  Name = 
REMARK  8 active torsions:
REMARK  status: ('A' for Active; 'I' for Inactive)
REMARK    1  A    between atoms: C_1  and  N_2
REMARK    2  A    between atoms: N_2  and  C_3
REMARK    3  A    between atoms: N_2  and  C_24
REMARK    4  A    between atoms: C_3  and  C_4
REMARK    5  A    between atoms: C_7  and  C_8
REMARK    6  A    between atoms: C_8  and  N_9
REMARK    7  A    between atoms: C_10  and  C_12
REMARK    8  A    between atoms: C_24  and  C_25
REMARK                            x       y       z     vdW  Elec       q    Type
REMARK                         _______ _______ _______ _____ _____    ______ ____
ROOT
ATOM      1  C   UNL     1      49.504   8.384  14.164  0.00  0.00    +0.000 C 
ATOM      2  C   UNL     1      49.018   9.585  13.797  0.00  0.00    +0.000 C 
ATOM      3  C   UNL     1      48.133   9.793  12.604  0.00  0.00    +0.000 C 
ATOM      4  C   UNL     1      47.484   8.494  12.096  0.00  0.00    +0.000 C 
ATOM      5  C   UNL     1      48.594   7.438  11.971  0.00  0.00    +0.000 C 
ATOM      6  C   UNL     1      49.274   7.148  13.320  0.00  0.00    +0.000 C 
ENDROOT
BRANCH   1   7
ATOM      7  C   UNL     1      50.330   8.222  15.425  0.00  0.00    +0.000 C 
BRANCH   7   9
ATOM      8  C   UNL     1      49.730   8.397  17.775  0.00  0.00    +0.000 C 
ATOM      9  N   UNL     1      49.609   7.590  16.549  0.00  0.00    +0.000 NA
BRANCH   9  10
ATOM     10  C   UNL     1      50.201   6.245  16.789  0.00  0.00    +0.000 C 
BRANCH  10  11
ATOM     11  C   UNL     1      49.183   5.145  17.052  0.00  0.00    +0.000 A 
ATOM     12  C   UNL     1      49.318   4.318  18.164  0.00  0.00    +0.000 A 
ATOM     13  C   UNL     1      48.415   3.272  18.338  0.00  0.00    +0.000 A 
ATOM     14  C   UNL     1      47.403   3.083  17.405  0.00  0.00    +0.000 A 
ATOM     15  C   UNL     1      47.330   3.958  16.334  0.00  0.00    +0.000 A 
ATOM     16  N   UNL     1      48.192   4.979  16.135  0.00  0.00    +0.000 NA
ENDBRANCH  10  11
ENDBRANCH   9  10
ENDBRANCH   7   9
ENDBRANCH   1   7
BRANCH   4  17
ATOM     17  C   UNL     1      46.344   7.985  13.002  0.00  0.00    +0.000 C 
BRANCH  17  18
ATOM     18  N   UNL     1      45.855   6.681  12.606  0.00  0.00    +0.000 N 
ATOM     19  C   UNL     1      44.788   6.497  11.767  0.00  0.00    +0.000 C 
ATOM     20  O   UNL     1      44.159   7.434  11.287  0.00  0.00    +0.000 OA
ATOM     21  H   UNL     1      46.273   5.880  13.069  0.00  0.00    +0.000 HD
BRANCH  19  22
ATOM     22  C   UNL     1      44.468   5.105  11.425  0.00  0.00    +0.000 A 
ATOM     23  C   UNL     1      43.705   4.346  12.302  0.00  0.00    +0.000 A 
ATOM     24  S   UNL     1      43.395   2.764  11.747  0.00  0.00    +0.000 S 
ATOM     25  C   UNL     1      44.309   3.020  10.337  0.00  0.00    +0.000 A 
ATOM     26  N   UNL     1      44.475   2.028   9.421  0.00  0.00    +0.000 NA
ATOM     27  C   UNL     1      45.227   2.339   8.420  0.00  0.00    +0.000 A 
ATOM     28  N   UNL     1      45.820   3.564   8.244  0.00  0.00    +0.000 N 
ATOM     29  C   UNL     1      45.614   4.617   9.098  0.00  0.00    +0.000 A 
ATOM     30  O   UNL     1      46.054   5.731   8.841  0.00  0.00    +0.000 OA
ATOM     31  C   UNL     1      44.822   4.304  10.273  0.00  0.00    +0.000 A 
ATOM     32  H   UNL     1      46.376   3.758   7.423  0.00  0.00    +0.000 HD
ENDBRANCH  19  22
ENDBRANCH  17  18
ENDBRANCH   4  17
TORSDOF 7
ENDMDL
MODEL 5
REMARK VINA RESULT:    -6.721      1.853      2.500
REMARK INTER + INTRA:         -10.962
REMARK INTER:                 -10.618
REMARK INTRA:                  -0.344
REMARK UNBOUND:                -1.490
REMARK  Name = 
REMARK  8 active torsions:
REMARK  status: ('A' for Active; 'I' for Inactive)
REMARK    1  A    between atoms: C_1  and  N_2
REMARK    2  A    between atoms: N_2  and  C_3
REMARK    3  A    between atoms: N_2  and  C_24
REMARK    4  A    between atoms: C_3  and  C_4
REMARK    5  A    between atoms: C_7  and  C_8
REMARK    6  A    between atoms: C_8  and  N_9
REMARK    7  A    between atoms: C_10  and  C_12
REMARK    8  A    between atoms: C_24  and  C_25
REMARK                            x       y       z     vdW  Elec       q    Type
REMARK                         _______ _______ _______ _____ _____    ______ ____
ROOT
ATOM      1  C   UNL     1      47.396   6.995  12.428  0.00  0.00    +0.000 C 
ATOM      2  C   UNL     1      48.724   6.770  12.414  0.00  0.00    +0.000 C 
ATOM      3  C   UNL     1      49.677   7.354  13.415  0.00  0.00    +0.000 C 
ATOM      4  C   UNL     1      48.980   7.868  14.687  0.00  0.00    +0.000 C 
ATOM      5  C   UNL     1      47.797   8.745  14.248  0.00  0.00    +0.000 C 
ATOM      6  C   UNL     1      46.770   7.960  13.413  0.00  0.00    +0.000 C 
ENDROOT
BRANCH   1   7
ATOM      7  C   UNL     1      46.473   6.314  11.438  0.00  0.00    +0.000 C 
BRANCH   7   9
ATOM      8  C   UNL     1      45.662   4.427  12.739  0.00  0.00    +0.000 C 
ATOM      9  N   UNL     1      45.290   5.673  12.049  0.00  0.00    +0.000 NA
BRANCH   9  10
ATOM     10  C   UNL     1      44.315   5.361  10.968  0.00  0.00    +0.000 C 
BRANCH  10  11
ATOM     11  C   UNL     1      44.803   4.335   9.954  0.00  0.00    +0.000 A 
ATOM     12  C   UNL     1      45.580   4.738   8.871  0.00  0.00    +0.000 A 
ATOM     13  C   UNL     1      45.948   3.791   7.919  0.00  0.00    +0.000 A 
ATOM     14  C   UNL     1      45.539   2.472   8.075  0.00  0.00    +0.000 A 
ATOM     15  C   UNL     1      44.780   2.151   9.188  0.00  0.00    +0.000 A 
ATOM     16  N   UNL     1      44.403   3.047  10.127  0.00  0.00    +0.000 NA
ENDBRANCH  10  11
ENDBRANCH   9  10
ENDBRANCH   7   9
ENDBRANCH   1   7
BRANCH   4  17
ATOM     17  C   UNL     1      48.505   6.737  15.622  0.00  0.00    +0.000 C 
BRANCH  17  18
ATOM     18  N   UNL     1      49.599   6.077  16.303  0.00  0.00    +0.000 N 
ATOM     19  C   UNL     1      49.422   5.112  17.259  0.00  0.00    +0.000 C 
ATOM     20  O   UNL     1      48.311   4.734  17.615  0.00  0.00    +0.000 OA
ATOM     21  H   UNL     1      50.530   6.439  16.121  0.00  0.00    +0.000 HD
BRANCH  19  22
ATOM     22  C   UNL     1      50.646   4.507  17.801  0.00  0.00    +0.000 A 
ATOM     23  C   UNL     1      51.524   5.289  18.539  0.00  0.00    +0.000 A 
ATOM     24  S   UNL     1      52.878   4.434  19.123  0.00  0.00    +0.000 S 
ATOM     25  C   UNL     1      52.365   2.999  18.371  0.00  0.00    +0.000 A 
ATOM     26  N   UNL     1      53.107   1.862  18.456  0.00  0.00    +0.000 NA
ATOM     27  C   UNL     1      52.629   0.856  17.803  0.00  0.00    +0.000 A 
ATOM     28  N   UNL     1      51.461   0.883  17.082  0.00  0.00    +0.000 N 
ATOM     29  C   UNL     1      50.642   1.981  17.036  0.00  0.00    +0.000 A 
ATOM     30  O   UNL     1      49.547   1.927  16.490  0.00  0.00    +0.000 OA
ATOM     31  C   UNL     1      51.162   3.159  17.706  0.00  0.00    +0.000 A 
ATOM     32  H   UNL     1      51.122   0.053  16.615  0.00  0.00    +0.000 HD
ENDBRANCH  19  22
ENDBRANCH  17  18
ENDBRANCH   4  17
TORSDOF 7
ENDMDL
MODEL 6
REMARK VINA RESULT:    -6.512      3.033      7.951
REMARK INTER + INTRA:         -10.667
REMARK INTER:                  -8.828
REMARK INTRA:                  -1.839
REMARK UNBOUND:                -1.490
REMARK  Name = 
REMARK  8 active torsions:
REMARK  status: ('A' for Active; 'I' for Inactive)
REMARK    1  A    between atoms: C_1  and  N_2
REMARK    2  A    between atoms: N_2  and  C_3
REMARK    3  A    between atoms: N_2  and  C_24
REMARK    4  A    between atoms: C_3  and  C_4
REMARK    5  A    between atoms: C_7  and  C_8
REMARK    6  A    between atoms: C_8  and  N_9
REMARK    7  A    between atoms: C_10  and  C_12
REMARK    8  A    between atoms: C_24  and  C_25
REMARK                            x       y       z     vdW  Elec       q    Type
REMARK                         _______ _______ _______ _____ _____    ______ ____
ROOT
ATOM      1  C   UNL     1      48.569   5.560  19.265  0.00  0.00    +0.000 C 
ATOM      2  C   UNL     1      49.608   4.807  18.853  0.00  0.00    +0.000 C 
ATOM      3  C   UNL     1      49.529   3.835  17.713  0.00  0.00    +0.000 C 
ATOM      4  C   UNL     1      48.318   4.076  16.794  0.00  0.00    +0.000 C 
ATOM      5  C   UNL     1      47.076   4.213  17.688  0.00  0.00    +0.000 C 
ATOM      6  C   UNL     1      47.189   5.397  18.664  0.00  0.00    +0.000 C 
ENDROOT
BRANCH   1   7
ATOM      7  C   UNL     1      48.730   6.582  20.373  0.00  0.00    +0.000 C 
BRANCH   7   9
ATOM      8  C   UNL     1      49.759   8.648  21.138  0.00  0.00    +0.000 C 
ATOM      9  N   UNL     1      49.440   7.813  19.968  0.00  0.00    +0.000 NA
BRANCH   9  10
ATOM     10  C   UNL     1      48.559   8.580  19.045  0.00  0.00    +0.000 C 
BRANCH  10  11
ATOM     11  C   UNL     1      49.029   8.603  17.597  0.00  0.00    +0.000 A 
ATOM     12  C   UNL     1      50.319   8.191  17.274  0.00  0.00    +0.000 A 
ATOM     13  C   UNL     1      50.747   8.294  15.953  0.00  0.00    +0.000 A 
ATOM     14  C   UNL     1      49.878   8.798  14.992  0.00  0.00    +0.000 A 
ATOM     15  C   UNL     1      48.607   9.172  15.393  0.00  0.00    +0.000 A 
ATOM     16  N   UNL     1      48.163   9.088  16.667  0.00  0.00    +0.000 NA
ENDBRANCH  10  11
ENDBRANCH   9  10
ENDBRANCH   7   9
ENDBRANCH   1   7
BRANCH   4  17
ATOM     17  C   UNL     1      48.477   5.312  15.886  0.00  0.00    +0.000 C 
BRANCH  17  18
ATOM     18  N   UNL     1      47.371   5.475  14.965  0.00  0.00    +0.000 N 
ATOM     19  C   UNL     1      47.524   5.889  13.668  0.00  0.00    +0.000 C 
ATOM     20  O   UNL     1      48.620   6.158  13.187  0.00  0.00    +0.000 OA
ATOM     21  H   UNL     1      46.439   5.373  15.352  0.00  0.00    +0.000 HD
BRANCH  19  22
ATOM     22  C   UNL     1      46.300   5.940  12.858  0.00  0.00    +0.000 A 
ATOM     23  C   UNL     1      45.862   7.160  12.361  0.00  0.00    +0.000 A 
ATOM     24  S   UNL     1      44.447   7.047  11.417  0.00  0.00    +0.000 S 
ATOM     25  C   UNL     1      44.340   5.371  11.677  0.00  0.00    +0.000 A 
ATOM     26  N   UNL     1      43.315   4.646  11.155  0.00  0.00    +0.000 NA
ATOM     27  C   UNL     1      43.328   3.394  11.464  0.00  0.00    +0.000 A 
ATOM     28  N   UNL     1      44.287   2.795  12.243  0.00  0.00    +0.000 N 
ATOM     29  C   UNL     1      45.381   3.470  12.721  0.00  0.00    +0.000 A 
ATOM     30  O   UNL     1      46.282   2.877  13.302  0.00  0.00    +0.000 OA
ATOM     31  C   UNL     1      45.385   4.896  12.450  0.00  0.00    +0.000 A 
ATOM     32  H   UNL     1      44.260   1.802  12.427  0.00  0.00    +0.000 HD
ENDBRANCH  19  22
ENDBRANCH  17  18
ENDBRANCH   4  17
TORSDOF 7
ENDMDL
MODEL 7
REMARK VINA RESULT:    -6.510      2.887      8.258
REMARK INTER + INTRA:         -10.664
REMARK INTER:                  -9.090
REMARK INTRA:                  -1.574
REMARK UNBOUND:                -1.490
REMARK  Name = 
REMARK  8 active torsions:
REMARK  status: ('A' for Active; 'I' for Inactive)
REMARK    1  A    between atoms: C_1  and  N_2
REMARK    2  A    between atoms: N_2  and  C_3
REMARK    3  A    between atoms: N_2  and  C_24
REMARK    4  A    between atoms: C_3  and  C_4
REMARK    5  A    between atoms: C_7  and  C_8
REMARK    6  A    between atoms: C_8  and  N_9
REMARK    7  A    between atoms: C_10  and  C_12
REMARK    8  A    between atoms: C_24  and  C_25
REMARK                            x       y       z     vdW  Elec       q    Type
REMARK                         _______ _______ _______ _____ _____    ______ ____
ROOT
ATOM      1  C   UNL     1      50.422   3.514  18.097  0.00  0.00    +0.000 C 
ATOM      2  C   UNL     1      50.067   2.633  17.142  0.00  0.00    +0.000 C 
ATOM      3  C   UNL     1      48.669   2.502  16.612  0.00  0.00    +0.000 C 
ATOM      4  C   UNL     1      47.784   3.720  16.927  0.00  0.00    +0.000 C 
ATOM      5  C   UNL     1      47.941   4.034  18.423  0.00  0.00    +0.000 C 
ATOM      6  C   UNL     1      49.393   4.379  18.795  0.00  0.00    +0.000 C 
ENDROOT
BRANCH   1   7
ATOM      7  C   UNL     1      51.865   3.656  18.537  0.00  0.00    +0.000 C 
BRANCH   7   9
ATOM      8  C   UNL     1      54.114   4.039  17.696  0.00  0.00    +0.000 C 
ATOM      9  N   UNL     1      52.705   4.460  17.625  0.00  0.00    +0.000 NA
BRANCH   9  10
ATOM     10  C   UNL     1      52.600   5.889  18.027  0.00  0.00    +0.000 C 
BRANCH  10  11
ATOM     11  C   UNL     1      52.037   6.808  16.952  0.00  0.00    +0.000 A 
ATOM     12  C   UNL     1      50.741   7.306  17.065  0.00  0.00    +0.000 A 
ATOM     13  C   UNL     1      50.226   8.082  16.031  0.00  0.00    +0.000 A 
ATOM     14  C   UNL     1      51.015   8.345  14.918  0.00  0.00    +0.000 A 
ATOM     15  C   UNL     1      52.298   7.824  14.889  0.00  0.00    +0.000 A 
ATOM     16  N   UNL     1      52.825   7.065  15.874  0.00  0.00    +0.000 NA
ENDBRANCH  10  11
ENDBRANCH   9  10
ENDBRANCH   7   9
ENDBRANCH   1   7
BRANCH   4  17
ATOM     17  C   UNL     1      48.119   4.957  16.070  0.00  0.00    +0.000 C 
BRANCH  17  18
ATOM     18  N   UNL     1      47.120   5.223  15.056  0.00  0.00    +0.000 N 
ATOM     19  C   UNL     1      47.406   5.801  13.848  0.00  0.00    +0.000 C 
ATOM     20  O   UNL     1      48.541   6.143  13.533  0.00  0.00    +0.000 OA
ATOM     21  H   UNL     1      46.153   5.060  15.319  0.00  0.00    +0.000 HD
BRANCH  19  22
ATOM     22  C   UNL     1      46.279   5.941  12.916  0.00  0.00    +0.000 A 
ATOM     23  C   UNL     1      45.908   7.205  12.479  0.00  0.00    +0.000 A 
ATOM     24  S   UNL     1      44.605   7.195  11.379  0.00  0.00    +0.000 S 
ATOM     25  C   UNL     1      44.458   5.504  11.484  0.00  0.00    +0.000 A 
ATOM     26  N   UNL     1      43.492   4.843  10.792  0.00  0.00    +0.000 NA
ATOM     27  C   UNL     1      43.461   3.569  10.994  0.00  0.00    +0.000 A 
ATOM     28  N   UNL     1      44.324   2.892  11.820  0.00  0.00    +0.000 N 
ATOM     29  C   UNL     1      45.362   3.506  12.471  0.00  0.00    +0.000 A 
ATOM     30  O   UNL     1      46.189   2.851  13.095  0.00  0.00    +0.000 OA
ATOM     31  C   UNL     1      45.408   4.949  12.324  0.00  0.00    +0.000 A 
ATOM     32  H   UNL     1      44.268   1.887  11.915  0.00  0.00    +0.000 HD
ENDBRANCH  19  22
ENDBRANCH  17  18
ENDBRANCH   4  17
TORSDOF 7
ENDMDL
MODEL 8
REMARK VINA RESULT:    -6.449      2.914      7.130
REMARK INTER + INTRA:         -10.578
REMARK INTER:                  -9.345
REMARK INTRA:                  -1.233
REMARK UNBOUND:                -1.490
REMARK  Name = 
REMARK  8 active torsions:
REMARK  status: ('A' for Active; 'I' for Inactive)
REMARK    1  A    between atoms: C_1  and  N_2
REMARK    2  A    between atoms: N_2  and  C_3
REMARK    3  A    between atoms: N_2  and  C_24
REMARK    4  A    between atoms: C_3  and  C_4
REMARK    5  A    between atoms: C_7  and  C_8
REMARK    6  A    between atoms: C_8  and  N_9
REMARK    7  A    between atoms: C_10  and  C_12
REMARK    8  A    between atoms: C_24  and  C_25
REMARK                            x       y       z     vdW  Elec       q    Type
REMARK                         _______ _______ _______ _____ _____    ______ ____
ROOT
ATOM      1  C   UNL     1      49.701   8.635  16.493  0.00  0.00    +0.000 C 
ATOM      2  C   UNL     1      48.634   9.137  15.840  0.00  0.00    +0.000 C 
ATOM      3  C   UNL     1      48.650   9.511  14.387  0.00  0.00    +0.000 C 
ATOM      4  C   UNL     1      49.824   8.886  13.613  0.00  0.00    +0.000 C 
ATOM      5  C   UNL     1      51.105   9.148  14.421  0.00  0.00    +0.000 C 
ATOM      6  C   UNL     1      51.051   8.511  15.820  0.00  0.00    +0.000 C 
ENDROOT
BRANCH   1   7
ATOM      7  C   UNL     1      49.602   8.202  17.942  0.00  0.00    +0.000 C 
BRANCH   7   9
ATOM      8  C   UNL     1      47.469   8.231  19.108  0.00  0.00    +0.000 C 
ATOM      9  N   UNL     1      48.381   7.437  18.268  0.00  0.00    +0.000 NA
BRANCH   9  10
ATOM     10  C   UNL     1      48.781   6.208  19.007  0.00  0.00    +0.000 C 
BRANCH  10  11
ATOM     11  C   UNL     1      48.685   4.924  18.194  0.00  0.00    +0.000 A 
ATOM     12  C   UNL     1      47.454   4.496  17.705  0.00  0.00    +0.000 A 
ATOM     13  C   UNL     1      47.384   3.279  17.031  0.00  0.00    +0.000 A 
ATOM     14  C   UNL     1      48.540   2.529  16.858  0.00  0.00    +0.000 A 
ATOM     15  C   UNL     1      49.727   3.032  17.362  0.00  0.00    +0.000 A 
ATOM     16  N   UNL     1      49.827   4.206  18.024  0.00  0.00    +0.000 NA
ENDBRANCH  10  11
ENDBRANCH   9  10
ENDBRANCH   7   9
ENDBRANCH   1   7
BRANCH   4  17
ATOM     17  C   UNL     1      49.646   7.378  13.345  0.00  0.00    +0.000 C 
BRANCH  17  18
ATOM     18  N   UNL     1      48.349   7.060  12.784  0.00  0.00    +0.000 N 
ATOM     19  C   UNL     1      47.509   6.116  13.312  0.00  0.00    +0.000 C 
ATOM     20  O   UNL     1      47.797   5.461  14.308  0.00  0.00    +0.000 OA
ATOM     21  H   UNL     1      48.120   7.495  11.896  0.00  0.00    +0.000 HD
BRANCH  19  22
ATOM     22  C   UNL     1      46.207   5.966  12.648  0.00  0.00    +0.000 A 
ATOM     23  C   UNL     1      45.575   7.087  12.127  0.00  0.00    +0.000 A 
ATOM     24  S   UNL     1      44.090   6.742  11.363  0.00  0.00    +0.000 S 
ATOM     25  C   UNL     1      44.214   5.090  11.744  0.00  0.00    +0.000 A 
ATOM     26  N   UNL     1      43.233   4.216  11.392  0.00  0.00    +0.000 NA
ATOM     27  C   UNL     1      43.429   3.001  11.779  0.00  0.00    +0.000 A 
ATOM     28  N   UNL     1      44.532   2.577  12.478  0.00  0.00    +0.000 N 
ATOM     29  C   UNL     1      45.582   3.406  12.782  0.00  0.00    +0.000 A 
ATOM     30  O   UNL     1      46.605   2.964  13.291  0.00  0.00    +0.000 OA
ATOM     31  C   UNL     1      45.386   4.797  12.419  0.00  0.00    +0.000 A 
ATOM     32  H   UNL     1      44.644   1.604  12.729  0.00  0.00    +0.000 HD
ENDBRANCH  19  22
ENDBRANCH  17  18
ENDBRANCH   4  17
TORSDOF 7
ENDMDL
MODEL 9
REMARK VINA RESULT:    -6.411      1.555      2.075
REMARK INTER + INTRA:         -10.525
REMARK INTER:                  -9.858
REMARK INTRA:                  -0.667
REMARK UNBOUND:                -1.490
REMARK  Name = 
REMARK  8 active torsions:
REMARK  status: ('A' for Active; 'I' for Inactive)
REMARK    1  A    between atoms: C_1  and  N_2
REMARK    2  A    between atoms: N_2  and  C_3
REMARK    3  A    between atoms: N_2  and  C_24
REMARK    4  A    between atoms: C_3  and  C_4
REMARK    5  A    between atoms: C_7  and  C_8
REMARK    6  A    between atoms: C_8  and  N_9
REMARK    7  A    between atoms: C_10  and  C_12
REMARK    8  A    between atoms: C_24  and  C_25
REMARK                            x       y       z     vdW  Elec       q    Type
REMARK                         _______ _______ _______ _____ _____    ______ ____
ROOT
ATOM      1  C   UNL     1      45.682   6.418  12.502  0.00  0.00    +0.000 C 
ATOM      2  C   UNL     1      46.962   6.041  12.314  0.00  0.00    +0.000 C 
ATOM      3  C   UNL     1      48.111   7.004  12.253  0.00  0.00    +0.000 C 
ATOM      4  C   UNL     1      47.776   8.386  12.842  0.00  0.00    +0.000 C 
ATOM      5  C   UNL     1      46.443   8.842  12.228  0.00  0.00    +0.000 C 
ATOM      6  C   UNL     1      45.290   7.880  12.560  0.00  0.00    +0.000 C 
ENDROOT
BRANCH   1   7
ATOM      7  C   UNL     1      44.573   5.393  12.634  0.00  0.00    +0.000 C 
BRANCH   7   9
ATOM      8  C   UNL     1      42.345   5.679  11.703  0.00  0.00    +0.000 C 
ATOM      9  N   UNL     1      43.728   5.252  11.430  0.00  0.00    +0.000 NA
BRANCH   9  10
ATOM     10  C   UNL     1      43.727   3.820  11.023  0.00  0.00    +0.000 C 
BRANCH  10  11
ATOM     11  C   UNL     1      44.588   3.509   9.807  0.00  0.00    +0.000 A 
ATOM     12  C   UNL     1      44.862   2.187   9.465  0.00  0.00    +0.000 A 
ATOM     13  C   UNL     1      45.715   1.934   8.393  0.00  0.00    +0.000 A 
ATOM     14  C   UNL     1      46.263   3.000   7.691  0.00  0.00    +0.000 A 
ATOM     15  C   UNL     1      45.929   4.284   8.087  0.00  0.00    +0.000 A 
ATOM     16  N   UNL     1      45.109   4.563   9.124  0.00  0.00    +0.000 NA
ENDBRANCH  10  11
ENDBRANCH   9  10
ENDBRANCH   7   9
ENDBRANCH   1   7
BRANCH   4  17
ATOM     17  C   UNL     1      47.700   8.391  14.382  0.00  0.00    +0.000 C 
BRANCH  17  18
ATOM     18  N   UNL     1      48.951   8.012  15.005  0.00  0.00    +0.000 N 
ATOM     19  C   UNL     1      49.185   6.771  15.535  0.00  0.00    +0.000 C 
ATOM     20  O   UNL     1      48.342   5.880  15.523  0.00  0.00    +0.000 OA
ATOM     21  H   UNL     1      49.633   8.751  15.138  0.00  0.00    +0.000 HD
BRANCH  19  22
ATOM     22  C   UNL     1      50.532   6.542  16.073  0.00  0.00    +0.000 A 
ATOM     23  C   UNL     1      51.588   7.325  15.626  0.00  0.00    +0.000 A 
ATOM     24  S   UNL     1      53.077   6.957  16.368  0.00  0.00    +0.000 S 
ATOM     25  C   UNL     1      52.376   5.705  17.281  0.00  0.00    +0.000 A 
ATOM     26  N   UNL     1      53.129   4.949  18.124  0.00  0.00    +0.000 NA
ATOM     27  C   UNL     1      52.484   4.005  18.722  0.00  0.00    +0.000 A 
ATOM     28  N   UNL     1      51.143   3.758  18.562  0.00  0.00    +0.000 N 
ATOM     29  C   UNL     1      50.331   4.544  17.787  0.00  0.00    +0.000 A 
ATOM     30  O   UNL     1      49.118   4.372  17.770  0.00  0.00    +0.000 OA
ATOM     31  C   UNL     1      51.017   5.587  17.045  0.00  0.00    +0.000 A 
ATOM     32  H   UNL     1      50.687   3.020  19.082  0.00  0.00    +0.000 HD
ENDBRANCH  19  22
ENDBRANCH  17  18
ENDBRANCH   4  17
TORSDOF 7
ENDMDL
