MODEL 1
REMARK VINA RESULT:    -8.734      0.000      0.000
REMARK INTER + INTRA:         -12.175
REMARK INTER:                 -11.287
REMARK INTRA:                  -0.888
REMARK UNBOUND:                -0.888
REMARK  Name = 
REMARK  5 active torsions:
REMARK  status: ('A' for Active; 'I' for Inactive)
REMARK    1  A    between atoms: C_2  and  C_4
REMARK    2  A    between atoms: C_7  and  O_8
REMARK    3  A    between atoms: O_8  and  C_9
REMARK    4  A    between atoms: C_9  and  C_10
REMARK    5  A    between atoms: C_15  and  C_16
REMARK                            x       y       z     vdW  Elec       q    Type
REMARK                         _______ _______ _______ _____ _____    ______ ____
ROOT
ATOM      1  C   UNL     1      43.554   4.342  11.151  0.00  0.00    +0.000 C 
ENDROOT
BRANCH   1   2
ATOM      2  C   UNL     1      44.767   4.751  11.956  0.00  0.00    +0.000 A 
ATOM      3  C   UNL     1      45.485   3.802  12.699  0.00  0.00    +0.000 A 
ATOM      4  C   UNL     1      46.589   4.194  13.449  0.00  0.00    +0.000 A 
ATOM      5  F   UNL     1      47.278   3.280  14.145  0.00  0.00    +0.000 F 
ATOM      6  C   UNL     1      46.988   5.521  13.490  0.00  0.00    +0.000 A 
ATOM      7  C   UNL     1      46.269   6.493  12.779  0.00  0.00    +0.000 A 
ATOM      8  C   UNL     1      45.155   6.096  12.027  0.00  0.00    +0.000 A 
BRANCH   7   9
ATOM      9  C   UNL     1      46.671   7.950  12.807  0.00  0.00    +0.000 C 
ATOM     10  C   UNL     1      45.577   8.837  12.203  0.00  0.00    +0.000 C 
ATOM     11  C   UNL     1      46.051  10.277  12.097  0.00  0.00    +0.000 C 
ATOM     12  O   UNL     1      47.277  10.355  11.374  0.00  0.00    +0.000 OA
ATOM     13  C   UNL     1      48.337   9.650  12.021  0.00  0.00    +0.000 C 
ATOM     14  C   UNL     1      48.017   8.167  12.108  0.00  0.00    +0.000 C 
ENDBRANCH   7   9
ENDBRANCH   1   2
BRANCH   1  15
ATOM     15  O   UNL     1      43.707   4.731   9.778  0.00  0.00    +0.000 OA
BRANCH  15  19
ATOM     16  C   UNL     1      46.358   2.308   7.764  0.00  0.00    +0.000 A 
ATOM     17  C   UNL     1      45.451   1.739   8.659  0.00  0.00    +0.000 A 
ATOM     18  C   UNL     1      44.555   2.564   9.340  0.00  0.00    +0.000 A 
ATOM     19  C   UNL     1      44.607   3.932   9.103  0.00  0.00    +0.000 A 
ATOM     20  N   UNL     1      45.482   4.508   8.250  0.00  0.00    +0.000 NA
ATOM     21  C   UNL     1      46.343   3.686   7.606  0.00  0.00    +0.000 A 
BRANCH  16  23
ATOM     22  N   UNL     1      48.421   2.171   6.498  0.00  0.00    +0.000 N 
ATOM     23  C   UNL     1      47.331   1.510   6.992  0.00  0.00    +0.000 C 
ATOM     24  O   UNL     1      47.187   0.309   6.830  0.00  0.00    +0.000 OA
ATOM     25  H   UNL     1      49.130   1.608   6.043  0.00  0.00    +0.000 HD
ATOM     26  H   UNL     1      48.684   3.100   6.797  0.00  0.00    +0.000 HD
ENDBRANCH  16  23
ENDBRANCH  15  19
ENDBRANCH   1  15
TORSDOF 5
ENDMDL
MODEL 2
REMARK VINA RESULT:    -8.536      1.328      1.747
REMARK INTER + INTRA:         -11.918
REMARK INTER:                 -11.053
REMARK INTRA:                  -0.865
REMARK UNBOUND:                -0.888
REMARK  Name = 
REMARK  5 active torsions:
REMARK  status: ('A' for Active; 'I' for Inactive)
REMARK    1  A    between atoms: C_2  and  C_4
REMARK    2  A    between atoms: C_7  and  O_8
REMARK    3  A    between atoms: O_8  and  C_9
REMARK    4  A    between atoms: C_9  and  C_10
REMARK    5  A    between atoms: C_15  and  C_16
REMARK                            x       y       z     vdW  Elec       q    Type
REMARK                         _______ _______ _______ _____ _____    ______ ____
ROOT
ATOM      1  C   UNL     1      43.584   4.510  11.215  0.00  0.00    +0.000 C 
ENDROOT
BRANCH   1   2
ATOM      2  C   UNL     1      44.874   4.822  11.938  0.00  0.00    +0.000 A 
ATOM      3  C   UNL     1      45.457   3.880  12.800  0.00  0.00    +0.000 A 
ATOM      4  C   UNL     1      46.634   4.187  13.474  0.00  0.00    +0.000 A 
ATOM      5  F   UNL     1      47.193   3.278  14.284  0.00  0.00    +0.000 F 
ATOM      6  C   UNL     1      47.242   5.423  13.320  0.00  0.00    +0.000 A 
ATOM      7  C   UNL     1      46.663   6.392  12.488  0.00  0.00    +0.000 A 
ATOM      8  C   UNL     1      45.475   6.082  11.813  0.00  0.00    +0.000 A 
BRANCH   7   9
ATOM      9  C   UNL     1      47.294   7.754  12.303  0.00  0.00    +0.000 C 
ATOM     10  C   UNL     1      48.663   7.642  11.624  0.00  0.00    +0.000 C 
ATOM     11  C   UNL     1      49.352   8.995  11.580  0.00  0.00    +0.000 C 
ATOM     12  O   UNL     1      49.436   9.563  12.886  0.00  0.00    +0.000 OA
ATOM     13  C   UNL     1      48.152   9.808  13.457  0.00  0.00    +0.000 C 
ATOM     14  C   UNL     1      47.390   8.504  13.636  0.00  0.00    +0.000 C 
ENDBRANCH   7   9
ENDBRANCH   1   2
BRANCH   1  15
ATOM     15  O   UNL     1      43.724   4.758   9.808  0.00  0.00    +0.000 OA
BRANCH  15  19
ATOM     16  C   UNL     1      46.226   2.057   7.963  0.00  0.00    +0.000 A 
ATOM     17  C   UNL     1      46.351   3.417   7.675  0.00  0.00    +0.000 A 
ATOM     18  C   UNL     1      45.500   4.328   8.303  0.00  0.00    +0.000 A 
ATOM     19  C   UNL     1      44.550   3.841   9.191  0.00  0.00    +0.000 A 
ATOM     20  N   UNL     1      44.401   2.530   9.478  0.00  0.00    +0.000 NA
ATOM     21  C   UNL     1      45.236   1.666   8.853  0.00  0.00    +0.000 A 
BRANCH  16  23
ATOM     22  N   UNL     1      46.814  -0.276   7.668  0.00  0.00    +0.000 N 
ATOM     23  C   UNL     1      47.091   1.026   7.356  0.00  0.00    +0.000 C 
ATOM     24  O   UNL     1      47.990   1.319   6.586  0.00  0.00    +0.000 OA
ATOM     25  H   UNL     1      47.352  -0.986   7.186  0.00  0.00    +0.000 HD
ATOM     26  H   UNL     1      45.954  -0.565   8.114  0.00  0.00    +0.000 HD
ENDBRANCH  16  23
ENDBRANCH  15  19
ENDBRANCH   1  15
TORSDOF 5
ENDMDL
MODEL 3
REMARK VINA RESULT:    -8.433      2.399      3.378
REMARK INTER + INTRA:         -11.786
REMARK INTER:                 -10.897
REMARK INTRA:                  -0.889
REMARK UNBOUND:                -0.888
REMARK  Name = 
REMARK  5 active torsions:
REMARK  status: ('A' for Active; 'I' for Inactive)
REMARK    1  A    between atoms: C_2  and  C_4
REMARK    2  A    between atoms: C_7  and  O_8
REMARK    3  A    between atoms: O_8  and  C_9
REMARK    4  A    between atoms: C_9  and  C_10
REMARK    5  A    between atoms: C_15  and  C_16
REMARK                            x       y       z     vdW  Elec       q    Type
REMARK                         _______ _______ _______ _____ _____    ______ ____
ROOT
ATOM      1  C   UNL     1      43.667   4.493  11.196  0.00  0.00    +0.000 C 
ENDROOT
BRANCH   1   2
ATOM      2  C   UNL     1      44.623   5.492  11.808  0.00  0.00    +0.000 A 
ATOM      3  C   UNL     1      44.579   6.844  11.437  0.00  0.00    +0.000 A 
ATOM      4  C   UNL     1      45.476   7.750  11.993  0.00  0.00    +0.000 A 
ATOM      5  F   UNL     1      45.418   9.042  11.646  0.00  0.00    +0.000 F 
ATOM      6  C   UNL     1      46.434   7.335  12.906  0.00  0.00    +0.000 A 
ATOM      7  C   UNL     1      46.518   5.983  13.270  0.00  0.00    +0.000 A 
ATOM      8  C   UNL     1      45.615   5.072  12.704  0.00  0.00    +0.000 A 
BRANCH   7   9
ATOM      9  C   UNL     1      47.555   5.493  14.256  0.00  0.00    +0.000 C 
ATOM     10  C   UNL     1      46.947   4.497  15.248  0.00  0.00    +0.000 C 
ATOM     11  C   UNL     1      47.956   4.128  16.323  0.00  0.00    +0.000 C 
ATOM     12  O   UNL     1      48.462   5.296  16.965  0.00  0.00    +0.000 OA
ATOM     13  C   UNL     1      49.162   6.152  16.062  0.00  0.00    +0.000 C 
ATOM     14  C   UNL     1      48.227   6.665  14.979  0.00  0.00    +0.000 C 
ENDBRANCH   7   9
ENDBRANCH   1   2
BRANCH   1  15
ATOM     15  O   UNL     1      43.592   4.676   9.774  0.00  0.00    +0.000 OA
BRANCH  15  19
ATOM     16  C   UNL     1      46.384   2.418   7.758  0.00  0.00    +0.000 A 
ATOM     17  C   UNL     1      45.563   1.807   8.707  0.00  0.00    +0.000 A 
ATOM     18  C   UNL     1      44.618   2.577   9.388  0.00  0.00    +0.000 A 
ATOM     19  C   UNL     1      44.538   3.933   9.097  0.00  0.00    +0.000 A 
ATOM     20  N   UNL     1      45.329   4.549   8.192  0.00  0.00    +0.000 NA
ATOM     21  C   UNL     1      46.239   3.782   7.548  0.00  0.00    +0.000 A 
BRANCH  16  23
ATOM     22  N   UNL     1      48.461   2.398   6.507  0.00  0.00    +0.000 N 
ATOM     23  C   UNL     1      47.400   1.679   6.982  0.00  0.00    +0.000 C 
ATOM     24  O   UNL     1      47.314   0.475   6.802  0.00  0.00    +0.000 OA
ATOM     25  H   UNL     1      49.199   1.877   6.049  0.00  0.00    +0.000 HD
ATOM     26  H   UNL     1      48.677   3.334   6.822  0.00  0.00    +0.000 HD
ENDBRANCH  16  23
ENDBRANCH  15  19
ENDBRANCH   1  15
TORSDOF 5
ENDMDL
MODEL 4
REMARK VINA RESULT:    -8.102      1.326      2.018
REMARK INTER + INTRA:         -11.357
REMARK INTER:                 -10.478
REMARK INTRA:                  -0.880
REMARK UNBOUND:                -0.888
REMARK  Name = 
REMARK  5 active torsions:
REMARK  status: ('A' for Active; 'I' for Inactive)
REMARK    1  A    between atoms: C_2  and  C_4
REMARK    2  A    between atoms: C_7  and  O_8
REMARK    3  A    between atoms: O_8  and  C_9
REMARK    4  A    between atoms: C_9  and  C_10
REMARK    5  A    between atoms: C_15  and  C_16
REMARK                            x       y       z     vdW  Elec       q    Type
REMARK                         _______ _______ _______ _____ _____    ______ ____
ROOT
ATOM      1  C   UNL     1      43.910   3.985  11.602  0.00  0.00    +0.000 C 
ENDROOT
BRANCH   1   2
ATOM      2  C   UNL     1      44.856   5.075  12.052  0.00  0.00    +0.000 A 
ATOM      3  C   UNL     1      45.851   4.810  13.005  0.00  0.00    +0.000 A 
ATOM      4  C   UNL     1      46.703   5.826  13.424  0.00  0.00    +0.000 A 
ATOM      5  F   UNL     1      47.660   5.563  14.324  0.00  0.00    +0.000 F 
ATOM      6  C   UNL     1      46.578   7.114  12.924  0.00  0.00    +0.000 A 
ATOM      7  C   UNL     1      45.572   7.410  11.992  0.00  0.00    +0.000 A 
ATOM      8  C   UNL     1      44.712   6.385  11.575  0.00  0.00    +0.000 A 
BRANCH   7   9
ATOM      9  C   UNL     1      45.401   8.804  11.432  0.00  0.00    +0.000 C 
ATOM     10  C   UNL     1      46.079   9.847  12.327  0.00  0.00    +0.000 C 
ATOM     11  C   UNL     1      45.774  11.253  11.839  0.00  0.00    +0.000 C 
ATOM     12  O   UNL     1      44.367  11.458  11.733  0.00  0.00    +0.000 OA
ATOM     13  C   UNL     1      43.759  10.584  10.783  0.00  0.00    +0.000 C 
ATOM     14  C   UNL     1      43.921   9.134  11.211  0.00  0.00    +0.000 C 
ENDBRANCH   7   9
ENDBRANCH   1   2
BRANCH   1  15
ATOM     15  O   UNL     1      43.582   4.146  10.214  0.00  0.00    +0.000 OA
BRANCH  15  19
ATOM     16  C   UNL     1      46.382   2.437   7.726  0.00  0.00    +0.000 A 
ATOM     17  C   UNL     1      46.128   3.806   7.635  0.00  0.00    +0.000 A 
ATOM     18  C   UNL     1      45.177   4.381   8.480  0.00  0.00    +0.000 A 
ATOM     19  C   UNL     1      44.511   3.559   9.381  0.00  0.00    +0.000 A 
ATOM     20  N   UNL     1      44.731   2.230   9.480  0.00  0.00    +0.000 NA
ATOM     21  C   UNL     1      45.654   1.696   8.646  0.00  0.00    +0.000 A 
BRANCH  16  23
ATOM     22  N   UNL     1      48.475   2.473   6.502  0.00  0.00    +0.000 N 
ATOM     23  C   UNL     1      47.379   1.749   6.881  0.00  0.00    +0.000 C 
ATOM     24  O   UNL     1      47.247   0.578   6.563  0.00  0.00    +0.000 OA
ATOM     25  H   UNL     1      49.197   1.976   5.995  0.00  0.00    +0.000 HD
ATOM     26  H   UNL     1      48.724   3.356   6.924  0.00  0.00    +0.000 HD
ENDBRANCH  16  23
ENDBRANCH  15  19
ENDBRANCH   1  15
TORSDOF 5
ENDMDL
MODEL 5
REMARK VINA RESULT:    -7.519      2.255      2.982
REMARK INTER + INTRA:         -10.604
REMARK INTER:                  -9.862
REMARK INTRA:                  -0.742
REMARK UNBOUND:                -0.888
REMARK  Name = 
REMARK  5 active torsions:
REMARK  status: ('A' for Active; 'I' for Inactive)
REMARK    1  A    between atoms: C_2  and  C_4
REMARK    2  A    between atoms: C_7  and  O_8
REMARK    3  A    between atoms: O_8  and  C_9
REMARK    4  A    between atoms: C_9  and  C_10
REMARK    5  A    between atoms: C_15  and  C_16
REMARK                            x       y       z     vdW  Elec       q    Type
REMARK                         _______ _______ _______ _____ _____    ______ ____
ROOT
ATOM      1  C   UNL     1      44.872   4.171  11.767  0.00  0.00    +0.000 C 
ENDROOT
BRANCH   1   2
ATOM      2  C   UNL     1      45.107   5.656  11.926  0.00  0.00    +0.000 A 
ATOM      3  C   UNL     1      44.213   6.585  11.373  0.00  0.00    +0.000 A 
ATOM      4  C   UNL     1      44.451   7.948  11.509  0.00  0.00    +0.000 A 
ATOM      5  F   UNL     1      43.586   8.830  10.991  0.00  0.00    +0.000 F 
ATOM      6  C   UNL     1      45.575   8.412  12.177  0.00  0.00    +0.000 A 
ATOM      7  C   UNL     1      46.498   7.503  12.713  0.00  0.00    +0.000 A 
ATOM      8  C   UNL     1      46.258   6.130  12.570  0.00  0.00    +0.000 A 
BRANCH   7   9
ATOM      9  C   UNL     1      47.738   7.974  13.439  0.00  0.00    +0.000 C 
ATOM     10  C   UNL     1      48.782   8.516  12.457  0.00  0.00    +0.000 C 
ATOM     11  C   UNL     1      50.078   8.844  13.179  0.00  0.00    +0.000 C 
ATOM     12  O   UNL     1      50.552   7.714  13.909  0.00  0.00    +0.000 OA
ATOM     13  C   UNL     1      49.641   7.304  14.928  0.00  0.00    +0.000 C 
ATOM     14  C   UNL     1      48.321   6.861  14.318  0.00  0.00    +0.000 C 
ENDBRANCH   7   9
ENDBRANCH   1   2
BRANCH   1  15
ATOM     15  O   UNL     1      44.143   3.904  10.560  0.00  0.00    +0.000 OA
BRANCH  15  19
ATOM     16  C   UNL     1      46.611   2.683   7.499  0.00  0.00    +0.000 A 
ATOM     17  C   UNL     1      46.327   4.040   7.651  0.00  0.00    +0.000 A 
ATOM     18  C   UNL     1      45.489   4.449   8.690  0.00  0.00    +0.000 A 
ATOM     19  C   UNL     1      44.962   3.480   9.534  0.00  0.00    +0.000 A 
ATOM     20  N   UNL     1      45.212   2.159   9.400  0.00  0.00    +0.000 NA
ATOM     21  C   UNL     1      46.024   1.788   8.382  0.00  0.00    +0.000 A 
BRANCH  16  23
ATOM     22  N   UNL     1      47.780   3.007   5.399  0.00  0.00    +0.000 N 
ATOM     23  C   UNL     1      47.496   2.163   6.437  0.00  0.00    +0.000 C 
ATOM     24  O   UNL     1      47.978   1.044   6.499  0.00  0.00    +0.000 OA
ATOM     25  H   UNL     1      48.454   2.681   4.716  0.00  0.00    +0.000 HD
ATOM     26  H   UNL     1      47.586   3.998   5.427  0.00  0.00    +0.000 HD
ENDBRANCH  16  23
ENDBRANCH  15  19
ENDBRANCH   1  15
TORSDOF 5
ENDMDL
MODEL 6
REMARK VINA RESULT:    -7.491      3.717      7.323
REMARK INTER + INTRA:         -10.568
REMARK INTER:                  -9.822
REMARK INTRA:                  -0.746
REMARK UNBOUND:                -0.888
REMARK  Name = 
REMARK  5 active torsions:
REMARK  status: ('A' for Active; 'I' for Inactive)
REMARK    1  A    between atoms: C_2  and  C_4
REMARK    2  A    between atoms: C_7  and  O_8
REMARK    3  A    between atoms: O_8  and  C_9
REMARK    4  A    between atoms: C_9  and  C_10
REMARK    5  A    between atoms: C_15  and  C_16
REMARK                            x       y       z     vdW  Elec       q    Type
REMARK                         _______ _______ _______ _____ _____    ______ ____
ROOT
ATOM      1  C   UNL     1      46.443   7.140  12.182  0.00  0.00    +0.000 C 
ENDROOT
BRANCH   1   2
ATOM      2  C   UNL     1      45.390   6.277  11.523  0.00  0.00    +0.000 A 
ATOM      3  C   UNL     1      44.069   6.278  11.993  0.00  0.00    +0.000 A 
ATOM      4  C   UNL     1      43.114   5.465  11.391  0.00  0.00    +0.000 A 
ATOM      5  F   UNL     1      41.850   5.482  11.835  0.00  0.00    +0.000 F 
ATOM      6  C   UNL     1      43.450   4.634  10.333  0.00  0.00    +0.000 A 
ATOM      7  C   UNL     1      44.772   4.593   9.865  0.00  0.00    +0.000 A 
ATOM      8  C   UNL     1      45.732   5.410  10.477  0.00  0.00    +0.000 A 
BRANCH   7   9
ATOM      9  C   UNL     1      45.176   3.692   8.720  0.00  0.00    +0.000 C 
ATOM     10  C   UNL     1      45.546   2.292   9.221  0.00  0.00    +0.000 C 
ATOM     11  C   UNL     1      46.093   1.443   8.086  0.00  0.00    +0.000 C 
ATOM     12  O   UNL     1      47.186   2.099   7.445  0.00  0.00    +0.000 OA
ATOM     13  C   UNL     1      46.801   3.336   6.845  0.00  0.00    +0.000 C 
ATOM     14  C   UNL     1      46.314   4.313   7.902  0.00  0.00    +0.000 C 
ENDBRANCH   7   9
ENDBRANCH   1   2
BRANCH   1  15
ATOM     15  O   UNL     1      47.642   6.384  12.409  0.00  0.00    +0.000 OA
BRANCH  15  19
ATOM     16  C   UNL     1      47.864   4.949  16.262  0.00  0.00    +0.000 A 
ATOM     17  C   UNL     1      48.499   6.149  15.939  0.00  0.00    +0.000 A 
ATOM     18  C   UNL     1      48.421   6.631  14.631  0.00  0.00    +0.000 A 
ATOM     19  C   UNL     1      47.715   5.887  13.694  0.00  0.00    +0.000 A 
ATOM     20  N   UNL     1      47.103   4.717  13.979  0.00  0.00    +0.000 NA
ATOM     21  C   UNL     1      47.197   4.269  15.253  0.00  0.00    +0.000 A 
BRANCH  16  23
ATOM     22  N   UNL     1      47.264   3.165  17.791  0.00  0.00    +0.000 N 
ATOM     23  C   UNL     1      47.884   4.372  17.621  0.00  0.00    +0.000 C 
ATOM     24  O   UNL     1      48.455   4.930  18.543  0.00  0.00    +0.000 OA
ATOM     25  H   UNL     1      47.352   2.731  18.701  0.00  0.00    +0.000 HD
ATOM     26  H   UNL     1      46.983   2.577  17.018  0.00  0.00    +0.000 HD
ENDBRANCH  16  23
ENDBRANCH  15  19
ENDBRANCH   1  15
TORSDOF 5
ENDMDL
MODEL 7
REMARK VINA RESULT:    -7.043      3.080      6.919
REMARK INTER + INTRA:          -9.989
REMARK INTER:                  -9.203
REMARK INTRA:                  -0.787
REMARK UNBOUND:                -0.888
REMARK  Name = 
REMARK  5 active torsions:
REMARK  status: ('A' for Active; 'I' for Inactive)
REMARK    1  A    between atoms: C_2  and  C_4
REMARK    2  A    between atoms: C_7  and  O_8
REMARK    3  A    between atoms: O_8  and  C_9
REMARK    4  A    between atoms: C_9  and  C_10
REMARK    5  A    between atoms: C_15  and  C_16
REMARK                            x       y       z     vdW  Elec       q    Type
REMARK                         _______ _______ _______ _____ _____    ______ ____
ROOT
ATOM      1  C   UNL     1      44.028   6.707  11.360  0.00  0.00    +0.000 C 
ENDROOT
BRANCH   1   2
ATOM      2  C   UNL     1      44.054   5.232  11.027  0.00  0.00    +0.000 A 
ATOM      3  C   UNL     1      43.539   4.287  11.926  0.00  0.00    +0.000 A 
ATOM      4  C   UNL     1      43.587   2.931  11.616  0.00  0.00    +0.000 A 
ATOM      5  F   UNL     1      43.080   2.035  12.473  0.00  0.00    +0.000 F 
ATOM      6  C   UNL     1      44.152   2.491  10.429  0.00  0.00    +0.000 A 
ATOM      7  C   UNL     1      44.699   3.415   9.527  0.00  0.00    +0.000 A 
ATOM      8  C   UNL     1      44.654   4.779   9.844  0.00  0.00    +0.000 A 
BRANCH   7   9
ATOM      9  C   UNL     1      45.331   2.970   8.227  0.00  0.00    +0.000 C 
ATOM     10  C   UNL     1      46.079   1.644   8.401  0.00  0.00    +0.000 C 
ATOM     11  C   UNL     1      46.834   1.283   7.133  0.00  0.00    +0.000 C 
ATOM     12  O   UNL     1      47.696   2.348   6.737  0.00  0.00    +0.000 OA
ATOM     13  C   UNL     1      46.979   3.542   6.428  0.00  0.00    +0.000 C 
ATOM     14  C   UNL     1      46.246   4.058   7.655  0.00  0.00    +0.000 C 
ENDBRANCH   7   9
ENDBRANCH   1   2
BRANCH   1  15
ATOM     15  O   UNL     1      45.276   7.323  11.010  0.00  0.00    +0.000 OA
BRANCH  15  19
ATOM     16  C   UNL     1      48.004   7.265  14.094  0.00  0.00    +0.000 A 
ATOM     17  C   UNL     1      47.979   6.211  13.180  0.00  0.00    +0.000 A 
ATOM     18  C   UNL     1      47.052   6.235  12.136  0.00  0.00    +0.000 A 
ATOM     19  C   UNL     1      46.179   7.313  12.053  0.00  0.00    +0.000 A 
ATOM     20  N   UNL     1      46.175   8.338  12.932  0.00  0.00    +0.000 NA
ATOM     21  C   UNL     1      47.081   8.289  13.937  0.00  0.00    +0.000 A 
BRANCH  16  23
ATOM     22  N   UNL     1      48.501   7.870  16.389  0.00  0.00    +0.000 N 
ATOM     23  C   UNL     1      48.958   7.328  15.219  0.00  0.00    +0.000 C 
ATOM     24  O   UNL     1      50.091   6.888  15.121  0.00  0.00    +0.000 OA
ATOM     25  H   UNL     1      49.127   7.836  17.184  0.00  0.00    +0.000 HD
ATOM     26  H   UNL     1      47.521   8.035  16.573  0.00  0.00    +0.000 HD
ENDBRANCH  16  23
ENDBRANCH  15  19
ENDBRANCH   1  15
TORSDOF 5
ENDMDL
MODEL 8
REMARK VINA RESULT:    -6.824      5.431      7.792
REMARK INTER + INTRA:          -9.706
REMARK INTER:                  -8.965
REMARK INTRA:                  -0.740
REMARK UNBOUND:                -0.888
REMARK  Name = 
REMARK  5 active torsions:
REMARK  status: ('A' for Active; 'I' for Inactive)
REMARK    1  A    between atoms: C_2  and  C_4
REMARK    2  A    between atoms: C_7  and  O_8
REMARK    3  A    between atoms: O_8  and  C_9
REMARK    4  A    between atoms: C_9  and  C_10
REMARK    5  A    between atoms: C_15  and  C_16
REMARK                            x       y       z     vdW  Elec       q    Type
REMARK                         _______ _______ _______ _____ _____    ______ ____
ROOT
ATOM      1  C   UNL     1      48.690   6.392  15.862  0.00  0.00    +0.000 C 
ENDROOT
BRANCH   1   2
ATOM      2  C   UNL     1      48.246   6.495  14.420  0.00  0.00    +0.000 A 
ATOM      3  C   UNL     1      48.944   7.306  13.514  0.00  0.00    +0.000 A 
ATOM      4  C   UNL     1      48.515   7.408  12.195  0.00  0.00    +0.000 A 
ATOM      5  F   UNL     1      49.195   8.172  11.330  0.00  0.00    +0.000 F 
ATOM      6  C   UNL     1      47.388   6.728  11.758  0.00  0.00    +0.000 A 
ATOM      7  C   UNL     1      46.656   5.935  12.653  0.00  0.00    +0.000 A 
ATOM      8  C   UNL     1      47.088   5.838  13.982  0.00  0.00    +0.000 A 
BRANCH   7   9
ATOM      9  C   UNL     1      45.418   5.186  12.213  0.00  0.00    +0.000 C 
ATOM     10  C   UNL     1      45.264   5.219  10.689  0.00  0.00    +0.000 C 
ATOM     11  C   UNL     1      43.943   4.596  10.269  0.00  0.00    +0.000 C 
ATOM     12  O   UNL     1      42.852   5.223  10.941  0.00  0.00    +0.000 OA
ATOM     13  C   UNL     1      42.918   5.059  12.357  0.00  0.00    +0.000 C 
ATOM     14  C   UNL     1      44.166   5.725  12.914  0.00  0.00    +0.000 C 
ENDBRANCH   7   9
ENDBRANCH   1   2
BRANCH   1  15
ATOM     15  O   UNL     1      48.155   5.205  16.468  0.00  0.00    +0.000 OA
BRANCH  15  19
ATOM     16  C   UNL     1      51.097   2.493  17.436  0.00  0.00    +0.000 A 
ATOM     17  C   UNL     1      51.330   3.856  17.626  0.00  0.00    +0.000 A 
ATOM     18  C   UNL     1      50.330   4.771  17.296  0.00  0.00    +0.000 A 
ATOM     19  C   UNL     1      49.135   4.286  16.780  0.00  0.00    +0.000 A 
ATOM     20  N   UNL     1      48.890   2.973  16.576  0.00  0.00    +0.000 NA
ATOM     21  C   UNL     1      49.877   2.106  16.900  0.00  0.00    +0.000 A 
BRANCH  16  23
ATOM     22  N   UNL     1      51.611   0.225  18.125  0.00  0.00    +0.000 N 
ATOM     23  C   UNL     1      52.093   1.455  17.770  0.00  0.00    +0.000 C 
ATOM     24  O   UNL     1      53.291   1.674  17.700  0.00  0.00    +0.000 OA
ATOM     25  H   UNL     1      52.294  -0.508  18.270  0.00  0.00    +0.000 HD
ATOM     26  H   UNL     1      50.651  -0.053  17.978  0.00  0.00    +0.000 HD
ENDBRANCH  16  23
ENDBRANCH  15  19
ENDBRANCH   1  15
TORSDOF 5
ENDMDL
MODEL 9
REMARK VINA RESULT:    -6.702      3.288      7.248
REMARK INTER + INTRA:          -9.548
REMARK INTER:                  -8.727
REMARK INTRA:                  -0.822
REMARK UNBOUND:                -0.888
REMARK  Name = 
REMARK  5 active torsions:
REMARK  status: ('A' for Active; 'I' for Inactive)
REMARK    1  A    between atoms: C_2  and  C_4
REMARK    2  A    between atoms: C_7  and  O_8
REMARK    3  A    between atoms: O_8  and  C_9
REMARK    4  A    between atoms: C_9  and  C_10
REMARK    5  A    between atoms: C_15  and  C_16
REMARK                            x       y       z     vdW  Elec       q    Type
REMARK                         _______ _______ _______ _____ _____    ______ ____
ROOT
ATOM      1  C   UNL     1      46.204   4.867  13.789  0.00  0.00    +0.000 C 
ENDROOT
BRANCH   1   2
ATOM      2  C   UNL     1      45.208   4.868  12.651  0.00  0.00    +0.000 A 
ATOM      3  C   UNL     1      43.933   5.429  12.818  0.00  0.00    +0.000 A 
ATOM      4  C   UNL     1      43.020   5.407  11.769  0.00  0.00    +0.000 A 
ATOM      5  F   UNL     1      41.809   5.958  11.930  0.00  0.00    +0.000 F 
ATOM      6  C   UNL     1      43.343   4.822  10.554  0.00  0.00    +0.000 A 
ATOM      7  C   UNL     1      44.600   4.228  10.374  0.00  0.00    +0.000 A 
ATOM      8  C   UNL     1      45.517   4.248  11.433  0.00  0.00    +0.000 A 
BRANCH   7   9
ATOM      9  C   UNL     1      44.983   3.573   9.066  0.00  0.00    +0.000 C 
ATOM     10  C   UNL     1      45.509   2.152   9.292  0.00  0.00    +0.000 C 
ATOM     11  C   UNL     1      46.031   1.559   7.994  0.00  0.00    +0.000 C 
ATOM     12  O   UNL     1      47.008   2.415   7.404  0.00  0.00    +0.000 OA
ATOM     13  C   UNL     1      46.474   3.691   7.054  0.00  0.00    +0.000 C 
ATOM     14  C   UNL     1      45.995   4.428   8.294  0.00  0.00    +0.000 C 
ENDBRANCH   7   9
ENDBRANCH   1   2
BRANCH   1  15
ATOM     15  O   UNL     1      47.546   4.913  13.282  0.00  0.00    +0.000 OA
BRANCH  15  19
ATOM     16  C   UNL     1      49.141   8.705  13.454  0.00  0.00    +0.000 A 
ATOM     17  C   UNL     1      48.498   8.282  12.289  0.00  0.00    +0.000 A 
ATOM     18  C   UNL     1      47.959   6.996  12.236  0.00  0.00    +0.000 A 
ATOM     19  C   UNL     1      48.092   6.177  13.351  0.00  0.00    +0.000 A 
ATOM     20  N   UNL     1      48.720   6.558  14.484  0.00  0.00    +0.000 NA
ATOM     21  C   UNL     1      49.237   7.809  14.509  0.00  0.00    +0.000 A 
BRANCH  16  23
ATOM     22  N   UNL     1      51.080  10.120  13.794  0.00  0.00    +0.000 N 
ATOM     23  C   UNL     1      49.728  10.052  13.603  0.00  0.00    +0.000 C 
ATOM     24  O   UNL     1      49.043  11.058  13.526  0.00  0.00    +0.000 OA
ATOM     25  H   UNL     1      51.493  11.045  13.811  0.00  0.00    +0.000 HD
ATOM     26  H   UNL     1      51.698   9.336  13.641  0.00  0.00    +0.000 HD
ENDBRANCH  16  23
ENDBRANCH  15  19
ENDBRANCH   1  15
TORSDOF 5
ENDMDL
