MODEL 1
REMARK VINA RESULT:    -7.620      0.000      0.000
REMARK INTER + INTRA:         -10.665
REMARK INTER:                 -10.070
REMARK INTRA:                  -0.595
REMARK UNBOUND:                -0.595
REMARK  Name = 
REMARK  6 active torsions:
REMARK  status: ('A' for Active; 'I' for Inactive)
REMARK    1  A    between atoms: N_1  and  C_2
REMARK    2  A    between atoms: C_2  and  C_3
REMARK    3  A    between atoms: C_6  and  O_7
REMARK    4  A    between atoms: O_7  and  C_8
REMARK    5  A    between atoms: C_8  and  C_9
REMARK    6  A    between atoms: C_12  and  C_13
REMARK                            x       y       z     vdW  Elec       q    Type
REMARK                         _______ _______ _______ _____ _____    ______ ____
ROOT
ATOM      1  O   UNL     1      43.855   3.790  12.082  0.00  0.00    +0.000 OA
ENDROOT
BRANCH   1   5
ATOM      2  C   UNL     1      47.075   5.901  13.565  0.00  0.00    +0.000 A 
ATOM      3  C   UNL     1      46.041   6.571  12.901  0.00  0.00    +0.000 A 
ATOM      4  C   UNL     1      44.957   5.852  12.400  0.00  0.00    +0.000 A 
ATOM      5  C   UNL     1      44.946   4.478  12.577  0.00  0.00    +0.000 A 
ATOM      6  N   UNL     1      45.936   3.796  13.191  0.00  0.00    +0.000 NA
ATOM      7  C   UNL     1      46.968   4.520  13.672  0.00  0.00    +0.000 A 
BRANCH   2   8
ATOM      8  C   UNL     1      48.254   6.630  14.138  0.00  0.00    +0.000 C 
BRANCH   8   9
ATOM      9  N   UNL     1      49.367   6.669  13.195  0.00  0.00    +0.000 NA
ATOM     10  H   UNL     1      49.780   7.601  13.205  0.00  0.00    +0.000 HD
ATOM     11  H   UNL     1      49.010   6.525  12.251  0.00  0.00    +0.000 HD
ENDBRANCH   8   9
ENDBRANCH   2   8
ENDBRANCH   1   5
BRANCH   1  12
ATOM     12  C   UNL     1      43.484   4.253  10.779  0.00  0.00    +0.000 C 
BRANCH  12  13
ATOM     13  C   UNL     1      44.397   3.654   9.732  0.00  0.00    +0.000 A 
ATOM     14  C   UNL     1      45.125   4.478   8.877  0.00  0.00    +0.000 A 
ATOM     15  C   UNL     1      45.980   3.894   7.946  0.00  0.00    +0.000 A 
ATOM     16  C   UNL     1      46.094   2.503   7.885  0.00  0.00    +0.000 A 
ATOM     17  C   UNL     1      45.341   1.760   8.781  0.00  0.00    +0.000 A 
ATOM     18  N   UNL     1      44.507   2.301   9.696  0.00  0.00    +0.000 NA
BRANCH  16  19
ATOM     19  C   UNL     1      46.977   1.800   6.903  0.00  0.00    +0.000 C 
ATOM     20  F   UNL     1      48.304   2.043   7.095  0.00  0.00    +0.000 F 
ATOM     21  F   UNL     1      46.836   0.447   6.947  0.00  0.00    +0.000 F 
ATOM     22  F   UNL     1      46.716   2.160   5.616  0.00  0.00    +0.000 F 
ENDBRANCH  16  19
ENDBRANCH  12  13
ENDBRANCH   1  12
TORSDOF 6
ENDMDL
MODEL 2
REMARK VINA RESULT:    -7.410      3.732      6.437
REMARK INTER + INTRA:         -10.388
REMARK INTER:                  -9.910
REMARK INTRA:                  -0.478
REMARK UNBOUND:                -0.595
REMARK  Name = 
REMARK  6 active torsions:
REMARK  status: ('A' for Active; 'I' for Inactive)
REMARK    1  A    between atoms: N_1  and  C_2
REMARK    2  A    between atoms: C_2  and  C_3
REMARK    3  A    between atoms: C_6  and  O_7
REMARK    4  A    between atoms: O_7  and  C_8
REMARK    5  A    between atoms: C_8  and  C_9
REMARK    6  A    between atoms: C_12  and  C_13
REMARK                            x       y       z     vdW  Elec       q    Type
REMARK                         _______ _______ _______ _____ _____    ______ ____
ROOT
ATOM      1  O   UNL     1      43.775   4.397   9.618  0.00  0.00    +0.000 OA
ENDROOT
BRANCH   1   5
ATOM      2  C   UNL     1      46.654   2.325   7.512  0.00  0.00    +0.000 A 
ATOM      3  C   UNL     1      45.837   1.655   8.429  0.00  0.00    +0.000 A 
ATOM      4  C   UNL     1      44.868   2.361   9.139  0.00  0.00    +0.000 A 
ATOM      5  C   UNL     1      44.751   3.722   8.911  0.00  0.00    +0.000 A 
ATOM      6  N   UNL     1      45.537   4.406   8.053  0.00  0.00    +0.000 NA
ATOM      7  C   UNL     1      46.461   3.694   7.373  0.00  0.00    +0.000 A 
BRANCH   2   8
ATOM      8  C   UNL     1      47.700   1.610   6.709  0.00  0.00    +0.000 C 
BRANCH   8   9
ATOM      9  N   UNL     1      48.734   2.526   6.240  0.00  0.00    +0.000 NA
ATOM     10  H   UNL     1      48.299   3.270   5.696  0.00  0.00    +0.000 HD
ATOM     11  H   UNL     1      49.354   2.031   5.600  0.00  0.00    +0.000 HD
ENDBRANCH   8   9
ENDBRANCH   2   8
ENDBRANCH   1   5
BRANCH   1  12
ATOM     12  C   UNL     1      43.763   4.015  10.999  0.00  0.00    +0.000 C 
BRANCH  12  13
ATOM     13  C   UNL     1      44.875   4.718  11.745  0.00  0.00    +0.000 A 
ATOM     14  C   UNL     1      45.186   6.045  11.460  0.00  0.00    +0.000 A 
ATOM     15  C   UNL     1      46.195   6.672  12.188  0.00  0.00    +0.000 A 
ATOM     16  C   UNL     1      46.873   5.965  13.185  0.00  0.00    +0.000 A 
ATOM     17  C   UNL     1      46.490   4.651  13.410  0.00  0.00    +0.000 A 
ATOM     18  N   UNL     1      45.513   4.021  12.720  0.00  0.00    +0.000 NA
BRANCH  16  19
ATOM     19  C   UNL     1      47.977   6.561  13.998  0.00  0.00    +0.000 C 
ATOM     20  F   UNL     1      49.169   6.613  13.339  0.00  0.00    +0.000 F 
ATOM     21  F   UNL     1      47.712   7.838  14.387  0.00  0.00    +0.000 F 
ATOM     22  F   UNL     1      48.216   5.865  15.143  0.00  0.00    +0.000 F 
ENDBRANCH  16  19
ENDBRANCH  12  13
ENDBRANCH   1  12
TORSDOF 6
ENDMDL
MODEL 3
REMARK VINA RESULT:    -7.401      1.508      2.030
REMARK INTER + INTRA:         -10.375
REMARK INTER:                  -9.807
REMARK INTRA:                  -0.568
REMARK UNBOUND:                -0.595
REMARK  Name = 
REMARK  6 active torsions:
REMARK  status: ('A' for Active; 'I' for Inactive)
REMARK    1  A    between atoms: N_1  and  C_2
REMARK    2  A    between atoms: C_2  and  C_3
REMARK    3  A    between atoms: C_6  and  O_7
REMARK    4  A    between atoms: O_7  and  C_8
REMARK    5  A    between atoms: C_8  and  C_9
REMARK    6  A    between atoms: C_12  and  C_13
REMARK                            x       y       z     vdW  Elec       q    Type
REMARK                         _______ _______ _______ _____ _____    ______ ____
ROOT
ATOM      1  O   UNL     1      44.447   5.888  10.732  0.00  0.00    +0.000 OA
ENDROOT
BRANCH   1   5
ATOM      2  C   UNL     1      46.729   5.021  14.058  0.00  0.00    +0.000 A 
ATOM      3  C   UNL     1      47.223   5.885  13.073  0.00  0.00    +0.000 A 
ATOM      4  C   UNL     1      46.448   6.171  11.951  0.00  0.00    +0.000 A 
ATOM      5  C   UNL     1      45.201   5.578  11.847  0.00  0.00    +0.000 A 
ATOM      6  N   UNL     1      44.702   4.723  12.765  0.00  0.00    +0.000 NA
ATOM      7  C   UNL     1      45.471   4.471  13.846  0.00  0.00    +0.000 A 
BRANCH   2   8
ATOM      8  C   UNL     1      47.515   4.694  15.294  0.00  0.00    +0.000 C 
BRANCH   8   9
ATOM      9  N   UNL     1      47.667   3.252  15.463  0.00  0.00    +0.000 NA
ATOM     10  H   UNL     1      48.396   2.917  14.834  0.00  0.00    +0.000 HD
ATOM     11  H   UNL     1      46.806   2.790  15.173  0.00  0.00    +0.000 HD
ENDBRANCH   8   9
ENDBRANCH   2   8
ENDBRANCH   1   5
BRANCH   1  12
ATOM     12  C   UNL     1      43.737   4.746  10.239  0.00  0.00    +0.000 C 
BRANCH  12  13
ATOM     13  C   UNL     1      44.639   3.910   9.359  0.00  0.00    +0.000 A 
ATOM     14  C   UNL     1      44.668   2.524   9.493  0.00  0.00    +0.000 A 
ATOM     15  C   UNL     1      45.486   1.782   8.645  0.00  0.00    +0.000 A 
ATOM     16  C   UNL     1      46.258   2.433   7.681  0.00  0.00    +0.000 A 
ATOM     17  C   UNL     1      46.160   3.815   7.609  0.00  0.00    +0.000 A 
ATOM     18  N   UNL     1      45.372   4.558   8.418  0.00  0.00    +0.000 NA
BRANCH  16  19
ATOM     19  C   UNL     1      47.173   1.710   6.745  0.00  0.00    +0.000 C 
ATOM     20  F   UNL     1      47.020   2.079   5.442  0.00  0.00    +0.000 F 
ATOM     21  F   UNL     1      48.488   1.912   7.036  0.00  0.00    +0.000 F 
ATOM     22  F   UNL     1      46.989   0.362   6.773  0.00  0.00    +0.000 F 
ENDBRANCH  16  19
ENDBRANCH  12  13
ENDBRANCH   1  12
TORSDOF 6
ENDMDL
MODEL 4
REMARK VINA RESULT:    -6.352      4.310      5.559
REMARK INTER + INTRA:          -8.990
REMARK INTER:                  -8.582
REMARK INTRA:                  -0.408
REMARK UNBOUND:                -0.595
REMARK  Name = 
REMARK  6 active torsions:
REMARK  status: ('A' for Active; 'I' for Inactive)
REMARK    1  A    between atoms: N_1  and  C_2
REMARK    2  A    between atoms: C_2  and  C_3
REMARK    3  A    between atoms: C_6  and  O_7
REMARK    4  A    between atoms: O_7  and  C_8
REMARK    5  A    between atoms: C_8  and  C_9
REMARK    6  A    between atoms: C_12  and  C_13
REMARK                            x       y       z     vdW  Elec       q    Type
REMARK                         _______ _______ _______ _____ _____    ______ ____
ROOT
ATOM      1  O   UNL     1      47.342   3.233  15.732  0.00  0.00    +0.000 OA
ENDROOT
BRANCH   1   5
ATOM      2  C   UNL     1      51.013   2.863  17.577  0.00  0.00    +0.000 A 
ATOM      3  C   UNL     1      50.302   4.066  17.662  0.00  0.00    +0.000 A 
ATOM      4  C   UNL     1      49.064   4.185  17.034  0.00  0.00    +0.000 A 
ATOM      5  C   UNL     1      48.577   3.094  16.334  0.00  0.00    +0.000 A 
ATOM      6  N   UNL     1      49.244   1.927  16.211  0.00  0.00    +0.000 NA
ATOM      7  C   UNL     1      50.438   1.838  16.837  0.00  0.00    +0.000 A 
BRANCH   2   8
ATOM      8  C   UNL     1      52.342   2.676  18.249  0.00  0.00    +0.000 C 
BRANCH   8   9
ATOM      9  N   UNL     1      52.681   1.263  18.377  0.00  0.00    +0.000 NA
ATOM     10  H   UNL     1      53.090   0.937  17.503  0.00  0.00    +0.000 HD
ATOM     11  H   UNL     1      51.825   0.725  18.509  0.00  0.00    +0.000 HD
ENDBRANCH   8   9
ENDBRANCH   2   8
ENDBRANCH   1   5
BRANCH   1  12
ATOM     12  C   UNL     1      47.151   4.556  15.216  0.00  0.00    +0.000 C 
BRANCH  12  13
ATOM     13  C   UNL     1      46.385   4.503  13.914  0.00  0.00    +0.000 A 
ATOM     14  C   UNL     1      46.009   5.679  13.269  0.00  0.00    +0.000 A 
ATOM     15  C   UNL     1      45.331   5.595  12.055  0.00  0.00    +0.000 A 
ATOM     16  C   UNL     1      45.043   4.343  11.507  0.00  0.00    +0.000 A 
ATOM     17  C   UNL     1      45.464   3.224  12.211  0.00  0.00    +0.000 A 
ATOM     18  N   UNL     1      46.125   3.279  13.388  0.00  0.00    +0.000 NA
BRANCH  16  19
ATOM     19  C   UNL     1      44.305   4.168  10.218  0.00  0.00    +0.000 C 
ATOM     20  F   UNL     1      43.292   5.063  10.045  0.00  0.00    +0.000 F 
ATOM     21  F   UNL     1      45.112   4.306   9.129  0.00  0.00    +0.000 F 
ATOM     22  F   UNL     1      43.736   2.936  10.105  0.00  0.00    +0.000 F 
ENDBRANCH  16  19
ENDBRANCH  12  13
ENDBRANCH   1  12
TORSDOF 6
ENDMDL
MODEL 5
REMARK VINA RESULT:    -6.121      3.655      4.472
REMARK INTER + INTRA:          -8.684
REMARK INTER:                  -8.300
REMARK INTRA:                  -0.385
REMARK UNBOUND:                -0.595
REMARK  Name = 
REMARK  6 active torsions:
REMARK  status: ('A' for Active; 'I' for Inactive)
REMARK    1  A    between atoms: N_1  and  C_2
REMARK    2  A    between atoms: C_2  and  C_3
REMARK    3  A    between atoms: C_6  and  O_7
REMARK    4  A    between atoms: O_7  and  C_8
REMARK    5  A    between atoms: C_8  and  C_9
REMARK    6  A    between atoms: C_12  and  C_13
REMARK                            x       y       z     vdW  Elec       q    Type
REMARK                         _______ _______ _______ _____ _____    ______ ____
ROOT
ATOM      1  O   UNL     1      46.790   3.640  14.862  0.00  0.00    +0.000 OA
ENDROOT
BRANCH   1   5
ATOM      2  C   UNL     1      48.577   4.449  18.492  0.00  0.00    +0.000 A 
ATOM      3  C   UNL     1      48.610   5.400  17.465  0.00  0.00    +0.000 A 
ATOM      4  C   UNL     1      48.007   5.119  16.240  0.00  0.00    +0.000 A 
ATOM      5  C   UNL     1      47.391   3.889  16.080  0.00  0.00    +0.000 A 
ATOM      6  N   UNL     1      47.360   2.939  17.040  0.00  0.00    +0.000 NA
ATOM      7  C   UNL     1      47.945   3.242  18.218  0.00  0.00    +0.000 A 
BRANCH   2   8
ATOM      8  C   UNL     1      49.195   4.708  19.834  0.00  0.00    +0.000 C 
BRANCH   8   9
ATOM      9  N   UNL     1      48.497   3.985  20.892  0.00  0.00    +0.000 NA
ATOM     10  H   UNL     1      47.652   4.496  21.144  0.00  0.00    +0.000 HD
ATOM     11  H   UNL     1      49.082   3.970  21.727  0.00  0.00    +0.000 HD
ENDBRANCH   8   9
ENDBRANCH   2   8
ENDBRANCH   1   5
BRANCH   1  12
ATOM     12  C   UNL     1      46.307   4.844  14.255  0.00  0.00    +0.000 C 
BRANCH  12  13
ATOM     13  C   UNL     1      45.871   4.573  12.833  0.00  0.00    +0.000 A 
ATOM     14  C   UNL     1      45.923   5.582  11.874  0.00  0.00    +0.000 A 
ATOM     15  C   UNL     1      45.544   5.290  10.566  0.00  0.00    +0.000 A 
ATOM     16  C   UNL     1      45.121   3.999  10.238  0.00  0.00    +0.000 A 
ATOM     17  C   UNL     1      45.110   3.053  11.253  0.00  0.00    +0.000 A 
ATOM     18  N   UNL     1      45.476   3.310  12.528  0.00  0.00    +0.000 NA
BRANCH  16  19
ATOM     19  C   UNL     1      44.682   3.611   8.863  0.00  0.00    +0.000 C 
ATOM     20  F   UNL     1      45.701   3.569   7.959  0.00  0.00    +0.000 F 
ATOM     21  F   UNL     1      44.102   2.379   8.826  0.00  0.00    +0.000 F 
ATOM     22  F   UNL     1      43.761   4.471   8.346  0.00  0.00    +0.000 F 
ENDBRANCH  16  19
ENDBRANCH  12  13
ENDBRANCH   1  12
TORSDOF 6
ENDMDL
MODEL 6
REMARK VINA RESULT:    -5.921      6.037      8.486
REMARK INTER + INTRA:          -8.420
REMARK INTER:                  -8.004
REMARK INTRA:                  -0.417
REMARK UNBOUND:                -0.595
REMARK  Name = 
REMARK  6 active torsions:
REMARK  status: ('A' for Active; 'I' for Inactive)
REMARK    1  A    between atoms: N_1  and  C_2
REMARK    2  A    between atoms: C_2  and  C_3
REMARK    3  A    between atoms: C_6  and  O_7
REMARK    4  A    between atoms: O_7  and  C_8
REMARK    5  A    between atoms: C_8  and  C_9
REMARK    6  A    between atoms: C_12  and  C_13
REMARK                            x       y       z     vdW  Elec       q    Type
REMARK                         _______ _______ _______ _____ _____    ______ ____
ROOT
ATOM      1  O   UNL     1      47.600   2.942  14.683  0.00  0.00    +0.000 OA
ENDROOT
BRANCH   1   5
ATOM      2  C   UNL     1      45.288   5.430  12.342  0.00  0.00    +0.000 A 
ATOM      3  C   UNL     1      46.277   5.967  13.173  0.00  0.00    +0.000 A 
ATOM      4  C   UNL     1      47.053   5.122  13.963  0.00  0.00    +0.000 A 
ATOM      5  C   UNL     1      46.810   3.760  13.900  0.00  0.00    +0.000 A 
ATOM      6  N   UNL     1      45.849   3.208  13.128  0.00  0.00    +0.000 NA
ATOM      7  C   UNL     1      45.118   4.051  12.368  0.00  0.00    +0.000 A 
BRANCH   2   8
ATOM      8  C   UNL     1      44.437   6.294  11.459  0.00  0.00    +0.000 C 
BRANCH   8   9
ATOM      9  N   UNL     1      43.821   5.520  10.387  0.00  0.00    +0.000 NA
ATOM     10  H   UNL     1      43.659   4.568  10.713  0.00  0.00    +0.000 HD
ATOM     11  H   UNL     1      44.476   5.448   9.609  0.00  0.00    +0.000 HD
ENDBRANCH   8   9
ENDBRANCH   2   8
ENDBRANCH   1   5
BRANCH   1  12
ATOM     12  C   UNL     1      47.652   3.398  16.040  0.00  0.00    +0.000 C 
BRANCH  12  13
ATOM     13  C   UNL     1      49.030   3.165  16.617  0.00  0.00    +0.000 A 
ATOM     14  C   UNL     1      49.668   4.166  17.345  0.00  0.00    +0.000 A 
ATOM     15  C   UNL     1      50.924   3.908  17.889  0.00  0.00    +0.000 A 
ATOM     16  C   UNL     1      51.519   2.658  17.699  0.00  0.00    +0.000 A 
ATOM     17  C   UNL     1      50.808   1.716  16.970  0.00  0.00    +0.000 A 
ATOM     18  N   UNL     1      49.588   1.941  16.434  0.00  0.00    +0.000 NA
BRANCH  16  19
ATOM     19  C   UNL     1      52.870   2.309  18.236  0.00  0.00    +0.000 C 
ATOM     20  F   UNL     1      53.896   2.782  17.474  0.00  0.00    +0.000 F 
ATOM     21  F   UNL     1      53.080   2.800  19.488  0.00  0.00    +0.000 F 
ATOM     22  F   UNL     1      53.064   0.964  18.326  0.00  0.00    +0.000 F 
ENDBRANCH  16  19
ENDBRANCH  12  13
ENDBRANCH   1  12
TORSDOF 6
ENDMDL
MODEL 7
REMARK VINA RESULT:    -5.917      3.872      4.862
REMARK INTER + INTRA:          -8.415
REMARK INTER:                  -8.067
REMARK INTRA:                  -0.348
REMARK UNBOUND:                -0.595
REMARK  Name = 
REMARK  6 active torsions:
REMARK  status: ('A' for Active; 'I' for Inactive)
REMARK    1  A    between atoms: N_1  and  C_2
REMARK    2  A    between atoms: C_2  and  C_3
REMARK    3  A    between atoms: C_6  and  O_7
REMARK    4  A    between atoms: O_7  and  C_8
REMARK    5  A    between atoms: C_8  and  C_9
REMARK    6  A    between atoms: C_12  and  C_13
REMARK                            x       y       z     vdW  Elec       q    Type
REMARK                         _______ _______ _______ _____ _____    ______ ____
ROOT
ATOM      1  O   UNL     1      47.226   3.670  14.915  0.00  0.00    +0.000 OA
ENDROOT
BRANCH   1   5
ATOM      2  C   UNL     1      48.561   4.176  18.785  0.00  0.00    +0.000 A 
ATOM      3  C   UNL     1      48.400   2.889  18.260  0.00  0.00    +0.000 A 
ATOM      4  C   UNL     1      47.947   2.724  16.953  0.00  0.00    +0.000 A 
ATOM      5  C   UNL     1      47.662   3.859  16.211  0.00  0.00    +0.000 A 
ATOM      6  N   UNL     1      47.783   5.115  16.692  0.00  0.00    +0.000 NA
ATOM      7  C   UNL     1      48.232   5.243  17.959  0.00  0.00    +0.000 A 
BRANCH   2   8
ATOM      8  C   UNL     1      49.063   4.408  20.180  0.00  0.00    +0.000 C 
BRANCH   8   9
ATOM      9  N   UNL     1      47.964   4.483  21.138  0.00  0.00    +0.000 NA
ATOM     10  H   UNL     1      47.468   3.593  21.146  0.00  0.00    +0.000 HD
ATOM     11  H   UNL     1      47.292   5.181  20.820  0.00  0.00    +0.000 HD
ENDBRANCH   8   9
ENDBRANCH   2   8
ENDBRANCH   1   5
BRANCH   1  12
ATOM     12  C   UNL     1      46.444   4.778  14.453  0.00  0.00    +0.000 C 
BRANCH  12  13
ATOM     13  C   UNL     1      45.965   4.526  13.041  0.00  0.00    +0.000 A 
ATOM     14  C   UNL     1      45.986   5.549  12.096  0.00  0.00    +0.000 A 
ATOM     15  C   UNL     1      45.568   5.275  10.796  0.00  0.00    +0.000 A 
ATOM     16  C   UNL     1      45.137   3.989  10.463  0.00  0.00    +0.000 A 
ATOM     17  C   UNL     1      45.159   3.028  11.463  0.00  0.00    +0.000 A 
ATOM     18  N   UNL     1      45.563   3.267  12.730  0.00  0.00    +0.000 NA
BRANCH  16  19
ATOM     19  C   UNL     1      44.657   3.619   9.095  0.00  0.00    +0.000 C 
ATOM     20  F   UNL     1      44.082   2.385   9.037  0.00  0.00    +0.000 F 
ATOM     21  F   UNL     1      43.725   4.487   8.615  0.00  0.00    +0.000 F 
ATOM     22  F   UNL     1      45.662   3.605   8.176  0.00  0.00    +0.000 F 
ENDBRANCH  16  19
ENDBRANCH  12  13
ENDBRANCH   1  12
TORSDOF 6
ENDMDL
MODEL 8
REMARK VINA RESULT:    -5.398      6.400      8.878
REMARK INTER + INTRA:          -7.729
REMARK INTER:                  -7.294
REMARK INTRA:                  -0.436
REMARK UNBOUND:                -0.595
REMARK  Name = 
REMARK  6 active torsions:
REMARK  status: ('A' for Active; 'I' for Inactive)
REMARK    1  A    between atoms: N_1  and  C_2
REMARK    2  A    between atoms: C_2  and  C_3
REMARK    3  A    between atoms: C_6  and  O_7
REMARK    4  A    between atoms: O_7  and  C_8
REMARK    5  A    between atoms: C_8  and  C_9
REMARK    6  A    between atoms: C_12  and  C_13
REMARK                            x       y       z     vdW  Elec       q    Type
REMARK                         _______ _______ _______ _____ _____    ______ ____
ROOT
ATOM      1  O   UNL     1      47.479   4.393  14.008  0.00  0.00    +0.000 OA
ENDROOT
BRANCH   1   5
ATOM      2  C   UNL     1      43.824   4.985  12.189  0.00  0.00    +0.000 A 
ATOM      3  C   UNL     1      44.577   6.081  12.625  0.00  0.00    +0.000 A 
ATOM      4  C   UNL     1      45.810   5.874  13.241  0.00  0.00    +0.000 A 
ATOM      5  C   UNL     1      46.249   4.571  13.406  0.00  0.00    +0.000 A 
ATOM      6  N   UNL     1      45.539   3.489  13.020  0.00  0.00    +0.000 NA
ATOM      7  C   UNL     1      44.352   3.721  12.419  0.00  0.00    +0.000 A 
BRANCH   2   8
ATOM      8  C   UNL     1      42.499   5.153  11.505  0.00  0.00    +0.000 C 
BRANCH   8   9
ATOM      9  N   UNL     1      41.891   6.439  11.827  0.00  0.00    +0.000 NA
ATOM     10  H   UNL     1      42.596   7.049  12.239  0.00  0.00    +0.000 HD
ATOM     11  H   UNL     1      41.179   6.301  12.545  0.00  0.00    +0.000 HD
ENDBRANCH   8   9
ENDBRANCH   2   8
ENDBRANCH   1   5
BRANCH   1  12
ATOM     12  C   UNL     1      47.474   3.273  14.902  0.00  0.00    +0.000 C 
BRANCH  12  13
ATOM     13  C   UNL     1      47.937   3.700  16.276  0.00  0.00    +0.000 A 
ATOM     14  C   UNL     1      47.887   2.809  17.345  0.00  0.00    +0.000 A 
ATOM     15  C   UNL     1      48.350   3.224  18.592  0.00  0.00    +0.000 A 
ATOM     16  C   UNL     1      48.855   4.517  18.748  0.00  0.00    +0.000 A 
ATOM     17  C   UNL     1      48.878   5.334  17.628  0.00  0.00    +0.000 A 
ATOM     18  N   UNL     1      48.437   4.955  16.408  0.00  0.00    +0.000 NA
BRANCH  16  19
ATOM     19  C   UNL     1      49.356   5.043  20.055  0.00  0.00    +0.000 C 
ATOM     20  F   UNL     1      48.595   4.664  21.121  0.00  0.00    +0.000 F 
ATOM     21  F   UNL     1      50.622   4.630  20.336  0.00  0.00    +0.000 F 
ATOM     22  F   UNL     1      49.392   6.404  20.090  0.00  0.00    +0.000 F 
ENDBRANCH  16  19
ENDBRANCH  12  13
ENDBRANCH   1  12
TORSDOF 6
ENDMDL
MODEL 9
REMARK VINA RESULT:    -5.372      5.930      8.547
REMARK INTER + INTRA:          -7.695
REMARK INTER:                  -7.362
REMARK INTRA:                  -0.333
REMARK UNBOUND:                -0.595
REMARK  Name = 
REMARK  6 active torsions:
REMARK  status: ('A' for Active; 'I' for Inactive)
REMARK    1  A    between atoms: N_1  and  C_2
REMARK    2  A    between atoms: C_2  and  C_3
REMARK    3  A    between atoms: C_6  and  O_7
REMARK    4  A    between atoms: O_7  and  C_8
REMARK    5  A    between atoms: C_8  and  C_9
REMARK    6  A    between atoms: C_12  and  C_13
REMARK                            x       y       z     vdW  Elec       q    Type
REMARK                         _______ _______ _______ _____ _____    ______ ____
ROOT
ATOM      1  O   UNL     1      47.422   4.136  14.249  0.00  0.00    +0.000 OA
ENDROOT
BRANCH   1   5
ATOM      2  C   UNL     1      43.971   4.936  12.135  0.00  0.00    +0.000 A 
ATOM      3  C   UNL     1      44.540   3.658  12.093  0.00  0.00    +0.000 A 
ATOM      4  C   UNL     1      45.707   3.395  12.808  0.00  0.00    +0.000 A 
ATOM      5  C   UNL     1      46.273   4.425  13.540  0.00  0.00    +0.000 A 
ATOM      6  N   UNL     1      45.766   5.676  13.585  0.00  0.00    +0.000 NA
ATOM      7  C   UNL     1      44.631   5.899  12.889  0.00  0.00    +0.000 A 
BRANCH   2   8
ATOM      8  C   UNL     1      42.707   5.268  11.398  0.00  0.00    +0.000 C 
BRANCH   8   9
ATOM      9  N   UNL     1      42.662   6.676  11.021  0.00  0.00    +0.000 NA
ATOM     10  H   UNL     1      42.631   7.247  11.865  0.00  0.00    +0.000 HD
ATOM     11  H   UNL     1      41.792   6.860  10.521  0.00  0.00    +0.000 HD
ENDBRANCH   8   9
ENDBRANCH   2   8
ENDBRANCH   1   5
BRANCH   1  12
ATOM     12  C   UNL     1      47.163   4.026  15.654  0.00  0.00    +0.000 C 
BRANCH  12  13
ATOM     13  C   UNL     1      48.462   3.882  16.415  0.00  0.00    +0.000 A 
ATOM     14  C   UNL     1      48.896   2.629  16.840  0.00  0.00    +0.000 A 
ATOM     15  C   UNL     1      50.113   2.527  17.510  0.00  0.00    +0.000 A 
ATOM     16  C   UNL     1      50.873   3.676  17.743  0.00  0.00    +0.000 A 
ATOM     17  C   UNL     1      50.371   4.881  17.276  0.00  0.00    +0.000 A 
ATOM     18  N   UNL     1      49.196   5.006  16.621  0.00  0.00    +0.000 NA
BRANCH  16  19
ATOM     19  C   UNL     1      52.180   3.653  18.470  0.00  0.00    +0.000 C 
ATOM     20  F   UNL     1      52.076   3.989  19.787  0.00  0.00    +0.000 F 
ATOM     21  F   UNL     1      52.773   2.428  18.444  0.00  0.00    +0.000 F 
ATOM     22  F   UNL     1      53.088   4.517  17.937  0.00  0.00    +0.000 F 
ENDBRANCH  16  19
ENDBRANCH  12  13
ENDBRANCH   1  12
TORSDOF 6
ENDMDL
