MODEL 1
REMARK VINA RESULT:    -8.291      0.000      0.000
REMARK INTER + INTRA:         -12.371
REMARK INTER:                 -11.684
REMARK INTRA:                  -0.687
REMARK UNBOUND:                -0.687
REMARK  Name = 
REMARK  7 active torsions:
REMARK  status: ('A' for Active; 'I' for Inactive)
REMARK    1  A    between atoms: C_2  and  C_4
REMARK    2  A    between atoms: C_7  and  N_8
REMARK    3  A    between atoms: N_8  and  C_9
REMARK    4  A    between atoms: C_9  and  C_10
REMARK    5  A    between atoms: C_10  and  C_11
REMARK    6  A    between atoms: C_15  and  O_16
REMARK    7  A    between atoms: O_16  and  C_17
REMARK                            x       y       z     vdW  Elec       q    Type
REMARK                         _______ _______ _______ _____ _____    ______ ____
ROOT
ATOM      1  C   UNL     1      43.275   4.118  11.165  0.00  0.00    +0.000 C 
ENDROOT
BRANCH   1   2
ATOM      2  N   UNL     1      43.745   4.747   9.926  0.00  0.00    +0.000 N 
ATOM      3  H   UNL     1      44.156   5.661  10.096  0.00  0.00    +0.000 HD
BRANCH   2   7
ATOM      4  C   UNL     1      46.364   2.345   7.845  0.00  0.00    +0.000 A 
ATOM      5  C   UNL     1      46.317   3.709   7.606  0.00  0.00    +0.000 A 
ATOM      6  N   UNL     1      45.464   4.541   8.265  0.00  0.00    +0.000 NA
ATOM      7  C   UNL     1      44.646   3.971   9.175  0.00  0.00    +0.000 A 
ATOM      8  C   UNL     1      44.718   2.588   9.405  0.00  0.00    +0.000 A 
ATOM      9  N   UNL     1      45.555   1.738   8.753  0.00  0.00    +0.000 NA
BRANCH   4  11
ATOM     10  N   UNL     1      48.429   2.128   6.587  0.00  0.00    +0.000 N 
ATOM     11  C   UNL     1      47.328   1.494   7.095  0.00  0.00    +0.000 C 
ATOM     12  O   UNL     1      47.156   0.286   6.947  0.00  0.00    +0.000 OA
ATOM     13  H   UNL     1      49.134   1.582   6.112  0.00  0.00    +0.000 HD
ATOM     14  H   UNL     1      48.591   3.107   6.787  0.00  0.00    +0.000 HD
ENDBRANCH   4  11
ENDBRANCH   2   7
ENDBRANCH   1   2
BRANCH   1  15
ATOM     15  C   UNL     1      43.403   5.114  12.329  0.00  0.00    +0.000 C 
BRANCH  15  16
ATOM     16  C   UNL     1      44.840   5.306  12.743  0.00  0.00    +0.000 A 
ATOM     17  C   UNL     1      45.508   6.498  12.447  0.00  0.00    +0.000 A 
ATOM     18  C   UNL     1      46.813   6.705  12.905  0.00  0.00    +0.000 A 
ATOM     19  C   UNL     1      47.465   5.722  13.659  0.00  0.00    +0.000 A 
ATOM     20  C   UNL     1      46.818   4.521  13.935  0.00  0.00    +0.000 A 
ATOM     21  C   UNL     1      45.509   4.322  13.485  0.00  0.00    +0.000 A 
BRANCH  20  22
ATOM     22  O   UNL     1      47.335   3.491  14.683  0.00  0.00    +0.000 OA
BRANCH  22  23
ATOM     23  C   UNL     1      47.884   3.763  15.992  0.00  0.00    +0.000 C 
ATOM     24  C   UNL     1      48.325   2.565  16.855  0.00  0.00    +0.000 C 
ATOM     25  N   UNL     1      47.489   3.030  17.971  0.00  0.00    +0.000 NA
ATOM     26  C   UNL     1      46.836   4.018  17.102  0.00  0.00    +0.000 C 
ATOM     27  H   UNL     1      48.010   3.438  18.746  0.00  0.00    +0.000 HD
ENDBRANCH  22  23
ENDBRANCH  20  22
ENDBRANCH  15  16
ENDBRANCH   1  15
TORSDOF 7
ENDMDL
MODEL 2
REMARK VINA RESULT:    -7.627      2.194      7.640
REMARK INTER + INTRA:         -11.435
REMARK INTER:                 -10.894
REMARK INTRA:                  -0.541
REMARK UNBOUND:                -0.687
REMARK  Name = 
REMARK  7 active torsions:
REMARK  status: ('A' for Active; 'I' for Inactive)
REMARK    1  A    between atoms: C_2  and  C_4
REMARK    2  A    between atoms: C_7  and  N_8
REMARK    3  A    between atoms: N_8  and  C_9
REMARK    4  A    between atoms: C_9  and  C_10
REMARK    5  A    between atoms: C_10  and  C_11
REMARK    6  A    between atoms: C_15  and  O_16
REMARK    7  A    between atoms: O_16  and  C_17
REMARK                            x       y       z     vdW  Elec       q    Type
REMARK                         _______ _______ _______ _____ _____    ______ ____
ROOT
ATOM      1  C   UNL     1      46.752   6.323  11.758  0.00  0.00    +0.000 C 
ENDROOT
BRANCH   1   2
ATOM      2  N   UNL     1      46.465   6.557  13.177  0.00  0.00    +0.000 N 
ATOM      3  H   UNL     1      45.468   6.645  13.353  0.00  0.00    +0.000 HD
BRANCH   2   7
ATOM      4  C   UNL     1      47.942   3.624  15.664  0.00  0.00    +0.000 A 
ATOM      5  C   UNL     1      48.078   4.963  15.994  0.00  0.00    +0.000 A 
ATOM      6  N   UNL     1      47.611   5.966  15.200  0.00  0.00    +0.000 NA
ATOM      7  C   UNL     1      47.003   5.597  14.054  0.00  0.00    +0.000 A 
ATOM      8  C   UNL     1      46.869   4.235  13.745  0.00  0.00    +0.000 A 
ATOM      9  N   UNL     1      47.335   3.217  14.518  0.00  0.00    +0.000 NA
BRANCH   4  11
ATOM     10  N   UNL     1      48.016   2.621  17.873  0.00  0.00    +0.000 N 
ATOM     11  C   UNL     1      48.467   2.577  16.582  0.00  0.00    +0.000 C 
ATOM     12  O   UNL     1      49.253   1.712  16.204  0.00  0.00    +0.000 OA
ATOM     13  H   UNL     1      48.309   1.902  18.520  0.00  0.00    +0.000 HD
ATOM     14  H   UNL     1      47.309   3.295  18.143  0.00  0.00    +0.000 HD
ENDBRANCH   4  11
ENDBRANCH   2   7
ENDBRANCH   1   2
BRANCH   1  15
ATOM     15  C   UNL     1      45.437   6.310  10.961  0.00  0.00    +0.000 C 
BRANCH  15  16
ATOM     16  C   UNL     1      45.250   5.014  10.214  0.00  0.00    +0.000 A 
ATOM     17  C   UNL     1      44.534   3.962  10.793  0.00  0.00    +0.000 A 
ATOM     18  C   UNL     1      44.292   2.793  10.066  0.00  0.00    +0.000 A 
ATOM     19  C   UNL     1      44.766   2.661   8.755  0.00  0.00    +0.000 A 
ATOM     20  C   UNL     1      45.504   3.693   8.180  0.00  0.00    +0.000 A 
ATOM     21  C   UNL     1      45.735   4.865   8.907  0.00  0.00    +0.000 A 
BRANCH  20  22
ATOM     22  O   UNL     1      46.001   3.699   6.900  0.00  0.00    +0.000 OA
BRANCH  22  23
ATOM     23  C   UNL     1      46.531   2.479   6.333  0.00  0.00    +0.000 C 
ATOM     24  C   UNL     1      47.668   1.764   7.087  0.00  0.00    +0.000 C 
ATOM     25  N   UNL     1      48.503   1.763   5.876  0.00  0.00    +0.000 NA
ATOM     26  C   UNL     1      47.570   2.678   5.204  0.00  0.00    +0.000 C 
ATOM     27  H   UNL     1      48.590   0.853   5.426  0.00  0.00    +0.000 HD
ENDBRANCH  22  23
ENDBRANCH  20  22
ENDBRANCH  15  16
ENDBRANCH   1  15
TORSDOF 7
ENDMDL
MODEL 3
REMARK VINA RESULT:    -7.157      1.922      2.258
REMARK INTER + INTRA:         -10.774
REMARK INTER:                 -10.146
REMARK INTRA:                  -0.628
REMARK UNBOUND:                -0.687
REMARK  Name = 
REMARK  7 active torsions:
REMARK  status: ('A' for Active; 'I' for Inactive)
REMARK    1  A    between atoms: C_2  and  C_4
REMARK    2  A    between atoms: C_7  and  N_8
REMARK    3  A    between atoms: N_8  and  C_9
REMARK    4  A    between atoms: C_9  and  C_10
REMARK    5  A    between atoms: C_10  and  C_11
REMARK    6  A    between atoms: C_15  and  O_16
REMARK    7  A    between atoms: O_16  and  C_17
REMARK                            x       y       z     vdW  Elec       q    Type
REMARK                         _______ _______ _______ _____ _____    ______ ____
ROOT
ATOM      1  C   UNL     1      44.524   3.432  11.827  0.00  0.00    +0.000 C 
ENDROOT
BRANCH   1   2
ATOM      2  N   UNL     1      43.915   3.201  10.512  0.00  0.00    +0.000 N 
ATOM      3  H   UNL     1      43.301   3.964  10.240  0.00  0.00    +0.000 HD
BRANCH   2   7
ATOM      4  C   UNL     1      46.555   2.636   7.402  0.00  0.00    +0.000 A 
ATOM      5  C   UNL     1      46.122   1.562   8.163  0.00  0.00    +0.000 A 
ATOM      6  N   UNL     1      45.255   1.702   9.204  0.00  0.00    +0.000 NA
ATOM      7  C   UNL     1      44.830   2.955   9.473  0.00  0.00    +0.000 A 
ATOM      8  C   UNL     1      45.276   4.026   8.683  0.00  0.00    +0.000 A 
ATOM      9  N   UNL     1      46.149   3.910   7.645  0.00  0.00    +0.000 NA
BRANCH   4  11
ATOM     10  N   UNL     1      47.306   3.187   5.161  0.00  0.00    +0.000 N 
ATOM     11  C   UNL     1      47.497   2.412   6.272  0.00  0.00    +0.000 C 
ATOM     12  O   UNL     1      48.403   1.585   6.331  0.00  0.00    +0.000 OA
ATOM     13  H   UNL     1      47.951   3.103   4.387  0.00  0.00    +0.000 HD
ATOM     14  H   UNL     1      46.603   3.916   5.162  0.00  0.00    +0.000 HD
ENDBRANCH   4  11
ENDBRANCH   2   7
ENDBRANCH   1   2
BRANCH   1  15
ATOM     15  C   UNL     1      44.414   4.922  12.192  0.00  0.00    +0.000 C 
BRANCH  15  16
ATOM     16  C   UNL     1      45.770   5.542  12.418  0.00  0.00    +0.000 A 
ATOM     17  C   UNL     1      46.296   6.448  11.491  0.00  0.00    +0.000 A 
ATOM     18  C   UNL     1      47.514   7.083  11.744  0.00  0.00    +0.000 A 
ATOM     19  C   UNL     1      48.223   6.819  12.923  0.00  0.00    +0.000 A 
ATOM     20  C   UNL     1      47.720   5.897  13.838  0.00  0.00    +0.000 A 
ATOM     21  C   UNL     1      46.495   5.271  13.586  0.00  0.00    +0.000 A 
BRANCH  20  22
ATOM     22  O   UNL     1      48.302   5.569  15.038  0.00  0.00    +0.000 OA
BRANCH  22  23
ATOM     23  C   UNL     1      48.844   6.612  15.880  0.00  0.00    +0.000 C 
ATOM     24  C   UNL     1      50.368   6.639  16.108  0.00  0.00    +0.000 C 
ATOM     25  N   UNL     1      50.172   6.647  17.566  0.00  0.00    +0.000 NA
ATOM     26  C   UNL     1      48.744   6.346  17.400  0.00  0.00    +0.000 C 
ATOM     27  H   UNL     1      50.359   7.545  18.009  0.00  0.00    +0.000 HD
ENDBRANCH  22  23
ENDBRANCH  20  22
ENDBRANCH  15  16
ENDBRANCH   1  15
TORSDOF 7
ENDMDL
MODEL 4
REMARK VINA RESULT:    -6.859      2.454      3.501
REMARK INTER + INTRA:         -10.353
REMARK INTER:                  -9.905
REMARK INTRA:                  -0.448
REMARK UNBOUND:                -0.687
REMARK  Name = 
REMARK  7 active torsions:
REMARK  status: ('A' for Active; 'I' for Inactive)
REMARK    1  A    between atoms: C_2  and  C_4
REMARK    2  A    between atoms: C_7  and  N_8
REMARK    3  A    between atoms: N_8  and  C_9
REMARK    4  A    between atoms: C_9  and  C_10
REMARK    5  A    between atoms: C_10  and  C_11
REMARK    6  A    between atoms: C_15  and  O_16
REMARK    7  A    between atoms: O_16  and  C_17
REMARK                            x       y       z     vdW  Elec       q    Type
REMARK                         _______ _______ _______ _____ _____    ______ ____
ROOT
ATOM      1  C   UNL     1      44.477   5.773  10.783  0.00  0.00    +0.000 C 
ENDROOT
BRANCH   1   2
ATOM      2  N   UNL     1      43.798   4.921   9.800  0.00  0.00    +0.000 N 
ATOM      3  H   UNL     1      43.297   5.469   9.106  0.00  0.00    +0.000 HD
BRANCH   2   7
ATOM      4  C   UNL     1      46.200   2.099   8.003  0.00  0.00    +0.000 A 
ATOM      5  C   UNL     1      46.322   3.441   7.676  0.00  0.00    +0.000 A 
ATOM      6  N   UNL     1      45.546   4.407   8.240  0.00  0.00    +0.000 NA
ATOM      7  C   UNL     1      44.631   3.998   9.144  0.00  0.00    +0.000 A 
ATOM      8  C   UNL     1      44.532   2.635   9.465  0.00  0.00    +0.000 A 
ATOM      9  N   UNL     1      45.290   1.652   8.908  0.00  0.00    +0.000 NA
BRANCH   4  11
ATOM     10  N   UNL     1      46.815  -0.219   7.626  0.00  0.00    +0.000 N 
ATOM     11  C   UNL     1      47.087   1.095   7.356  0.00  0.00    +0.000 C 
ATOM     12  O   UNL     1      48.008   1.420   6.611  0.00  0.00    +0.000 OA
ATOM     13  H   UNL     1      47.361  -0.937   7.172  0.00  0.00    +0.000 HD
ATOM     14  H   UNL     1      46.004  -0.467   8.180  0.00  0.00    +0.000 HD
ENDBRANCH   4  11
ENDBRANCH   2   7
ENDBRANCH   1   2
BRANCH   1  15
ATOM     15  C   UNL     1      44.526   5.054  12.141  0.00  0.00    +0.000 C 
BRANCH  15  16
ATOM     16  C   UNL     1      45.694   5.518  12.975  0.00  0.00    +0.000 A 
ATOM     17  C   UNL     1      46.283   4.658  13.907  0.00  0.00    +0.000 A 
ATOM     18  C   UNL     1      47.415   5.062  14.619  0.00  0.00    +0.000 A 
ATOM     19  C   UNL     1      47.970   6.331  14.411  0.00  0.00    +0.000 A 
ATOM     20  C   UNL     1      47.373   7.205  13.506  0.00  0.00    +0.000 A 
ATOM     21  C   UNL     1      46.246   6.793  12.788  0.00  0.00    +0.000 A 
BRANCH  20  22
ATOM     22  O   UNL     1      47.830   8.462  13.193  0.00  0.00    +0.000 OA
BRANCH  22  23
ATOM     23  C   UNL     1      48.959   8.611  12.302  0.00  0.00    +0.000 C 
ATOM     24  C   UNL     1      49.550   7.340  11.663  0.00  0.00    +0.000 C 
ATOM     25  N   UNL     1      50.892   7.689  12.153  0.00  0.00    +0.000 NA
ATOM     26  C   UNL     1      50.332   8.750  13.001  0.00  0.00    +0.000 C 
ATOM     27  H   UNL     1      51.529   8.025  11.432  0.00  0.00    +0.000 HD
ENDBRANCH  22  23
ENDBRANCH  20  22
ENDBRANCH  15  16
ENDBRANCH   1  15
TORSDOF 7
ENDMDL
MODEL 5
REMARK VINA RESULT:    -6.682      3.693      7.443
REMARK INTER + INTRA:         -10.103
REMARK INTER:                  -9.491
REMARK INTRA:                  -0.612
REMARK UNBOUND:                -0.687
REMARK  Name = 
REMARK  7 active torsions:
REMARK  status: ('A' for Active; 'I' for Inactive)
REMARK    1  A    between atoms: C_2  and  C_4
REMARK    2  A    between atoms: C_7  and  N_8
REMARK    3  A    between atoms: N_8  and  C_9
REMARK    4  A    between atoms: C_9  and  C_10
REMARK    5  A    between atoms: C_10  and  C_11
REMARK    6  A    between atoms: C_15  and  O_16
REMARK    7  A    between atoms: O_16  and  C_17
REMARK                            x       y       z     vdW  Elec       q    Type
REMARK                         _______ _______ _______ _____ _____    ______ ____
ROOT
ATOM      1  C   UNL     1      45.194   6.213  12.721  0.00  0.00    +0.000 C 
ENDROOT
BRANCH   1   2
ATOM      2  N   UNL     1      45.743   7.470  13.243  0.00  0.00    +0.000 N 
ATOM      3  H   UNL     1      45.727   7.497  14.258  0.00  0.00    +0.000 HD
BRANCH   2   7
ATOM      4  C   UNL     1      49.603   8.245  12.034  0.00  0.00    +0.000 A 
ATOM      5  C   UNL     1      48.597   9.175  11.821  0.00  0.00    +0.000 A 
ATOM      6  N   UNL     1      47.307   8.959  12.198  0.00  0.00    +0.000 NA
ATOM      7  C   UNL     1      47.040   7.778  12.795  0.00  0.00    +0.000 A 
ATOM      8  C   UNL     1      48.076   6.856  13.007  0.00  0.00    +0.000 A 
ATOM      9  N   UNL     1      49.370   7.047  12.631  0.00  0.00    +0.000 NA
BRANCH   4  11
ATOM     10  N   UNL     1      51.990   7.857  12.241  0.00  0.00    +0.000 N 
ATOM     11  C   UNL     1      50.995   8.549  11.605  0.00  0.00    +0.000 C 
ATOM     12  O   UNL     1      51.244   9.366  10.723  0.00  0.00    +0.000 OA
ATOM     13  H   UNL     1      52.948   7.995  11.950  0.00  0.00    +0.000 HD
ATOM     14  H   UNL     1      51.759   7.132  12.910  0.00  0.00    +0.000 HD
ENDBRANCH   4  11
ENDBRANCH   2   7
ENDBRANCH   1   2
BRANCH   1  15
ATOM     15  C   UNL     1      44.793   6.398  11.249  0.00  0.00    +0.000 C 
BRANCH  15  16
ATOM     16  C   UNL     1      44.860   5.099  10.485  0.00  0.00    +0.000 A 
ATOM     17  C   UNL     1      44.171   3.973  10.946  0.00  0.00    +0.000 A 
ATOM     18  C   UNL     1      44.167   2.795  10.193  0.00  0.00    +0.000 A 
ATOM     19  C   UNL     1      44.854   2.728   8.975  0.00  0.00    +0.000 A 
ATOM     20  C   UNL     1      45.566   3.836   8.523  0.00  0.00    +0.000 A 
ATOM     21  C   UNL     1      45.559   5.016   9.273  0.00  0.00    +0.000 A 
BRANCH  20  22
ATOM     22  O   UNL     1      46.258   3.908   7.338  0.00  0.00    +0.000 OA
BRANCH  22  23
ATOM     23  C   UNL     1      46.600   2.693   6.634  0.00  0.00    +0.000 C 
ATOM     24  C   UNL     1      47.937   2.008   6.979  0.00  0.00    +0.000 C 
ATOM     25  N   UNL     1      48.331   2.011   5.562  0.00  0.00    +0.000 NA
ATOM     26  C   UNL     1      47.210   2.900   5.227  0.00  0.00    +0.000 C 
ATOM     27  H   UNL     1      48.286   1.097   5.112  0.00  0.00    +0.000 HD
ENDBRANCH  22  23
ENDBRANCH  20  22
ENDBRANCH  15  16
ENDBRANCH   1  15
TORSDOF 7
ENDMDL
MODEL 6
REMARK VINA RESULT:    -6.530      2.656      7.862
REMARK INTER + INTRA:          -9.889
REMARK INTER:                  -9.367
REMARK INTRA:                  -0.522
REMARK UNBOUND:                -0.687
REMARK  Name = 
REMARK  7 active torsions:
REMARK  status: ('A' for Active; 'I' for Inactive)
REMARK    1  A    between atoms: C_2  and  C_4
REMARK    2  A    between atoms: C_7  and  N_8
REMARK    3  A    between atoms: N_8  and  C_9
REMARK    4  A    between atoms: C_9  and  C_10
REMARK    5  A    between atoms: C_10  and  C_11
REMARK    6  A    between atoms: C_15  and  O_16
REMARK    7  A    between atoms: O_16  and  C_17
REMARK                            x       y       z     vdW  Elec       q    Type
REMARK                         _______ _______ _______ _____ _____    ______ ____
ROOT
ATOM      1  C   UNL     1      46.971   4.471  14.843  0.00  0.00    +0.000 C 
ENDROOT
BRANCH   1   2
ATOM      2  N   UNL     1      47.360   4.594  16.252  0.00  0.00    +0.000 N 
ATOM      3  H   UNL     1      46.604   4.330  16.878  0.00  0.00    +0.000 HD
BRANCH   2   7
ATOM      4  C   UNL     1      50.671   2.367  17.274  0.00  0.00    +0.000 A 
ATOM      5  C   UNL     1      50.611   3.720  17.571  0.00  0.00    +0.000 A 
ATOM      6  N   UNL     1      49.540   4.496  17.248  0.00  0.00    +0.000 NA
ATOM      7  C   UNL     1      48.521   3.885  16.608  0.00  0.00    +0.000 A 
ATOM      8  C   UNL     1      48.600   2.512  16.325  0.00  0.00    +0.000 A 
ATOM      9  N   UNL     1      49.663   1.720  16.631  0.00  0.00    +0.000 NA
BRANCH   4  11
ATOM     10  N   UNL     1      51.639   0.282  18.051  0.00  0.00    +0.000 N 
ATOM     11  C   UNL     1      51.868   1.574  17.665  0.00  0.00    +0.000 C 
ATOM     12  O   UNL     1      53.002   2.045  17.635  0.00  0.00    +0.000 OA
ATOM     13  H   UNL     1      52.427  -0.309  18.279  0.00  0.00    +0.000 HD
ATOM     14  H   UNL     1      50.707  -0.110  17.994  0.00  0.00    +0.000 HD
ENDBRANCH   4  11
ENDBRANCH   2   7
ENDBRANCH   1   2
BRANCH   1  15
ATOM     15  C   UNL     1      47.571   5.636  14.039  0.00  0.00    +0.000 C 
BRANCH  15  16
ATOM     16  C   UNL     1      46.537   6.304  13.168  0.00  0.00    +0.000 A 
ATOM     17  C   UNL     1      46.366   7.691  13.210  0.00  0.00    +0.000 A 
ATOM     18  C   UNL     1      45.466   8.315  12.343  0.00  0.00    +0.000 A 
ATOM     19  C   UNL     1      44.723   7.560  11.427  0.00  0.00    +0.000 A 
ATOM     20  C   UNL     1      44.866   6.175  11.397  0.00  0.00    +0.000 A 
ATOM     21  C   UNL     1      45.776   5.556  12.259  0.00  0.00    +0.000 A 
BRANCH  20  22
ATOM     22  O   UNL     1      44.218   5.326  10.533  0.00  0.00    +0.000 OA
BRANCH  22  23
ATOM     23  C   UNL     1      44.920   4.184   9.992  0.00  0.00    +0.000 C 
ATOM     24  C   UNL     1      44.869   3.958   8.469  0.00  0.00    +0.000 C 
ATOM     25  N   UNL     1      44.389   2.582   8.665  0.00  0.00    +0.000 NA
ATOM     26  C   UNL     1      44.160   2.840  10.093  0.00  0.00    +0.000 C 
ATOM     27  H   UNL     1      45.087   1.862   8.480  0.00  0.00    +0.000 HD
ENDBRANCH  22  23
ENDBRANCH  20  22
ENDBRANCH  15  16
ENDBRANCH   1  15
TORSDOF 7
ENDMDL
MODEL 7
REMARK VINA RESULT:    -6.467      2.695      7.627
REMARK INTER + INTRA:          -9.801
REMARK INTER:                  -9.237
REMARK INTRA:                  -0.563
REMARK UNBOUND:                -0.687
REMARK  Name = 
REMARK  7 active torsions:
REMARK  status: ('A' for Active; 'I' for Inactive)
REMARK    1  A    between atoms: C_2  and  C_4
REMARK    2  A    between atoms: C_7  and  N_8
REMARK    3  A    between atoms: N_8  and  C_9
REMARK    4  A    between atoms: C_9  and  C_10
REMARK    5  A    between atoms: C_10  and  C_11
REMARK    6  A    between atoms: C_15  and  O_16
REMARK    7  A    between atoms: O_16  and  C_17
REMARK                            x       y       z     vdW  Elec       q    Type
REMARK                         _______ _______ _______ _____ _____    ______ ____
ROOT
ATOM      1  C   UNL     1      44.346   6.243  12.222  0.00  0.00    +0.000 C 
ENDROOT
BRANCH   1   2
ATOM      2  N   UNL     1      45.495   7.084  11.867  0.00  0.00    +0.000 N 
ATOM      3  H   UNL     1      45.223   8.051  11.713  0.00  0.00    +0.000 HD
BRANCH   2   7
ATOM      4  C   UNL     1      48.555   6.818  14.611  0.00  0.00    +0.000 A 
ATOM      5  C   UNL     1      48.231   8.034  14.031  0.00  0.00    +0.000 A 
ATOM      6  N   UNL     1      47.232   8.169  13.116  0.00  0.00    +0.000 NA
ATOM      7  C   UNL     1      46.560   7.046  12.785  0.00  0.00    +0.000 A 
ATOM      8  C   UNL     1      46.900   5.828  13.392  0.00  0.00    +0.000 A 
ATOM      9  N   UNL     1      47.899   5.668  14.301  0.00  0.00    +0.000 NA
BRANCH   4  11
ATOM     10  N   UNL     1      50.413   7.870  15.765  0.00  0.00    +0.000 N 
ATOM     11  C   UNL     1      49.653   6.743  15.613  0.00  0.00    +0.000 C 
ATOM     12  O   UNL     1      49.864   5.731  16.277  0.00  0.00    +0.000 OA
ATOM     13  H   UNL     1      51.139   7.881  16.467  0.00  0.00    +0.000 HD
ATOM     14  H   UNL     1      50.174   8.718  15.264  0.00  0.00    +0.000 HD
ENDBRANCH   4  11
ENDBRANCH   2   7
ENDBRANCH   1   2
BRANCH   1  15
ATOM     15  C   UNL     1      43.588   5.841  10.947  0.00  0.00    +0.000 C 
BRANCH  15  16
ATOM     16  C   UNL     1      44.141   4.573  10.346  0.00  0.00    +0.000 A 
ATOM     17  C   UNL     1      43.707   3.326  10.806  0.00  0.00    +0.000 A 
ATOM     18  C   UNL     1      44.159   2.154  10.192  0.00  0.00    +0.000 A 
ATOM     19  C   UNL     1      45.050   2.215   9.114  0.00  0.00    +0.000 A 
ATOM     20  C   UNL     1      45.509   3.452   8.668  0.00  0.00    +0.000 A 
ATOM     21  C   UNL     1      45.047   4.622   9.278  0.00  0.00    +0.000 A 
BRANCH  20  22
ATOM     22  O   UNL     1      46.362   3.650   7.609  0.00  0.00    +0.000 OA
BRANCH  22  23
ATOM     23  C   UNL     1      46.687   2.544   6.736  0.00  0.00    +0.000 C 
ATOM     24  C   UNL     1      48.066   1.876   6.898  0.00  0.00    +0.000 C 
ATOM     25  N   UNL     1      48.352   2.067   5.468  0.00  0.00    +0.000 NA
ATOM     26  C   UNL     1      47.183   2.945   5.327  0.00  0.00    +0.000 C 
ATOM     27  H   UNL     1      48.302   1.214   4.912  0.00  0.00    +0.000 HD
ENDBRANCH  22  23
ENDBRANCH  20  22
ENDBRANCH  15  16
ENDBRANCH   1  15
TORSDOF 7
ENDMDL
MODEL 8
REMARK VINA RESULT:    -6.432      3.191      7.387
REMARK INTER + INTRA:          -9.752
REMARK INTER:                  -9.023
REMARK INTRA:                  -0.728
REMARK UNBOUND:                -0.687
REMARK  Name = 
REMARK  7 active torsions:
REMARK  status: ('A' for Active; 'I' for Inactive)
REMARK    1  A    between atoms: C_2  and  C_4
REMARK    2  A    between atoms: C_7  and  N_8
REMARK    3  A    between atoms: N_8  and  C_9
REMARK    4  A    between atoms: C_9  and  C_10
REMARK    5  A    between atoms: C_10  and  C_11
REMARK    6  A    between atoms: C_15  and  O_16
REMARK    7  A    between atoms: O_16  and  C_17
REMARK                            x       y       z     vdW  Elec       q    Type
REMARK                         _______ _______ _______ _____ _____    ______ ____
ROOT
ATOM      1  C   UNL     1      49.492   7.345  12.966  0.00  0.00    +0.000 C 
ENDROOT
BRANCH   1   2
ATOM      2  N   UNL     1      49.163   7.724  14.344  0.00  0.00    +0.000 N 
ATOM      3  H   UNL     1      48.500   8.493  14.378  0.00  0.00    +0.000 HD
BRANCH   2   7
ATOM      4  C   UNL     1      47.885   4.691  16.821  0.00  0.00    +0.000 A 
ATOM      5  C   UNL     1      47.588   4.669  15.467  0.00  0.00    +0.000 A 
ATOM      6  N   UNL     1      47.985   5.652  14.612  0.00  0.00    +0.000 NA
ATOM      7  C   UNL     1      48.688   6.672  15.148  0.00  0.00    +0.000 A 
ATOM      8  C   UNL     1      48.984   6.669  16.519  0.00  0.00    +0.000 A 
ATOM      9  N   UNL     1      48.590   5.703  17.393  0.00  0.00    +0.000 NA
BRANCH   4  11
ATOM     10  N   UNL     1      48.175   3.349  18.822  0.00  0.00    +0.000 N 
ATOM     11  C   UNL     1      47.430   3.579  17.699  0.00  0.00    +0.000 C 
ATOM     12  O   UNL     1      46.434   2.909  17.439  0.00  0.00    +0.000 OA
ATOM     13  H   UNL     1      47.877   2.635  19.472  0.00  0.00    +0.000 HD
ATOM     14  H   UNL     1      48.946   3.963  19.057  0.00  0.00    +0.000 HD
ENDBRANCH   4  11
ENDBRANCH   2   7
ENDBRANCH   1   2
BRANCH   1  15
ATOM     15  C   UNL     1      48.709   8.234  11.986  0.00  0.00    +0.000 C 
BRANCH  15  16
ATOM     16  C   UNL     1      47.262   7.821  11.892  0.00  0.00    +0.000 A 
ATOM     17  C   UNL     1      46.246   8.773  12.010  0.00  0.00    +0.000 A 
ATOM     18  C   UNL     1      44.910   8.400  11.840  0.00  0.00    +0.000 A 
ATOM     19  C   UNL     1      44.574   7.071  11.554  0.00  0.00    +0.000 A 
ATOM     20  C   UNL     1      45.578   6.110  11.462  0.00  0.00    +0.000 A 
ATOM     21  C   UNL     1      46.914   6.489  11.623  0.00  0.00    +0.000 A 
BRANCH  20  22
ATOM     22  O   UNL     1      45.385   4.784  11.163  0.00  0.00    +0.000 OA
BRANCH  22  23
ATOM     23  C   UNL     1      44.041   4.253  11.096  0.00  0.00    +0.000 C 
ATOM     24  C   UNL     1      43.450   3.615  12.368  0.00  0.00    +0.000 C 
ATOM     25  N   UNL     1      43.133   2.383  11.630  0.00  0.00    +0.000 NA
ATOM     26  C   UNL     1      43.925   2.839  10.479  0.00  0.00    +0.000 C 
ATOM     27  H   UNL     1      42.141   2.258  11.429  0.00  0.00    +0.000 HD
ENDBRANCH  22  23
ENDBRANCH  20  22
ENDBRANCH  15  16
ENDBRANCH   1  15
TORSDOF 7
ENDMDL
MODEL 9
REMARK VINA RESULT:    -6.334      2.481      8.029
REMARK INTER + INTRA:          -9.613
REMARK INTER:                  -9.289
REMARK INTRA:                  -0.325
REMARK UNBOUND:                -0.687
REMARK  Name = 
REMARK  7 active torsions:
REMARK  status: ('A' for Active; 'I' for Inactive)
REMARK    1  A    between atoms: C_2  and  C_4
REMARK    2  A    between atoms: C_7  and  N_8
REMARK    3  A    between atoms: N_8  and  C_9
REMARK    4  A    between atoms: C_9  and  C_10
REMARK    5  A    between atoms: C_10  and  C_11
REMARK    6  A    between atoms: C_15  and  O_16
REMARK    7  A    between atoms: O_16  and  C_17
REMARK                            x       y       z     vdW  Elec       q    Type
REMARK                         _______ _______ _______ _____ _____    ______ ____
ROOT
ATOM      1  C   UNL     1      46.952   4.329  14.315  0.00  0.00    +0.000 C 
ENDROOT
BRANCH   1   2
ATOM      2  N   UNL     1      47.171   4.518  15.753  0.00  0.00    +0.000 N 
ATOM      3  H   UNL     1      46.343   4.289  16.296  0.00  0.00    +0.000 HD
BRANCH   2   7
ATOM      4  C   UNL     1      50.478   2.625  17.317  0.00  0.00    +0.000 A 
ATOM      5  C   UNL     1      49.543   1.916  16.579  0.00  0.00    +0.000 A 
ATOM      6  N   UNL     1      48.432   2.498  16.048  0.00  0.00    +0.000 NA
ATOM      7  C   UNL     1      48.273   3.819  16.278  0.00  0.00    +0.000 A 
ATOM      8  C   UNL     1      49.237   4.517  17.021  0.00  0.00    +0.000 A 
ATOM      9  N   UNL     1      50.349   3.954  17.568  0.00  0.00    +0.000 NA
BRANCH   4  11
ATOM     10  N   UNL     1      51.588   0.568  17.969  0.00  0.00    +0.000 N 
ATOM     11  C   UNL     1      51.675   1.929  17.861  0.00  0.00    +0.000 C 
ATOM     12  O   UNL     1      52.693   2.536  18.187  0.00  0.00    +0.000 OA
ATOM     13  H   UNL     1      52.394   0.048  18.289  0.00  0.00    +0.000 HD
ATOM     14  H   UNL     1      50.771   0.080  17.623  0.00  0.00    +0.000 HD
ENDBRANCH   4  11
ENDBRANCH   2   7
ENDBRANCH   1   2
BRANCH   1  15
ATOM     15  C   UNL     1      46.090   5.479  13.769  0.00  0.00    +0.000 C 
BRANCH  15  16
ATOM     16  C   UNL     1      44.991   4.975  12.869  0.00  0.00    +0.000 A 
ATOM     17  C   UNL     1      43.707   5.523  12.946  0.00  0.00    +0.000 A 
ATOM     18  C   UNL     1      42.713   5.111  12.055  0.00  0.00    +0.000 A 
ATOM     19  C   UNL     1      42.988   4.145  11.080  0.00  0.00    +0.000 A 
ATOM     20  C   UNL     1      44.256   3.573  11.014  0.00  0.00    +0.000 A 
ATOM     21  C   UNL     1      45.251   3.995  11.901  0.00  0.00    +0.000 A 
BRANCH  20  22
ATOM     22  O   UNL     1      44.660   2.637  10.093  0.00  0.00    +0.000 OA
BRANCH  22  23
ATOM     23  C   UNL     1      44.775   3.007   8.700  0.00  0.00    +0.000 C 
ATOM     24  C   UNL     1      46.018   2.531   7.924  0.00  0.00    +0.000 C 
ATOM     25  N   UNL     1      46.312   3.909   7.503  0.00  0.00    +0.000 NA
ATOM     26  C   UNL     1      45.313   4.435   8.443  0.00  0.00    +0.000 C 
ATOM     27  H   UNL     1      46.105   4.102   6.524  0.00  0.00    +0.000 HD
ENDBRANCH  22  23
ENDBRANCH  20  22
ENDBRANCH  15  16
ENDBRANCH   1  15
TORSDOF 7
ENDMDL
