MODEL 1
REMARK VINA RESULT:    -8.494      0.000      0.000
REMARK INTER + INTRA:         -11.929
REMARK INTER:                 -10.977
REMARK INTRA:                  -0.952
REMARK UNBOUND:                -0.952
REMARK  Name = 
REMARK  5 active torsions:
REMARK  status: ('A' for Active; 'I' for Inactive)
REMARK    1  A    between atoms: C_2  and  C_3
REMARK    2  A    between atoms: N_7  and  C_8
REMARK    3  A    between atoms: C_8  and  C_9
REMARK    4  A    between atoms: C_9  and  C_12
REMARK    5  A    between atoms: C_16  and  C_17
REMARK                            x       y       z     vdW  Elec       q    Type
REMARK                         _______ _______ _______ _____ _____    ______ ____
ROOT
ATOM      1  C   UNL     1      43.608   4.626  12.432  0.00  0.00    +0.000 C 
ATOM      2  F   UNL     1      42.693   5.535  12.887  0.00  0.00    +0.000 F 
ATOM      3  F   UNL     1      43.281   3.451  13.049  0.00  0.00    +0.000 F 
ENDROOT
BRANCH   1   4
ATOM      4  C   UNL     1      45.032   5.054  12.739  0.00  0.00    +0.000 A 
ATOM      5  C   UNL     1      45.772   4.372  13.713  0.00  0.00    +0.000 A 
ATOM      6  C   UNL     1      47.080   4.751  13.993  0.00  0.00    +0.000 A 
ATOM      7  C   UNL     1      47.651   5.840  13.332  0.00  0.00    +0.000 A 
ATOM      8  C   UNL     1      46.918   6.591  12.404  0.00  0.00    +0.000 A 
ATOM      9  C   UNL     1      45.612   6.164  12.095  0.00  0.00    +0.000 A 
BRANCH   8  10
ATOM     10  C   UNL     1      47.418   7.934  11.870  0.00  0.00    +0.000 C 
ATOM     11  C   UNL     1      48.937   8.183  11.882  0.00  0.00    +0.000 C 
ATOM     12  C   UNL     1      49.491   8.663  13.225  0.00  0.00    +0.000 C 
ATOM     13  C   UNL     1      48.615   9.726  13.890  0.00  0.00    +0.000 C 
ATOM     14  N   UNL     1      47.204   9.351  13.929  0.00  0.00    +0.000 NA
ATOM     15  C   UNL     1      46.686   9.094  12.580  0.00  0.00    +0.000 C 
ATOM     16  H   UNL     1      46.660  10.091  14.370  0.00  0.00    +0.000 HD
ENDBRANCH   8  10
ENDBRANCH   1   4
BRANCH   1  17
ATOM     17  C   UNL     1      43.409   4.452  10.907  0.00  0.00    +0.000 C 
BRANCH  17  22
ATOM     18  C   UNL     1      46.641   2.469   7.429  0.00  0.00    +0.000 A 
ATOM     19  C   UNL     1      46.291   3.783   7.705  0.00  0.00    +0.000 A 
ATOM     20  C   UNL     1      45.349   4.035   8.708  0.00  0.00    +0.000 A 
ATOM     21  C   UNL     1      44.788   2.981   9.420  0.00  0.00    +0.000 A 
ATOM     22  N   UNL     1      43.848   3.156  10.398  0.00  0.00    +0.000 N 
ATOM     23  N   UNL     1      45.132   1.708   9.156  0.00  0.00    +0.000 NA
ATOM     24  C   UNL     1      46.041   1.473   8.177  0.00  0.00    +0.000 A 
ATOM     25  H   UNL     1      43.567   2.304  10.862  0.00  0.00    +0.000 HD
BRANCH  18  27
ATOM     26  N   UNL     1      48.358   1.888   5.582  0.00  0.00    +0.000 NA
ATOM     27  C   UNL     1      47.588   2.154   6.407  0.00  0.00    +0.000 C 
ENDBRANCH  18  27
ENDBRANCH  17  22
ENDBRANCH   1  17
TORSDOF 5
ENDMDL
MODEL 2
REMARK VINA RESULT:    -8.272      1.310      2.056
REMARK INTER + INTRA:         -11.642
REMARK INTER:                 -10.602
REMARK INTRA:                  -1.040
REMARK UNBOUND:                -0.952
REMARK  Name = 
REMARK  5 active torsions:
REMARK  status: ('A' for Active; 'I' for Inactive)
REMARK    1  A    between atoms: C_2  and  C_3
REMARK    2  A    between atoms: N_7  and  C_8
REMARK    3  A    between atoms: C_8  and  C_9
REMARK    4  A    between atoms: C_9  and  C_12
REMARK    5  A    between atoms: C_16  and  C_17
REMARK                            x       y       z     vdW  Elec       q    Type
REMARK                         _______ _______ _______ _____ _____    ______ ____
ROOT
ATOM      1  C   UNL     1      44.173   4.260  12.286  0.00  0.00    +0.000 C 
ATOM      2  F   UNL     1      43.273   4.031  13.290  0.00  0.00    +0.000 F 
ATOM      3  F   UNL     1      45.216   3.415  12.542  0.00  0.00    +0.000 F 
ENDROOT
BRANCH   1   4
ATOM      4  C   UNL     1      44.615   5.712  12.242  0.00  0.00    +0.000 A 
ATOM      5  C   UNL     1      44.023   6.597  11.331  0.00  0.00    +0.000 A 
ATOM      6  C   UNL     1      44.415   7.930  11.292  0.00  0.00    +0.000 A 
ATOM      7  C   UNL     1      45.430   8.387  12.134  0.00  0.00    +0.000 A 
ATOM      8  C   UNL     1      46.095   7.517  13.008  0.00  0.00    +0.000 A 
ATOM      9  C   UNL     1      45.652   6.181  13.071  0.00  0.00    +0.000 A 
BRANCH   8  10
ATOM     10  C   UNL     1      47.376   7.922  13.738  0.00  0.00    +0.000 C 
ATOM     11  C   UNL     1      48.194   9.085  13.148  0.00  0.00    +0.000 C 
ATOM     12  C   UNL     1      49.130   8.688  12.006  0.00  0.00    +0.000 C 
ATOM     13  C   UNL     1      49.885   7.384  12.274  0.00  0.00    +0.000 C 
ATOM     14  N   UNL     1      49.009   6.308  12.725  0.00  0.00    +0.000 NA
ATOM     15  C   UNL     1      48.284   6.689  13.943  0.00  0.00    +0.000 C 
ATOM     16  H   UNL     1      49.554   5.465  12.901  0.00  0.00    +0.000 HD
ENDBRANCH   8  10
ENDBRANCH   1   4
BRANCH   1  17
ATOM     17  C   UNL     1      43.525   3.848  10.943  0.00  0.00    +0.000 C 
BRANCH  17  22
ATOM     18  C   UNL     1      46.753   2.368   7.219  0.00  0.00    +0.000 A 
ATOM     19  C   UNL     1      46.264   3.622   7.559  0.00  0.00    +0.000 A 
ATOM     20  C   UNL     1      45.362   3.730   8.623  0.00  0.00    +0.000 A 
ATOM     21  C   UNL     1      44.977   2.597   9.330  0.00  0.00    +0.000 A 
ATOM     22  N   UNL     1      44.085   2.630  10.366  0.00  0.00    +0.000 N 
ATOM     23  N   UNL     1      45.455   1.383   9.003  0.00  0.00    +0.000 NA
ATOM     24  C   UNL     1      46.325   1.287   7.966  0.00  0.00    +0.000 A 
ATOM     25  H   UNL     1      43.938   1.738  10.817  0.00  0.00    +0.000 HD
BRANCH  18  27
ATOM     26  N   UNL     1      48.403   2.070   5.248  0.00  0.00    +0.000 NA
ATOM     27  C   UNL     1      47.666   2.199   6.134  0.00  0.00    +0.000 C 
ENDBRANCH  18  27
ENDBRANCH  17  22
ENDBRANCH   1  17
TORSDOF 5
ENDMDL
MODEL 3
REMARK VINA RESULT:    -8.147      1.673      2.886
REMARK INTER + INTRA:         -11.480
REMARK INTER:                 -10.678
REMARK INTRA:                  -0.802
REMARK UNBOUND:                -0.952
REMARK  Name = 
REMARK  5 active torsions:
REMARK  status: ('A' for Active; 'I' for Inactive)
REMARK    1  A    between atoms: C_2  and  C_3
REMARK    2  A    between atoms: N_7  and  C_8
REMARK    3  A    between atoms: C_8  and  C_9
REMARK    4  A    between atoms: C_9  and  C_12
REMARK    5  A    between atoms: C_16  and  C_17
REMARK                            x       y       z     vdW  Elec       q    Type
REMARK                         _______ _______ _______ _____ _____    ______ ____
ROOT
ATOM      1  C   UNL     1      43.081   5.361  12.077  0.00  0.00    +0.000 C 
ATOM      2  F   UNL     1      42.077   6.214  11.714  0.00  0.00    +0.000 F 
ATOM      3  F   UNL     1      42.584   4.654  13.137  0.00  0.00    +0.000 F 
ENDROOT
BRANCH   1   4
ATOM      4  C   UNL     1      44.355   6.105  12.437  0.00  0.00    +0.000 A 
ATOM      5  C   UNL     1      44.537   7.427  12.011  0.00  0.00    +0.000 A 
ATOM      6  C   UNL     1      45.696   8.118  12.345  0.00  0.00    +0.000 A 
ATOM      7  C   UNL     1      46.704   7.486  13.075  0.00  0.00    +0.000 A 
ATOM      8  C   UNL     1      46.589   6.142  13.457  0.00  0.00    +0.000 A 
ATOM      9  C   UNL     1      45.388   5.471  13.154  0.00  0.00    +0.000 A 
BRANCH   8  10
ATOM     10  C   UNL     1      47.774   5.352  14.014  0.00  0.00    +0.000 C 
ATOM     11  C   UNL     1      47.469   4.032  14.745  0.00  0.00    +0.000 C 
ATOM     12  C   UNL     1      47.061   4.197  16.210  0.00  0.00    +0.000 C 
ATOM     13  C   UNL     1      47.922   5.215  16.961  0.00  0.00    +0.000 C 
ATOM     14  N   UNL     1      48.065   6.475  16.239  0.00  0.00    +0.000 NA
ATOM     15  C   UNL     1      48.646   6.261  14.908  0.00  0.00    +0.000 C 
ATOM     16  H   UNL     1      48.653   7.117  16.770  0.00  0.00    +0.000 HD
ENDBRANCH   8  10
ENDBRANCH   1   4
BRANCH   1  17
ATOM     17  C   UNL     1      43.337   4.379  10.909  0.00  0.00    +0.000 C 
BRANCH  17  22
ATOM     18  C   UNL     1      46.721   2.690   7.421  0.00  0.00    +0.000 A 
ATOM     19  C   UNL     1      45.997   2.014   8.393  0.00  0.00    +0.000 A 
ATOM     20  C   UNL     1      45.153   2.743   9.237  0.00  0.00    +0.000 A 
ATOM     21  C   UNL     1      45.038   4.120   9.088  0.00  0.00    +0.000 A 
ATOM     22  N   UNL     1      44.246   4.895   9.891  0.00  0.00    +0.000 N 
ATOM     23  N   UNL     1      45.735   4.774   8.142  0.00  0.00    +0.000 NA
ATOM     24  C   UNL     1      46.556   4.059   7.333  0.00  0.00    +0.000 A 
ATOM     25  H   UNL     1      44.224   5.872   9.635  0.00  0.00    +0.000 HD
BRANCH  18  27
ATOM     26  N   UNL     1      48.335   1.439   5.831  0.00  0.00    +0.000 NA
ATOM     27  C   UNL     1      47.607   1.996   6.541  0.00  0.00    +0.000 C 
ENDBRANCH  18  27
ENDBRANCH  17  22
ENDBRANCH   1  17
TORSDOF 5
ENDMDL
MODEL 4
REMARK VINA RESULT:    -7.075      1.856      2.792
REMARK INTER + INTRA:         -10.095
REMARK INTER:                  -9.248
REMARK INTRA:                  -0.847
REMARK UNBOUND:                -0.952
REMARK  Name = 
REMARK  5 active torsions:
REMARK  status: ('A' for Active; 'I' for Inactive)
REMARK    1  A    between atoms: C_2  and  C_3
REMARK    2  A    between atoms: N_7  and  C_8
REMARK    3  A    between atoms: C_8  and  C_9
REMARK    4  A    between atoms: C_9  and  C_12
REMARK    5  A    between atoms: C_16  and  C_17
REMARK                            x       y       z     vdW  Elec       q    Type
REMARK                         _______ _______ _______ _____ _____    ______ ____
ROOT
ATOM      1  C   UNL     1      44.661   6.007  12.414  0.00  0.00    +0.000 C 
ATOM      2  F   UNL     1      43.739   5.894  13.417  0.00  0.00    +0.000 F 
ATOM      3  F   UNL     1      45.541   4.981  12.620  0.00  0.00    +0.000 F 
ENDROOT
BRANCH   1   4
ATOM      4  C   UNL     1      45.351   7.359  12.428  0.00  0.00    +0.000 A 
ATOM      5  C   UNL     1      44.767   8.450  11.770  0.00  0.00    +0.000 A 
ATOM      6  C   UNL     1      45.388   9.694  11.787  0.00  0.00    +0.000 A 
ATOM      7  C   UNL     1      46.617   9.855  12.428  0.00  0.00    +0.000 A 
ATOM      8  C   UNL     1      47.267   8.771  13.034  0.00  0.00    +0.000 A 
ATOM      9  C   UNL     1      46.602   7.530  13.052  0.00  0.00    +0.000 A 
BRANCH   8  10
ATOM     10  C   UNL     1      48.721   8.855  13.502  0.00  0.00    +0.000 C 
ATOM     11  C   UNL     1      49.635   9.879  12.804  0.00  0.00    +0.000 C 
ATOM     12  C   UNL     1      50.229   9.400  11.479  0.00  0.00    +0.000 C 
ATOM     13  C   UNL     1      50.731   7.955  11.533  0.00  0.00    +0.000 C 
ATOM     14  N   UNL     1      49.752   7.039  12.111  0.00  0.00    +0.000 NA
ATOM     15  C   UNL     1      49.372   7.455  13.466  0.00  0.00    +0.000 C 
ATOM     16  H   UNL     1      50.133   6.094  12.136  0.00  0.00    +0.000 HD
ENDBRANCH   8  10
ENDBRANCH   1   4
BRANCH   1  17
ATOM     17  C   UNL     1      43.946   5.775  11.062  0.00  0.00    +0.000 C 
BRANCH  17  22
ATOM     18  C   UNL     1      46.187   2.321   7.977  0.00  0.00    +0.000 A 
ATOM     19  C   UNL     1      45.402   2.159   9.110  0.00  0.00    +0.000 A 
ATOM     20  C   UNL     1      44.938   3.298   9.779  0.00  0.00    +0.000 A 
ATOM     21  C   UNL     1      45.253   4.564   9.302  0.00  0.00    +0.000 A 
ATOM     22  N   UNL     1      44.849   5.717   9.918  0.00  0.00    +0.000 N 
ATOM     23  N   UNL     1      46.009   4.720   8.200  0.00  0.00    +0.000 NA
ATOM     24  C   UNL     1      46.459   3.610   7.562  0.00  0.00    +0.000 A 
ATOM     25  H   UNL     1      45.111   6.562   9.431  0.00  0.00    +0.000 HD
BRANCH  18  27
ATOM     26  N   UNL     1      47.107   0.283   6.675  0.00  0.00    +0.000 NA
ATOM     27  C   UNL     1      46.697   1.193   7.264  0.00  0.00    +0.000 C 
ENDBRANCH  18  27
ENDBRANCH  17  22
ENDBRANCH   1  17
TORSDOF 5
ENDMDL
MODEL 5
REMARK VINA RESULT:    -6.692      3.596      6.143
REMARK INTER + INTRA:          -9.600
REMARK INTER:                  -8.327
REMARK INTRA:                  -1.273
REMARK UNBOUND:                -0.952
REMARK  Name = 
REMARK  5 active torsions:
REMARK  status: ('A' for Active; 'I' for Inactive)
REMARK    1  A    between atoms: C_2  and  C_3
REMARK    2  A    between atoms: N_7  and  C_8
REMARK    3  A    between atoms: C_8  and  C_9
REMARK    4  A    between atoms: C_9  and  C_12
REMARK    5  A    between atoms: C_16  and  C_17
REMARK                            x       y       z     vdW  Elec       q    Type
REMARK                         _______ _______ _______ _____ _____    ______ ____
ROOT
ATOM      1  C   UNL     1      49.029   7.915  13.281  0.00  0.00    +0.000 C 
ATOM      2  F   UNL     1      49.289   7.093  12.220  0.00  0.00    +0.000 F 
ATOM      3  F   UNL     1      49.674   9.086  12.993  0.00  0.00    +0.000 F 
ENDROOT
BRANCH   1   4
ATOM      4  C   UNL     1      49.502   7.313  14.592  0.00  0.00    +0.000 A 
ATOM      5  C   UNL     1      50.827   7.498  15.010  0.00  0.00    +0.000 A 
ATOM      6  C   UNL     1      51.264   6.959  16.214  0.00  0.00    +0.000 A 
ATOM      7  C   UNL     1      50.396   6.196  16.997  0.00  0.00    +0.000 A 
ATOM      8  C   UNL     1      49.086   5.929  16.578  0.00  0.00    +0.000 A 
ATOM      9  C   UNL     1      48.643   6.524  15.381  0.00  0.00    +0.000 A 
BRANCH   8  10
ATOM     10  C   UNL     1      48.208   4.887  17.272  0.00  0.00    +0.000 C 
ATOM     11  C   UNL     1      48.903   3.879  18.206  0.00  0.00    +0.000 C 
ATOM     12  C   UNL     1      49.530   2.681  17.492  0.00  0.00    +0.000 C 
ATOM     13  C   UNL     1      48.633   2.098  16.398  0.00  0.00    +0.000 C 
ATOM     14  N   UNL     1      48.108   3.118  15.496  0.00  0.00    +0.000 NA
ATOM     15  C   UNL     1      47.349   4.137  16.231  0.00  0.00    +0.000 C 
ATOM     16  H   UNL     1      47.511   2.687  14.792  0.00  0.00    +0.000 HD
ENDBRANCH   8  10
ENDBRANCH   1   4
BRANCH   1  17
ATOM     17  C   UNL     1      47.508   8.191  13.327  0.00  0.00    +0.000 C 
BRANCH  17  22
ATOM     18  C   UNL     1      44.468   4.297  11.890  0.00  0.00    +0.000 A 
ATOM     19  C   UNL     1      45.153   4.531  13.073  0.00  0.00    +0.000 A 
ATOM     20  C   UNL     1      45.941   5.683  13.182  0.00  0.00    +0.000 A 
ATOM     21  C   UNL     1      46.019   6.577  12.122  0.00  0.00    +0.000 A 
ATOM     22  N   UNL     1      46.784   7.711  12.154  0.00  0.00    +0.000 N 
ATOM     23  N   UNL     1      45.349   6.352  10.976  0.00  0.00    +0.000 NA
ATOM     24  C   UNL     1      44.593   5.230  10.878  0.00  0.00    +0.000 A 
ATOM     25  H   UNL     1      46.705   8.290  11.331  0.00  0.00    +0.000 HD
BRANCH  18  27
ATOM     26  N   UNL     1      43.010   2.182  11.574  0.00  0.00    +0.000 NA
ATOM     27  C   UNL     1      43.660   3.131  11.720  0.00  0.00    +0.000 C 
ENDBRANCH  18  27
ENDBRANCH  17  22
ENDBRANCH   1  17
TORSDOF 5
ENDMDL
MODEL 6
REMARK VINA RESULT:    -6.315      4.022      8.116
REMARK INTER + INTRA:          -9.112
REMARK INTER:                  -8.292
REMARK INTRA:                  -0.820
REMARK UNBOUND:                -0.952
REMARK  Name = 
REMARK  5 active torsions:
REMARK  status: ('A' for Active; 'I' for Inactive)
REMARK    1  A    between atoms: C_2  and  C_3
REMARK    2  A    between atoms: N_7  and  C_8
REMARK    3  A    between atoms: C_8  and  C_9
REMARK    4  A    between atoms: C_9  and  C_12
REMARK    5  A    between atoms: C_16  and  C_17
REMARK                            x       y       z     vdW  Elec       q    Type
REMARK                         _______ _______ _______ _____ _____    ______ ____
ROOT
ATOM      1  C   UNL     1      49.631   8.400  11.943  0.00  0.00    +0.000 C 
ATOM      2  F   UNL     1      49.891   9.485  11.152  0.00  0.00    +0.000 F 
ATOM      3  F   UNL     1      50.226   7.345  11.308  0.00  0.00    +0.000 F 
ENDROOT
BRANCH   1   4
ATOM      4  C   UNL     1      48.141   8.182  12.134  0.00  0.00    +0.000 A 
ATOM      5  C   UNL     1      47.335   9.227  12.604  0.00  0.00    +0.000 A 
ATOM      6  C   UNL     1      45.968   9.038  12.772  0.00  0.00    +0.000 A 
ATOM      7  C   UNL     1      45.395   7.793  12.509  0.00  0.00    +0.000 A 
ATOM      8  C   UNL     1      46.180   6.704  12.106  0.00  0.00    +0.000 A 
ATOM      9  C   UNL     1      47.554   6.925  11.893  0.00  0.00    +0.000 A 
BRANCH   8  10
ATOM     10  C   UNL     1      45.631   5.276  12.072  0.00  0.00    +0.000 C 
ATOM     11  C   UNL     1      44.886   4.831  10.801  0.00  0.00    +0.000 C 
ATOM     12  C   UNL     1      43.417   5.254  10.745  0.00  0.00    +0.000 C 
ATOM     13  C   UNL     1      42.685   5.059  12.074  0.00  0.00    +0.000 C 
ATOM     14  N   UNL     1      43.419   5.611  13.209  0.00  0.00    +0.000 NA
ATOM     15  C   UNL     1      44.756   5.014  13.317  0.00  0.00    +0.000 C 
ATOM     16  H   UNL     1      42.901   5.449  14.071  0.00  0.00    +0.000 HD
ENDBRANCH   8  10
ENDBRANCH   1   4
BRANCH   1  17
ATOM     17  C   UNL     1      50.330   8.608  13.307  0.00  0.00    +0.000 C 
BRANCH  17  22
ATOM     18  C   UNL     1      48.511   6.982  17.837  0.00  0.00    +0.000 A 
ATOM     19  C   UNL     1      48.466   8.229  17.230  0.00  0.00    +0.000 A 
ATOM     20  C   UNL     1      49.077   8.396  15.982  0.00  0.00    +0.000 A 
ATOM     21  C   UNL     1      49.705   7.322  15.364  0.00  0.00    +0.000 A 
ATOM     22  N   UNL     1      50.338   7.420  14.155  0.00  0.00    +0.000 N 
ATOM     23  N   UNL     1      49.744   6.112  15.951  0.00  0.00    +0.000 NA
ATOM     24  C   UNL     1      49.154   5.961  17.163  0.00  0.00    +0.000 A 
ATOM     25  H   UNL     1      50.707   6.548  13.806  0.00  0.00    +0.000 HD
BRANCH  18  27
ATOM     26  N   UNL     1      47.429   6.590  20.155  0.00  0.00    +0.000 NA
ATOM     27  C   UNL     1      47.915   6.760  19.116  0.00  0.00    +0.000 C 
ENDBRANCH  18  27
ENDBRANCH  17  22
ENDBRANCH   1  17
TORSDOF 5
ENDMDL
MODEL 7
REMARK VINA RESULT:    -6.198      4.061      7.864
REMARK INTER + INTRA:          -8.962
REMARK INTER:                  -7.976
REMARK INTRA:                  -0.985
REMARK UNBOUND:                -0.952
REMARK  Name = 
REMARK  5 active torsions:
REMARK  status: ('A' for Active; 'I' for Inactive)
REMARK    1  A    between atoms: C_2  and  C_3
REMARK    2  A    between atoms: N_7  and  C_8
REMARK    3  A    between atoms: C_8  and  C_9
REMARK    4  A    between atoms: C_9  and  C_12
REMARK    5  A    between atoms: C_16  and  C_17
REMARK                            x       y       z     vdW  Elec       q    Type
REMARK                         _______ _______ _______ _____ _____    ______ ____
ROOT
ATOM      1  C   UNL     1      48.675   8.088  13.245  0.00  0.00    +0.000 C 
ATOM      2  F   UNL     1      49.365   9.189  12.818  0.00  0.00    +0.000 F 
ATOM      3  F   UNL     1      49.464   7.022  12.916  0.00  0.00    +0.000 F 
ENDROOT
BRANCH   1   4
ATOM      4  C   UNL     1      47.301   7.998  12.604  0.00  0.00    +0.000 A 
ATOM      5  C   UNL     1      46.446   9.108  12.623  0.00  0.00    +0.000 A 
ATOM      6  C   UNL     1      45.191   9.036  12.030  0.00  0.00    +0.000 A 
ATOM      7  C   UNL     1      44.758   7.845  11.446  0.00  0.00    +0.000 A 
ATOM      8  C   UNL     1      45.556   6.693  11.471  0.00  0.00    +0.000 A 
ATOM      9  C   UNL     1      46.845   6.796  12.031  0.00  0.00    +0.000 A 
BRANCH   8  10
ATOM     10  C   UNL     1      45.010   5.318  11.085  0.00  0.00    +0.000 C 
ATOM     11  C   UNL     1      43.492   5.193  10.857  0.00  0.00    +0.000 C 
ATOM     12  C   UNL     1      42.672   5.013  12.136  0.00  0.00    +0.000 C 
ATOM     13  C   UNL     1      43.302   4.024  13.119  0.00  0.00    +0.000 C 
ATOM     14  N   UNL     1      44.718   4.289  13.355  0.00  0.00    +0.000 NA
ATOM     15  C   UNL     1      45.480   4.254  12.101  0.00  0.00    +0.000 C 
ATOM     16  H   UNL     1      45.097   3.602  14.005  0.00  0.00    +0.000 HD
ENDBRANCH   8  10
ENDBRANCH   1   4
BRANCH   1  17
ATOM     17  C   UNL     1      48.553   8.152  14.786  0.00  0.00    +0.000 C 
BRANCH  17  22
ATOM     18  C   UNL     1      51.168   4.694  17.557  0.00  0.00    +0.000 A 
ATOM     19  C   UNL     1      51.574   5.875  16.951  0.00  0.00    +0.000 A 
ATOM     20  C   UNL     1      50.639   6.619  16.225  0.00  0.00    +0.000 A 
ATOM     21  C   UNL     1      49.323   6.183  16.128  0.00  0.00    +0.000 A 
ATOM     22  N   UNL     1      48.363   6.851  15.418  0.00  0.00    +0.000 N 
ATOM     23  N   UNL     1      48.928   5.041  16.720  0.00  0.00    +0.000 NA
ATOM     24  C   UNL     1      49.844   4.322  17.417  0.00  0.00    +0.000 A 
ATOM     25  H   UNL     1      47.442   6.442  15.477  0.00  0.00    +0.000 HD
BRANCH  18  27
ATOM     26  N   UNL     1      52.828   3.243  18.911  0.00  0.00    +0.000 NA
ATOM     27  C   UNL     1      52.084   3.889  18.300  0.00  0.00    +0.000 C 
ENDBRANCH  18  27
ENDBRANCH  17  22
ENDBRANCH   1  17
TORSDOF 5
ENDMDL
MODEL 8
REMARK VINA RESULT:    -6.104      3.653      6.199
REMARK INTER + INTRA:          -8.840
REMARK INTER:                  -7.623
REMARK INTRA:                  -1.217
REMARK UNBOUND:                -0.952
REMARK  Name = 
REMARK  5 active torsions:
REMARK  status: ('A' for Active; 'I' for Inactive)
REMARK    1  A    between atoms: C_2  and  C_3
REMARK    2  A    between atoms: N_7  and  C_8
REMARK    3  A    between atoms: C_8  and  C_9
REMARK    4  A    between atoms: C_9  and  C_12
REMARK    5  A    between atoms: C_16  and  C_17
REMARK                            x       y       z     vdW  Elec       q    Type
REMARK                         _______ _______ _______ _____ _____    ______ ____
ROOT
ATOM      1  C   UNL     1      48.371   8.790  14.044  0.00  0.00    +0.000 C 
ATOM      2  F   UNL     1      49.233   9.769  13.635  0.00  0.00    +0.000 F 
ATOM      3  F   UNL     1      47.140   9.193  13.607  0.00  0.00    +0.000 F 
ENDROOT
BRANCH   1   4
ATOM      4  C   UNL     1      48.405   8.598  15.550  0.00  0.00    +0.000 A 
ATOM      5  C   UNL     1      48.362   9.712  16.398  0.00  0.00    +0.000 A 
ATOM      6  C   UNL     1      48.383   9.543  17.778  0.00  0.00    +0.000 A 
ATOM      7  C   UNL     1      48.485   8.264  18.327  0.00  0.00    +0.000 A 
ATOM      8  C   UNL     1      48.603   7.131  17.510  0.00  0.00    +0.000 A 
ATOM      9  C   UNL     1      48.530   7.315  16.115  0.00  0.00    +0.000 A 
BRANCH   8  10
ATOM     10  C   UNL     1      48.984   5.761  18.071  0.00  0.00    +0.000 C 
ATOM     11  C   UNL     1      49.361   4.659  17.064  0.00  0.00    +0.000 C 
ATOM     12  C   UNL     1      48.168   3.927  16.449  0.00  0.00    +0.000 C 
ATOM     13  C   UNL     1      47.084   3.581  17.472  0.00  0.00    +0.000 C 
ATOM     14  N   UNL     1      46.715   4.718  18.309  0.00  0.00    +0.000 NA
ATOM     15  C   UNL     1      47.881   5.251  19.024  0.00  0.00    +0.000 C 
ATOM     16  H   UNL     1      46.000   4.439  18.980  0.00  0.00    +0.000 HD
ENDBRANCH   8  10
ENDBRANCH   1   4
BRANCH   1  17
ATOM     17  C   UNL     1      48.742   7.475  13.319  0.00  0.00    +0.000 C 
BRANCH  17  22
ATOM     18  C   UNL     1      44.947   4.281  11.951  0.00  0.00    +0.000 A 
ATOM     19  C   UNL     1      45.712   4.349  13.107  0.00  0.00    +0.000 A 
ATOM     20  C   UNL     1      46.712   5.322  13.201  0.00  0.00    +0.000 A 
ATOM     21  C   UNL     1      46.921   6.211  12.153  0.00  0.00    +0.000 A 
ATOM     22  N   UNL     1      47.894   7.173  12.171  0.00  0.00    +0.000 N 
ATOM     23  N   UNL     1      46.176   6.148  11.035  0.00  0.00    +0.000 NA
ATOM     24  C   UNL     1      45.212   5.197  10.951  0.00  0.00    +0.000 A 
ATOM     25  H   UNL     1      47.896   7.777  11.362  0.00  0.00    +0.000 HD
BRANCH  18  27
ATOM     26  N   UNL     1      43.090   2.499  11.684  0.00  0.00    +0.000 NA
ATOM     27  C   UNL     1      43.922   3.299  11.798  0.00  0.00    +0.000 C 
ENDBRANCH  18  27
ENDBRANCH  17  22
ENDBRANCH   1  17
TORSDOF 5
ENDMDL
MODEL 9
REMARK VINA RESULT:    -6.062      3.887      6.588
REMARK INTER + INTRA:          -8.786
REMARK INTER:                  -7.384
REMARK INTRA:                  -1.402
REMARK UNBOUND:                -0.952
REMARK  Name = 
REMARK  5 active torsions:
REMARK  status: ('A' for Active; 'I' for Inactive)
REMARK    1  A    between atoms: C_2  and  C_3
REMARK    2  A    between atoms: N_7  and  C_8
REMARK    3  A    between atoms: C_8  and  C_9
REMARK    4  A    between atoms: C_9  and  C_12
REMARK    5  A    between atoms: C_16  and  C_17
REMARK                            x       y       z     vdW  Elec       q    Type
REMARK                         _______ _______ _______ _____ _____    ______ ____
ROOT
ATOM      1  C   UNL     1      45.746   4.675  12.805  0.00  0.00    +0.000 C 
ATOM      2  F   UNL     1      45.475   4.016  11.638  0.00  0.00    +0.000 F 
ATOM      3  F   UNL     1      44.649   4.470  13.594  0.00  0.00    +0.000 F 
ENDROOT
BRANCH   1   4
ATOM      4  C   UNL     1      46.013   6.152  12.573  0.00  0.00    +0.000 A 
ATOM      5  C   UNL     1      44.943   7.054  12.511  0.00  0.00    +0.000 A 
ATOM      6  C   UNL     1      45.180   8.409  12.309  0.00  0.00    +0.000 A 
ATOM      7  C   UNL     1      46.483   8.874  12.128  0.00  0.00    +0.000 A 
ATOM      8  C   UNL     1      47.572   7.992  12.111  0.00  0.00    +0.000 A 
ATOM      9  C   UNL     1      47.321   6.630  12.367  0.00  0.00    +0.000 A 
BRANCH   8  10
ATOM     10  C   UNL     1      48.964   8.428  11.651  0.00  0.00    +0.000 C 
ATOM     11  C   UNL     1      50.175   7.687  12.246  0.00  0.00    +0.000 C 
ATOM     12  C   UNL     1      50.617   8.193  13.620  0.00  0.00    +0.000 C 
ATOM     13  C   UNL     1      50.628   9.720  13.722  0.00  0.00    +0.000 C 
ATOM     14  N   UNL     1      49.393  10.327  13.234  0.00  0.00    +0.000 NA
ATOM     15  C   UNL     1      49.133   9.952  11.839  0.00  0.00    +0.000 C 
ATOM     16  H   UNL     1      49.450  11.341  13.312  0.00  0.00    +0.000 HD
ENDBRANCH   8  10
ENDBRANCH   1   4
BRANCH   1  17
ATOM     17  C   UNL     1      46.967   4.001  13.477  0.00  0.00    +0.000 C 
BRANCH  17  22
ATOM     18  C   UNL     1      48.360   5.841  18.075  0.00  0.00    +0.000 A 
ATOM     19  C   UNL     1      48.735   6.212  16.792  0.00  0.00    +0.000 A 
ATOM     20  C   UNL     1      48.208   5.508  15.703  0.00  0.00    +0.000 A 
ATOM     21  C   UNL     1      47.316   4.463  15.914  0.00  0.00    +0.000 A 
ATOM     22  N   UNL     1      46.780   3.722  14.897  0.00  0.00    +0.000 N 
ATOM     23  N   UNL     1      46.949   4.107  17.158  0.00  0.00    +0.000 NA
ATOM     24  C   UNL     1      47.469   4.792  18.207  0.00  0.00    +0.000 A 
ATOM     25  H   UNL     1      46.110   3.028  15.196  0.00  0.00    +0.000 HD
BRANCH  18  27
ATOM     26  N   UNL     1      49.291   7.059  20.160  0.00  0.00    +0.000 NA
ATOM     27  C   UNL     1      48.877   6.517  19.222  0.00  0.00    +0.000 C 
ENDBRANCH  18  27
ENDBRANCH  17  22
ENDBRANCH   1  17
TORSDOF 5
ENDMDL
