MODEL 1
REMARK VINA RESULT:    -8.333      0.000      0.000
REMARK INTER + INTRA:         -12.559
REMARK INTER:                 -11.742
REMARK INTRA:                  -0.817
REMARK UNBOUND:                -0.817
REMARK  Name = 
REMARK  7 active torsions:
REMARK  status: ('A' for Active; 'I' for Inactive)
REMARK    1  A    between atoms: C_2  and  C_3
REMARK    2  A    between atoms: C_6  and  N_7
REMARK    3  A    between atoms: N_7  and  C_8
REMARK    4  A    between atoms: C_8  and  C_9
REMARK    5  A    between atoms: C_13  and  C_14
REMARK    6  A    between atoms: C_18  and  O_19
REMARK    7  A    between atoms: O_19  and  C_20
REMARK                            x       y       z     vdW  Elec       q    Type
REMARK                         _______ _______ _______ _____ _____    ______ ____
ROOT
ATOM      1  C   UNL     1      45.265   5.273  11.922  0.00  0.00    +0.000 A 
ATOM      2  C   UNL     1      46.107   6.294  11.456  0.00  0.00    +0.000 A 
ATOM      3  C   UNL     1      47.236   6.677  12.173  0.00  0.00    +0.000 A 
ATOM      4  C   UNL     1      47.571   6.013  13.354  0.00  0.00    +0.000 A 
ATOM      5  C   UNL     1      46.807   4.930  13.819  0.00  0.00    +0.000 A 
ATOM      6  C   UNL     1      45.664   4.579  13.077  0.00  0.00    +0.000 A 
ENDROOT
BRANCH   5   7
ATOM      7  C   UNL     1      47.154   4.201  15.056  0.00  0.00    +0.000 A 
ATOM      8  C   UNL     1      46.460   4.374  16.255  0.00  0.00    +0.000 A 
ATOM      9  N   UNL     1      46.724   3.711  17.410  0.00  0.00    +0.000 NA
ATOM     10  C   UNL     1      47.735   2.816  17.382  0.00  0.00    +0.000 A 
ATOM     11  C   UNL     1      48.517   2.577  16.262  0.00  0.00    +0.000 A 
ATOM     12  C   UNL     1      48.204   3.271  15.095  0.00  0.00    +0.000 A 
BRANCH  11  13
ATOM     13  O   UNL     1      49.563   1.709  16.163  0.00  0.00    +0.000 OA
BRANCH  13  14
ATOM     14  C   UNL     1      50.546   1.831  17.177  0.00  0.00    +0.000 C 
ATOM     15  F   UNL     1      51.562   0.981  16.900  0.00  0.00    +0.000 F 
ATOM     16  F   UNL     1      51.050   3.088  17.098  0.00  0.00    +0.000 F 
ENDBRANCH  13  14
ENDBRANCH  11  13
ENDBRANCH   5   7
BRANCH   1  17
ATOM     17  C   UNL     1      43.906   5.028  11.278  0.00  0.00    +0.000 C 
ATOM     18  C   UNL     1      42.739   4.610  12.154  0.00  0.00    +0.000 C 
ATOM     19  C   UNL     1      42.837   6.033  11.717  0.00  0.00    +0.000 C 
BRANCH  17  20
ATOM     20  N   UNL     1      43.938   4.741   9.850  0.00  0.00    +0.000 N 
ATOM     21  H   UNL     1      43.421   5.335   9.210  0.00  0.00    +0.000 HD
BRANCH  20  25
ATOM     22  C   UNL     1      46.654   2.721   7.535  0.00  0.00    +0.000 A 
ATOM     23  C   UNL     1      46.492   4.093   7.483  0.00  0.00    +0.000 A 
ATOM     24  N   UNL     1      45.609   4.752   8.274  0.00  0.00    +0.000 NA
ATOM     25  C   UNL     1      44.864   4.007   9.126  0.00  0.00    +0.000 A 
ATOM     26  C   UNL     1      45.039   2.627   9.167  0.00  0.00    +0.000 A 
ATOM     27  N   UNL     1      45.933   1.951   8.384  0.00  0.00    +0.000 NA
BRANCH  22  29
ATOM     28  N   UNL     1      48.364   1.500   6.012  0.00  0.00    +0.000 NA
ATOM     29  C   UNL     1      47.598   2.072   6.669  0.00  0.00    +0.000 C 
ENDBRANCH  22  29
ENDBRANCH  20  25
ENDBRANCH  17  20
ENDBRANCH   1  17
TORSDOF 7
ENDMDL
MODEL 2
REMARK VINA RESULT:    -8.296      1.895      2.306
REMARK INTER + INTRA:         -12.507
REMARK INTER:                 -11.543
REMARK INTRA:                  -0.964
REMARK UNBOUND:                -0.817
REMARK  Name = 
REMARK  7 active torsions:
REMARK  status: ('A' for Active; 'I' for Inactive)
REMARK    1  A    between atoms: C_2  and  C_3
REMARK    2  A    between atoms: C_6  and  N_7
REMARK    3  A    between atoms: N_7  and  C_8
REMARK    4  A    between atoms: C_8  and  C_9
REMARK    5  A    between atoms: C_13  and  C_14
REMARK    6  A    between atoms: C_18  and  O_19
REMARK    7  A    between atoms: O_19  and  C_20
REMARK                            x       y       z     vdW  Elec       q    Type
REMARK                         _______ _______ _______ _____ _____    ______ ____
ROOT
ATOM      1  C   UNL     1      45.029   6.040  11.851  0.00  0.00    +0.000 A 
ATOM      2  C   UNL     1      44.878   7.355  11.384  0.00  0.00    +0.000 A 
ATOM      3  C   UNL     1      45.642   8.395  11.905  0.00  0.00    +0.000 A 
ATOM      4  C   UNL     1      46.609   8.131  12.875  0.00  0.00    +0.000 A 
ATOM      5  C   UNL     1      46.857   6.820  13.316  0.00  0.00    +0.000 A 
ATOM      6  C   UNL     1      46.055   5.796  12.779  0.00  0.00    +0.000 A 
ENDROOT
BRANCH   5   7
ATOM      7  C   UNL     1      47.888   6.516  14.330  0.00  0.00    +0.000 A 
ATOM      8  C   UNL     1      49.117   7.174  14.379  0.00  0.00    +0.000 A 
ATOM      9  N   UNL     1      50.086   6.948  15.303  0.00  0.00    +0.000 NA
ATOM     10  C   UNL     1      49.825   6.015  16.243  0.00  0.00    +0.000 A 
ATOM     11  C   UNL     1      48.654   5.272  16.283  0.00  0.00    +0.000 A 
ATOM     12  C   UNL     1      47.683   5.545  15.321  0.00  0.00    +0.000 A 
BRANCH  11  13
ATOM     13  O   UNL     1      48.329   4.302  17.183  0.00  0.00    +0.000 OA
BRANCH  13  14
ATOM     14  C   UNL     1      47.732   3.142  16.630  0.00  0.00    +0.000 C 
ATOM     15  F   UNL     1      48.705   2.241  16.356  0.00  0.00    +0.000 F 
ATOM     16  F   UNL     1      46.947   2.596  17.592  0.00  0.00    +0.000 F 
ENDBRANCH  13  14
ENDBRANCH  11  13
ENDBRANCH   5   7
BRANCH   1  17
ATOM     17  C   UNL     1      44.027   4.957  11.470  0.00  0.00    +0.000 C 
ATOM     18  C   UNL     1      43.555   3.982  12.533  0.00  0.00    +0.000 C 
ATOM     19  C   UNL     1      42.668   5.120  12.155  0.00  0.00    +0.000 C 
BRANCH  17  20
ATOM     20  N   UNL     1      43.971   4.635  10.050  0.00  0.00    +0.000 N 
ATOM     21  H   UNL     1      43.397   5.200   9.433  0.00  0.00    +0.000 HD
BRANCH  20  25
ATOM     22  C   UNL     1      46.595   2.638   7.613  0.00  0.00    +0.000 A 
ATOM     23  C   UNL     1      46.466   4.015   7.614  0.00  0.00    +0.000 A 
ATOM     24  N   UNL     1      45.613   4.664   8.444  0.00  0.00    +0.000 NA
ATOM     25  C   UNL     1      44.866   3.907   9.283  0.00  0.00    +0.000 A 
ATOM     26  C   UNL     1      45.008   2.522   9.270  0.00  0.00    +0.000 A 
ATOM     27  N   UNL     1      45.871   1.855   8.446  0.00  0.00    +0.000 NA
BRANCH  22  29
ATOM     28  N   UNL     1      48.290   1.520   5.996  0.00  0.00    +0.000 NA
ATOM     29  C   UNL     1      47.507   1.999   6.706  0.00  0.00    +0.000 C 
ENDBRANCH  22  29
ENDBRANCH  20  25
ENDBRANCH  17  20
ENDBRANCH   1  17
TORSDOF 7
ENDMDL
MODEL 3
REMARK VINA RESULT:    -8.212      2.039      2.317
REMARK INTER + INTRA:         -12.390
REMARK INTER:                 -11.542
REMARK INTRA:                  -0.848
REMARK UNBOUND:                -0.817
REMARK  Name = 
REMARK  7 active torsions:
REMARK  status: ('A' for Active; 'I' for Inactive)
REMARK    1  A    between atoms: C_2  and  C_3
REMARK    2  A    between atoms: C_6  and  N_7
REMARK    3  A    between atoms: N_7  and  C_8
REMARK    4  A    between atoms: C_8  and  C_9
REMARK    5  A    between atoms: C_13  and  C_14
REMARK    6  A    between atoms: C_18  and  O_19
REMARK    7  A    between atoms: O_19  and  C_20
REMARK                            x       y       z     vdW  Elec       q    Type
REMARK                         _______ _______ _______ _____ _____    ______ ____
ROOT
ATOM      1  C   UNL     1      45.180   5.542  11.793  0.00  0.00    +0.000 A 
ATOM      2  C   UNL     1      45.800   6.714  11.331  0.00  0.00    +0.000 A 
ATOM      3  C   UNL     1      46.882   7.269  12.008  0.00  0.00    +0.000 A 
ATOM      4  C   UNL     1      47.395   6.635  13.140  0.00  0.00    +0.000 A 
ATOM      5  C   UNL     1      46.864   5.416  13.594  0.00  0.00    +0.000 A 
ATOM      6  C   UNL     1      45.760   4.892  12.895  0.00  0.00    +0.000 A 
ENDROOT
BRANCH   5   7
ATOM      7  C   UNL     1      47.404   4.719  14.779  0.00  0.00    +0.000 A 
ATOM      8  C   UNL     1      47.540   3.332  14.843  0.00  0.00    +0.000 A 
ATOM      9  N   UNL     1      48.052   2.647  15.898  0.00  0.00    +0.000 NA
ATOM     10  C   UNL     1      48.459   3.377  16.958  0.00  0.00    +0.000 A 
ATOM     11  C   UNL     1      48.348   4.757  17.028  0.00  0.00    +0.000 A 
ATOM     12  C   UNL     1      47.828   5.421  15.918  0.00  0.00    +0.000 A 
BRANCH  11  13
ATOM     13  O   UNL     1      48.716   5.558  18.068  0.00  0.00    +0.000 OA
BRANCH  13  14
ATOM     14  C   UNL     1      47.848   5.529  19.188  0.00  0.00    +0.000 C 
ATOM     15  F   UNL     1      48.000   6.679  19.885  0.00  0.00    +0.000 F 
ATOM     16  F   UNL     1      46.578   5.520  18.712  0.00  0.00    +0.000 F 
ENDBRANCH  13  14
ENDBRANCH  11  13
ENDBRANCH   5   7
BRANCH   1  17
ATOM     17  C   UNL     1      43.851   5.080  11.207  0.00  0.00    +0.000 C 
ATOM     18  C   UNL     1      42.787   4.528  12.138  0.00  0.00    +0.000 C 
ATOM     19  C   UNL     1      42.662   5.934  11.654  0.00  0.00    +0.000 C 
BRANCH  17  20
ATOM     20  N   UNL     1      43.879   4.751   9.788  0.00  0.00    +0.000 N 
ATOM     21  H   UNL     1      43.358   5.324   9.133  0.00  0.00    +0.000 HD
BRANCH  20  25
ATOM     22  C   UNL     1      46.608   2.684   7.531  0.00  0.00    +0.000 A 
ATOM     23  C   UNL     1      46.493   4.061   7.499  0.00  0.00    +0.000 A 
ATOM     24  N   UNL     1      45.604   4.734   8.271  0.00  0.00    +0.000 NA
ATOM     25  C   UNL     1      44.807   4.000   9.083  0.00  0.00    +0.000 A 
ATOM     26  C   UNL     1      44.935   2.614   9.104  0.00  0.00    +0.000 A 
ATOM     27  N   UNL     1      45.834   1.923   8.339  0.00  0.00    +0.000 NA
BRANCH  22  29
ATOM     28  N   UNL     1      48.375   1.518   6.029  0.00  0.00    +0.000 NA
ATOM     29  C   UNL     1      47.561   2.019   6.685  0.00  0.00    +0.000 C 
ENDBRANCH  22  29
ENDBRANCH  20  25
ENDBRANCH  17  20
ENDBRANCH   1  17
TORSDOF 7
ENDMDL
MODEL 4
REMARK VINA RESULT:    -7.435      2.246      2.581
REMARK INTER + INTRA:         -11.294
REMARK INTER:                 -10.478
REMARK INTRA:                  -0.816
REMARK UNBOUND:                -0.817
REMARK  Name = 
REMARK  7 active torsions:
REMARK  status: ('A' for Active; 'I' for Inactive)
REMARK    1  A    between atoms: C_2  and  C_3
REMARK    2  A    between atoms: C_6  and  N_7
REMARK    3  A    between atoms: N_7  and  C_8
REMARK    4  A    between atoms: C_8  and  C_9
REMARK    5  A    between atoms: C_13  and  C_14
REMARK    6  A    between atoms: C_18  and  O_19
REMARK    7  A    between atoms: O_19  and  C_20
REMARK                            x       y       z     vdW  Elec       q    Type
REMARK                         _______ _______ _______ _____ _____    ______ ____
ROOT
ATOM      1  C   UNL     1      45.033   5.998  11.823  0.00  0.00    +0.000 A 
ATOM      2  C   UNL     1      45.043   7.334  11.392  0.00  0.00    +0.000 A 
ATOM      3  C   UNL     1      45.843   8.285  12.017  0.00  0.00    +0.000 A 
ATOM      4  C   UNL     1      46.687   7.907  13.062  0.00  0.00    +0.000 A 
ATOM      5  C   UNL     1      46.777   6.568  13.476  0.00  0.00    +0.000 A 
ATOM      6  C   UNL     1      45.941   5.635  12.831  0.00  0.00    +0.000 A 
ENDROOT
BRANCH   5   7
ATOM      7  C   UNL     1      47.677   6.143  14.568  0.00  0.00    +0.000 A 
ATOM      8  C   UNL     1      47.487   4.963  15.287  0.00  0.00    +0.000 A 
ATOM      9  N   UNL     1      48.298   4.517  16.281  0.00  0.00    +0.000 NA
ATOM     10  C   UNL     1      49.368   5.282  16.583  0.00  0.00    +0.000 A 
ATOM     11  C   UNL     1      49.648   6.490  15.961  0.00  0.00    +0.000 A 
ATOM     12  C   UNL     1      48.795   6.904  14.939  0.00  0.00    +0.000 A 
BRANCH  11  13
ATOM     13  O   UNL     1      50.692   7.326  16.225  0.00  0.00    +0.000 OA
BRANCH  13  14
ATOM     14  C   UNL     1      51.951   6.691  16.368  0.00  0.00    +0.000 C 
ATOM     15  F   UNL     1      52.901   7.482  15.817  0.00  0.00    +0.000 F 
ATOM     16  F   UNL     1      52.217   6.620  17.696  0.00  0.00    +0.000 F 
ENDBRANCH  13  14
ENDBRANCH  11  13
ENDBRANCH   5   7
BRANCH   1  17
ATOM     17  C   UNL     1      43.980   5.022  11.313  0.00  0.00    +0.000 C 
ATOM     18  C   UNL     1      43.351   4.041  12.285  0.00  0.00    +0.000 C 
ATOM     19  C   UNL     1      42.590   5.266  11.904  0.00  0.00    +0.000 C 
BRANCH  17  20
ATOM     20  N   UNL     1      44.009   4.771   9.878  0.00  0.00    +0.000 N 
ATOM     21  H   UNL     1      43.509   5.395   9.253  0.00  0.00    +0.000 HD
BRANCH  20  25
ATOM     22  C   UNL     1      46.682   2.746   7.518  0.00  0.00    +0.000 A 
ATOM     23  C   UNL     1      46.564   4.123   7.511  0.00  0.00    +0.000 A 
ATOM     24  N   UNL     1      45.694   4.782   8.316  0.00  0.00    +0.000 NA
ATOM     25  C   UNL     1      44.919   4.033   9.137  0.00  0.00    +0.000 A 
ATOM     26  C   UNL     1      45.049   2.647   9.132  0.00  0.00    +0.000 A 
ATOM     27  N   UNL     1      45.929   1.971   8.333  0.00  0.00    +0.000 NA
BRANCH  22  29
ATOM     28  N   UNL     1      48.374   1.529   5.972  0.00  0.00    +0.000 NA
ATOM     29  C   UNL     1      47.613   2.096   6.637  0.00  0.00    +0.000 C 
ENDBRANCH  22  29
ENDBRANCH  20  25
ENDBRANCH  17  20
ENDBRANCH   1  17
TORSDOF 7
ENDMDL
MODEL 5
REMARK VINA RESULT:    -7.315      4.582      8.315
REMARK INTER + INTRA:         -11.126
REMARK INTER:                 -10.285
REMARK INTRA:                  -0.841
REMARK UNBOUND:                -0.817
REMARK  Name = 
REMARK  7 active torsions:
REMARK  status: ('A' for Active; 'I' for Inactive)
REMARK    1  A    between atoms: C_2  and  C_3
REMARK    2  A    between atoms: C_6  and  N_7
REMARK    3  A    between atoms: N_7  and  C_8
REMARK    4  A    between atoms: C_8  and  C_9
REMARK    5  A    between atoms: C_13  and  C_14
REMARK    6  A    between atoms: C_18  and  O_19
REMARK    7  A    between atoms: O_19  and  C_20
REMARK                            x       y       z     vdW  Elec       q    Type
REMARK                         _______ _______ _______ _____ _____    ______ ____
ROOT
ATOM      1  C   UNL     1      47.387   7.725  12.488  0.00  0.00    +0.000 A 
ATOM      2  C   UNL     1      46.390   8.646  12.848  0.00  0.00    +0.000 A 
ATOM      3  C   UNL     1      45.081   8.499  12.399  0.00  0.00    +0.000 A 
ATOM      4  C   UNL     1      44.733   7.399  11.614  0.00  0.00    +0.000 A 
ATOM      5  C   UNL     1      45.674   6.406  11.295  0.00  0.00    +0.000 A 
ATOM      6  C   UNL     1      46.992   6.595  11.753  0.00  0.00    +0.000 A 
ENDROOT
BRANCH   5   7
ATOM      7  C   UNL     1      45.323   5.225  10.481  0.00  0.00    +0.000 A 
ATOM      8  C   UNL     1      44.555   4.169  10.973  0.00  0.00    +0.000 A 
ATOM      9  N   UNL     1      44.186   3.074  10.259  0.00  0.00    +0.000 NA
ATOM     10  C   UNL     1      44.596   3.019   8.974  0.00  0.00    +0.000 A 
ATOM     11  C   UNL     1      45.387   3.990   8.379  0.00  0.00    +0.000 A 
ATOM     12  C   UNL     1      45.734   5.101   9.145  0.00  0.00    +0.000 A 
BRANCH  11  13
ATOM     13  O   UNL     1      45.857   3.994   7.099  0.00  0.00    +0.000 OA
BRANCH  13  14
ATOM     14  C   UNL     1      46.566   2.828   6.714  0.00  0.00    +0.000 C 
ATOM     15  F   UNL     1      46.701   2.829   5.367  0.00  0.00    +0.000 F 
ATOM     16  F   UNL     1      47.813   2.925   7.236  0.00  0.00    +0.000 F 
ENDBRANCH  13  14
ENDBRANCH  11  13
ENDBRANCH   5   7
BRANCH   1  17
ATOM     17  C   UNL     1      48.856   8.020  12.764  0.00  0.00    +0.000 C 
ATOM     18  C   UNL     1      49.900   7.574  11.757  0.00  0.00    +0.000 C 
ATOM     19  C   UNL     1      49.475   9.004  11.768  0.00  0.00    +0.000 C 
BRANCH  17  20
ATOM     20  N   UNL     1      49.189   8.261  14.162  0.00  0.00    +0.000 N 
ATOM     21  H   UNL     1      48.839   9.096  14.621  0.00  0.00    +0.000 HD
BRANCH  20  25
ATOM     22  C   UNL     1      50.625   5.600  16.931  0.00  0.00    +0.000 A 
ATOM     23  C   UNL     1      51.398   6.605  16.381  0.00  0.00    +0.000 A 
ATOM     24  N   UNL     1      50.903   7.495  15.485  0.00  0.00    +0.000 NA
ATOM     25  C   UNL     1      49.603   7.360  15.130  0.00  0.00    +0.000 A 
ATOM     26  C   UNL     1      48.837   6.343  15.693  0.00  0.00    +0.000 A 
ATOM     27  N   UNL     1      49.321   5.446  16.605  0.00  0.00    +0.000 NA
BRANCH  22  29
ATOM     28  N   UNL     1      51.723   3.942  18.600  0.00  0.00    +0.000 NA
ATOM     29  C   UNL     1      51.201   4.677  17.869  0.00  0.00    +0.000 C 
ENDBRANCH  22  29
ENDBRANCH  20  25
ENDBRANCH  17  20
ENDBRANCH   1  17
TORSDOF 7
ENDMDL
MODEL 6
REMARK VINA RESULT:    -7.120      4.150      7.735
REMARK INTER + INTRA:         -10.851
REMARK INTER:                 -10.103
REMARK INTRA:                  -0.748
REMARK UNBOUND:                -0.817
REMARK  Name = 
REMARK  7 active torsions:
REMARK  status: ('A' for Active; 'I' for Inactive)
REMARK    1  A    between atoms: C_2  and  C_3
REMARK    2  A    between atoms: C_6  and  N_7
REMARK    3  A    between atoms: N_7  and  C_8
REMARK    4  A    between atoms: C_8  and  C_9
REMARK    5  A    between atoms: C_13  and  C_14
REMARK    6  A    between atoms: C_18  and  O_19
REMARK    7  A    between atoms: O_19  and  C_20
REMARK                            x       y       z     vdW  Elec       q    Type
REMARK                         _______ _______ _______ _____ _____    ______ ____
ROOT
ATOM      1  C   UNL     1      47.977   7.145  13.975  0.00  0.00    +0.000 A 
ATOM      2  C   UNL     1      48.488   7.842  12.868  0.00  0.00    +0.000 A 
ATOM      3  C   UNL     1      48.066   7.546  11.576  0.00  0.00    +0.000 A 
ATOM      4  C   UNL     1      47.088   6.574  11.367  0.00  0.00    +0.000 A 
ATOM      5  C   UNL     1      46.484   5.907  12.446  0.00  0.00    +0.000 A 
ATOM      6  C   UNL     1      46.947   6.220  13.739  0.00  0.00    +0.000 A 
ENDROOT
BRANCH   5   7
ATOM      7  C   UNL     1      45.434   4.887  12.249  0.00  0.00    +0.000 A 
ATOM      8  C   UNL     1      44.538   4.522  13.254  0.00  0.00    +0.000 A 
ATOM      9  N   UNL     1      43.542   3.609  13.116  0.00  0.00    +0.000 NA
ATOM     10  C   UNL     1      43.418   3.021  11.907  0.00  0.00    +0.000 A 
ATOM     11  C   UNL     1      44.264   3.277  10.839  0.00  0.00    +0.000 A 
ATOM     12  C   UNL     1      45.266   4.228  11.022  0.00  0.00    +0.000 A 
BRANCH  11  13
ATOM     13  O   UNL     1      44.216   2.710   9.600  0.00  0.00    +0.000 OA
BRANCH  13  14
ATOM     14  C   UNL     1      45.268   3.081   8.726  0.00  0.00    +0.000 C 
ATOM     15  F   UNL     1      46.055   2.001   8.511  0.00  0.00    +0.000 F 
ATOM     16  F   UNL     1      44.706   3.405   7.535  0.00  0.00    +0.000 F 
ENDBRANCH  13  14
ENDBRANCH  11  13
ENDBRANCH   5   7
BRANCH   1  17
ATOM     17  C   UNL     1      48.618   7.288  15.350  0.00  0.00    +0.000 C 
ATOM     18  C   UNL     1      49.918   8.060  15.481  0.00  0.00    +0.000 C 
ATOM     19  C   UNL     1      48.641   8.731  15.861  0.00  0.00    +0.000 C 
BRANCH  17  20
ATOM     20  N   UNL     1      48.213   6.289  16.330  0.00  0.00    +0.000 N 
ATOM     21  H   UNL     1      47.252   6.271  16.656  0.00  0.00    +0.000 HD
BRANCH  20  25
ATOM     22  C   UNL     1      50.194   2.808  17.207  0.00  0.00    +0.000 A 
ATOM     23  C   UNL     1      50.751   4.060  17.395  0.00  0.00    +0.000 A 
ATOM     24  N   UNL     1      50.074   5.203  17.126  0.00  0.00    +0.000 NA
ATOM     25  C   UNL     1      48.814   5.081  16.646  0.00  0.00    +0.000 A 
ATOM     26  C   UNL     1      48.267   3.814  16.462  0.00  0.00    +0.000 A 
ATOM     27  N   UNL     1      48.934   2.652  16.739  0.00  0.00    +0.000 NA
BRANCH  22  29
ATOM     28  N   UNL     1      51.547   0.645  17.686  0.00  0.00    +0.000 NA
ATOM     29  C   UNL     1      50.958   1.627  17.499  0.00  0.00    +0.000 C 
ENDBRANCH  22  29
ENDBRANCH  20  25
ENDBRANCH  17  20
ENDBRANCH   1  17
TORSDOF 7
ENDMDL
MODEL 7
REMARK VINA RESULT:    -7.071      3.634      4.099
REMARK INTER + INTRA:         -10.782
REMARK INTER:                 -10.097
REMARK INTRA:                  -0.685
REMARK UNBOUND:                -0.817
REMARK  Name = 
REMARK  7 active torsions:
REMARK  status: ('A' for Active; 'I' for Inactive)
REMARK    1  A    between atoms: C_2  and  C_3
REMARK    2  A    between atoms: C_6  and  N_7
REMARK    3  A    between atoms: N_7  and  C_8
REMARK    4  A    between atoms: C_8  and  C_9
REMARK    5  A    between atoms: C_13  and  C_14
REMARK    6  A    between atoms: C_18  and  O_19
REMARK    7  A    between atoms: O_19  and  C_20
REMARK                            x       y       z     vdW  Elec       q    Type
REMARK                         _______ _______ _______ _____ _____    ______ ____
ROOT
ATOM      1  C   UNL     1      44.699   6.663  11.558  0.00  0.00    +0.000 A 
ATOM      2  C   UNL     1      44.107   7.859  11.124  0.00  0.00    +0.000 A 
ATOM      3  C   UNL     1      44.646   9.094  11.469  0.00  0.00    +0.000 A 
ATOM      4  C   UNL     1      45.818   9.157  12.223  0.00  0.00    +0.000 A 
ATOM      5  C   UNL     1      46.496   7.990  12.612  0.00  0.00    +0.000 A 
ATOM      6  C   UNL     1      45.914   6.757  12.258  0.00  0.00    +0.000 A 
ENDROOT
BRANCH   5   7
ATOM      7  C   UNL     1      47.748   8.033  13.394  0.00  0.00    +0.000 A 
ATOM      8  C   UNL     1      48.926   7.419  12.969  0.00  0.00    +0.000 A 
ATOM      9  N   UNL     1      50.107   7.450  13.639  0.00  0.00    +0.000 NA
ATOM     10  C   UNL     1      50.130   8.135  14.802  0.00  0.00    +0.000 A 
ATOM     11  C   UNL     1      49.018   8.763  15.344  0.00  0.00    +0.000 A 
ATOM     12  C   UNL     1      47.829   8.714  14.618  0.00  0.00    +0.000 A 
BRANCH  11  13
ATOM     13  O   UNL     1      48.957   9.453  16.519  0.00  0.00    +0.000 OA
BRANCH  13  14
ATOM     14  C   UNL     1      48.563   8.690  17.646  0.00  0.00    +0.000 C 
ATOM     15  F   UNL     1      47.307   9.055  17.998  0.00  0.00    +0.000 F 
ATOM     16  F   UNL     1      48.502   7.393  17.253  0.00  0.00    +0.000 F 
ENDBRANCH  13  14
ENDBRANCH  11  13
ENDBRANCH   5   7
BRANCH   1  17
ATOM     17  C   UNL     1      43.976   5.331  11.398  0.00  0.00    +0.000 C 
ATOM     18  C   UNL     1      43.872   4.400  12.592  0.00  0.00    +0.000 C 
ATOM     19  C   UNL     1      42.692   5.235  12.226  0.00  0.00    +0.000 C 
BRANCH  17  20
ATOM     20  N   UNL     1      43.869   4.843  10.030  0.00  0.00    +0.000 N 
ATOM     21  H   UNL     1      43.238   5.304   9.383  0.00  0.00    +0.000 HD
BRANCH  20  25
ATOM     22  C   UNL     1      46.496   2.715   7.709  0.00  0.00    +0.000 A 
ATOM     23  C   UNL     1      46.385   4.092   7.652  0.00  0.00    +0.000 A 
ATOM     24  N   UNL     1      45.531   4.785   8.444  0.00  0.00    +0.000 NA
ATOM     25  C   UNL     1      44.764   4.072   9.304  0.00  0.00    +0.000 A 
ATOM     26  C   UNL     1      44.888   2.687   9.351  0.00  0.00    +0.000 A 
ATOM     27  N   UNL     1      45.753   1.976   8.565  0.00  0.00    +0.000 NA
BRANCH  22  29
ATOM     28  N   UNL     1      48.184   1.457   6.190  0.00  0.00    +0.000 NA
ATOM     29  C   UNL     1      47.411   2.027   6.841  0.00  0.00    +0.000 C 
ENDBRANCH  22  29
ENDBRANCH  20  25
ENDBRANCH  17  20
ENDBRANCH   1  17
TORSDOF 7
ENDMDL
MODEL 8
REMARK VINA RESULT:    -6.963      4.234      4.894
REMARK INTER + INTRA:         -10.629
REMARK INTER:                  -9.816
REMARK INTRA:                  -0.813
REMARK UNBOUND:                -0.817
REMARK  Name = 
REMARK  7 active torsions:
REMARK  status: ('A' for Active; 'I' for Inactive)
REMARK    1  A    between atoms: C_2  and  C_3
REMARK    2  A    between atoms: C_6  and  N_7
REMARK    3  A    between atoms: N_7  and  C_8
REMARK    4  A    between atoms: C_8  and  C_9
REMARK    5  A    between atoms: C_13  and  C_14
REMARK    6  A    between atoms: C_18  and  O_19
REMARK    7  A    between atoms: O_19  and  C_20
REMARK                            x       y       z     vdW  Elec       q    Type
REMARK                         _______ _______ _______ _____ _____    ______ ____
ROOT
ATOM      1  C   UNL     1      45.156   6.563  11.536  0.00  0.00    +0.000 A 
ATOM      2  C   UNL     1      44.374   7.709  11.326  0.00  0.00    +0.000 A 
ATOM      3  C   UNL     1      44.858   8.976  11.637  0.00  0.00    +0.000 A 
ATOM      4  C   UNL     1      46.155   9.126  12.126  0.00  0.00    +0.000 A 
ATOM      5  C   UNL     1      47.008   8.019  12.277  0.00  0.00    +0.000 A 
ATOM      6  C   UNL     1      46.481   6.751  11.966  0.00  0.00    +0.000 A 
ENDROOT
BRANCH   5   7
ATOM      7  C   UNL     1      48.391   8.157  12.775  0.00  0.00    +0.000 A 
ATOM      8  C   UNL     1      48.693   8.340  14.125  0.00  0.00    +0.000 A 
ATOM      9  N   UNL     1      49.947   8.449  14.635  0.00  0.00    +0.000 NA
ATOM     10  C   UNL     1      50.971   8.366  13.759  0.00  0.00    +0.000 A 
ATOM     11  C   UNL     1      50.799   8.215  12.391  0.00  0.00    +0.000 A 
ATOM     12  C   UNL     1      49.496   8.098  11.912  0.00  0.00    +0.000 A 
BRANCH  11  13
ATOM     13  O   UNL     1      51.778   8.146  11.445  0.00  0.00    +0.000 OA
BRANCH  13  14
ATOM     14  C   UNL     1      51.729   9.156  10.452  0.00  0.00    +0.000 C 
ATOM     15  F   UNL     1      52.531  10.178  10.832  0.00  0.00    +0.000 F 
ATOM     16  F   UNL     1      52.264   8.634   9.320  0.00  0.00    +0.000 F 
ENDBRANCH  13  14
ENDBRANCH  11  13
ENDBRANCH   5   7
BRANCH   1  17
ATOM     17  C   UNL     1      44.543   5.171  11.438  0.00  0.00    +0.000 C 
ATOM     18  C   UNL     1      44.686   4.218  12.610  0.00  0.00    +0.000 C 
ATOM     19  C   UNL     1      43.395   4.943  12.424  0.00  0.00    +0.000 C 
BRANCH  17  20
ATOM     20  N   UNL     1      44.301   4.694  10.083  0.00  0.00    +0.000 N 
ATOM     21  H   UNL     1      43.576   5.130   9.523  0.00  0.00    +0.000 HD
BRANCH  20  25
ATOM     22  C   UNL     1      46.754   2.739   7.442  0.00  0.00    +0.000 A 
ATOM     23  C   UNL     1      46.648   4.116   7.494  0.00  0.00    +0.000 A 
ATOM     24  N   UNL     1      45.853   4.751   8.390  0.00  0.00    +0.000 NA
ATOM     25  C   UNL     1      45.141   3.978   9.245  0.00  0.00    +0.000 A 
ATOM     26  C   UNL     1      45.258   2.592   9.181  0.00  0.00    +0.000 A 
ATOM     27  N   UNL     1      46.064   1.940   8.289  0.00  0.00    +0.000 NA
BRANCH  22  29
ATOM     28  N   UNL     1      48.240   1.603   5.643  0.00  0.00    +0.000 NA
ATOM     29  C   UNL     1      47.605   2.116   6.467  0.00  0.00    +0.000 C 
ENDBRANCH  22  29
ENDBRANCH  20  25
ENDBRANCH  17  20
ENDBRANCH   1  17
TORSDOF 7
ENDMDL
MODEL 9
REMARK VINA RESULT:    -6.247      4.236      7.995
REMARK INTER + INTRA:          -9.620
REMARK INTER:                  -8.622
REMARK INTRA:                  -0.999
REMARK UNBOUND:                -0.817
REMARK  Name = 
REMARK  7 active torsions:
REMARK  status: ('A' for Active; 'I' for Inactive)
REMARK    1  A    between atoms: C_2  and  C_3
REMARK    2  A    between atoms: C_6  and  N_7
REMARK    3  A    between atoms: N_7  and  C_8
REMARK    4  A    between atoms: C_8  and  C_9
REMARK    5  A    between atoms: C_13  and  C_14
REMARK    6  A    between atoms: C_18  and  O_19
REMARK    7  A    between atoms: O_19  and  C_20
REMARK                            x       y       z     vdW  Elec       q    Type
REMARK                         _______ _______ _______ _____ _____    ______ ____
ROOT
ATOM      1  C   UNL     1      48.795   8.020  14.965  0.00  0.00    +0.000 A 
ATOM      2  C   UNL     1      49.938   8.179  14.167  0.00  0.00    +0.000 A 
ATOM      3  C   UNL     1      49.938   7.800  12.828  0.00  0.00    +0.000 A 
ATOM      4  C   UNL     1      48.775   7.293  12.248  0.00  0.00    +0.000 A 
ATOM      5  C   UNL     1      47.581   7.192  12.981  0.00  0.00    +0.000 A 
ATOM      6  C   UNL     1      47.622   7.570  14.337  0.00  0.00    +0.000 A 
ENDROOT
BRANCH   5   7
ATOM      7  C   UNL     1      46.334   6.676  12.381  0.00  0.00    +0.000 A 
ATOM      8  C   UNL     1      45.373   7.506  11.803  0.00  0.00    +0.000 A 
ATOM      9  N   UNL     1      44.224   7.079  11.220  0.00  0.00    +0.000 NA
ATOM     10  C   UNL     1      44.009   5.746  11.199  0.00  0.00    +0.000 A 
ATOM     11  C   UNL     1      44.873   4.821  11.766  0.00  0.00    +0.000 A 
ATOM     12  C   UNL     1      46.046   5.302  12.346  0.00  0.00    +0.000 A 
BRANCH  11  13
ATOM     13  O   UNL     1      44.716   3.468  11.805  0.00  0.00    +0.000 OA
BRANCH  13  14
ATOM     14  C   UNL     1      43.775   2.944  10.884  0.00  0.00    +0.000 C 
ATOM     15  F   UNL     1      44.439   2.244   9.935  0.00  0.00    +0.000 F 
ATOM     16  F   UNL     1      43.001   2.058  11.560  0.00  0.00    +0.000 F 
ENDBRANCH  13  14
ENDBRANCH  11  13
ENDBRANCH   5   7
BRANCH   1  17
ATOM     17  C   UNL     1      48.869   8.194  16.477  0.00  0.00    +0.000 C 
ATOM     18  C   UNL     1      49.796   9.249  17.054  0.00  0.00    +0.000 C 
ATOM     19  C   UNL     1      48.337   9.546  16.960  0.00  0.00    +0.000 C 
BRANCH  17  20
ATOM     20  N   UNL     1      48.434   7.043  17.257  0.00  0.00    +0.000 N 
ATOM     21  H   UNL     1      47.488   7.018  17.624  0.00  0.00    +0.000 HD
BRANCH  20  25
ATOM     22  C   UNL     1      50.188   3.337  17.290  0.00  0.00    +0.000 A 
ATOM     23  C   UNL     1      50.864   4.494  17.633  0.00  0.00    +0.000 A 
ATOM     24  N   UNL     1      50.264   5.710  17.643  0.00  0.00    +0.000 NA
ATOM     25  C   UNL     1      48.957   5.760  17.289  0.00  0.00    +0.000 A 
ATOM     26  C   UNL     1      48.291   4.587  16.946  0.00  0.00    +0.000 A 
ATOM     27  N   UNL     1      48.881   3.353  16.941  0.00  0.00    +0.000 NA
BRANCH  22  29
ATOM     28  N   UNL     1      51.432   1.059  17.346  0.00  0.00    +0.000 NA
ATOM     29  C   UNL     1      50.874   2.075  17.286  0.00  0.00    +0.000 C 
ENDBRANCH  22  29
ENDBRANCH  20  25
ENDBRANCH  17  20
ENDBRANCH   1  17
TORSDOF 7
ENDMDL
