MODEL 1
REMARK VINA RESULT:    -8.275      0.000      0.000
REMARK INTER + INTRA:         -13.430
REMARK INTER:                 -12.146
REMARK INTRA:                  -1.284
REMARK UNBOUND:                -1.284
REMARK  Name = 
REMARK  9 active torsions:
REMARK  status: ('A' for Active; 'I' for Inactive)
REMARK    1  A    between atoms: C_1  and  O_2
REMARK    2  A    between atoms: O_2  and  C_3
REMARK    3  A    between atoms: C_10  and  C_11
REMARK    4  A    between atoms: N_13  and  C_14
REMARK    5  A    between atoms: C_14  and  C_15
REMARK    6  A    between atoms: C_18  and  C_19
REMARK    7  A    between atoms: C_19  and  N_20
REMARK    8  A    between atoms: N_20  and  C_21
REMARK    9  A    between atoms: C_21  and  C_22
REMARK                            x       y       z     vdW  Elec       q    Type
REMARK                         _______ _______ _______ _____ _____    ______ ____
ROOT
ATOM      1  C   UNL     1      47.936   6.832  13.167  0.00  0.00    +0.000 C 
ENDROOT
BRANCH   1   2
ATOM      2  C   UNL     1      46.822   5.988  12.599  0.00  0.00    +0.000 A 
ATOM      3  C   UNL     1      46.239   4.963  13.356  0.00  0.00    +0.000 A 
ATOM      4  C   UNL     1      45.249   4.138  12.804  0.00  0.00    +0.000 A 
ATOM      5  C   UNL     1      44.811   4.321  11.484  0.00  0.00    +0.000 A 
ATOM      6  C   UNL     1      45.381   5.361  10.736  0.00  0.00    +0.000 A 
ATOM      7  C   UNL     1      46.379   6.179  11.283  0.00  0.00    +0.000 A 
BRANCH   5   8
ATOM      8  C   UNL     1      43.785   3.393  10.862  0.00  0.00    +0.000 C 
BRANCH   8   9
ATOM      9  N   UNL     1      44.022   3.199   9.432  0.00  0.00    +0.000 NA
ATOM     10  H   UNL     1      44.589   3.973   9.087  0.00  0.00    +0.000 HD
BRANCH   9  11
ATOM     11  C   UNL     1      44.726   1.942   9.163  0.00  0.00    +0.000 C 
BRANCH  11  12
ATOM     12  C   UNL     1      45.832   2.138   8.158  0.00  0.00    +0.000 A 
ATOM     13  C   UNL     1      46.044   3.370   7.529  0.00  0.00    +0.000 A 
ATOM     14  C   UNL     1      47.088   3.515   6.619  0.00  0.00    +0.000 A 
ATOM     15  C   UNL     1      47.885   2.415   6.355  0.00  0.00    +0.000 A 
ATOM     16  N   UNL     1      47.703   1.204   6.922  0.00  0.00    +0.000 NA
ATOM     17  C   UNL     1      46.683   1.094   7.806  0.00  0.00    +0.000 A 
ENDBRANCH  11  12
ENDBRANCH   9  11
ENDBRANCH   8   9
ENDBRANCH   5   8
ENDBRANCH   1   2
BRANCH   1  20
ATOM     18  C   UNL     1      49.012   6.913  15.380  0.00  0.00    +0.000 C 
ATOM     19  O   UNL     1      50.129   6.898  14.861  0.00  0.00    +0.000 OA
ATOM     20  N   UNL     1      47.879   6.878  14.611  0.00  0.00    +0.000 N 
ATOM     21  H   UNL     1      46.968   6.827  15.047  0.00  0.00    +0.000 HD
BRANCH  18  29
ATOM     22  C   UNL     1      48.873   4.512  17.850  0.00  0.00    +0.000 A 
ATOM     23  N   UNL     1      48.799   3.805  18.996  0.00  0.00    +0.000 NA
ATOM     24  C   UNL     1      48.641   4.471  20.142  0.00  0.00    +0.000 A 
ATOM     25  N   UNL     1      48.543   5.788  20.289  0.00  0.00    +0.000 NA
ATOM     26  C   UNL     1      48.630   6.457  19.128  0.00  0.00    +0.000 A 
ATOM     27  S   UNL     1      48.521   8.150  19.133  0.00  0.00    +0.000 S 
ATOM     28  C   UNL     1      48.703   8.214  17.445  0.00  0.00    +0.000 A 
ATOM     29  C   UNL     1      48.854   6.970  16.844  0.00  0.00    +0.000 A 
ATOM     30  C   UNL     1      48.805   5.916  17.856  0.00  0.00    +0.000 A 
BRANCH  22  32
ATOM     31  C   UNL     1      47.870   3.197  16.213  0.00  0.00    +0.000 C 
ATOM     32  O   UNL     1      49.069   3.811  16.679  0.00  0.00    +0.000 OA
ENDBRANCH  22  32
ENDBRANCH  18  29
ENDBRANCH   1  20
TORSDOF 8
ENDMDL
MODEL 2
REMARK VINA RESULT:    -7.565      1.348      2.282
REMARK INTER + INTRA:         -12.386
REMARK INTER:                 -11.368
REMARK INTRA:                  -1.019
REMARK UNBOUND:                -1.284
REMARK  Name = 
REMARK  9 active torsions:
REMARK  status: ('A' for Active; 'I' for Inactive)
REMARK    1  A    between atoms: C_1  and  O_2
REMARK    2  A    between atoms: O_2  and  C_3
REMARK    3  A    between atoms: C_10  and  C_11
REMARK    4  A    between atoms: N_13  and  C_14
REMARK    5  A    between atoms: C_14  and  C_15
REMARK    6  A    between atoms: C_18  and  C_19
REMARK    7  A    between atoms: C_19  and  N_20
REMARK    8  A    between atoms: N_20  and  C_21
REMARK    9  A    between atoms: C_21  and  C_22
REMARK                            x       y       z     vdW  Elec       q    Type
REMARK                         _______ _______ _______ _____ _____    ______ ____
ROOT
ATOM      1  C   UNL     1      47.805   7.060  13.664  0.00  0.00    +0.000 C 
ENDROOT
BRANCH   1   2
ATOM      2  C   UNL     1      46.839   6.225  12.859  0.00  0.00    +0.000 A 
ATOM      3  C   UNL     1      46.229   5.094  13.418  0.00  0.00    +0.000 A 
ATOM      4  C   UNL     1      45.382   4.282  12.649  0.00  0.00    +0.000 A 
ATOM      5  C   UNL     1      45.118   4.586  11.306  0.00  0.00    +0.000 A 
ATOM      6  C   UNL     1      45.712   5.731  10.756  0.00  0.00    +0.000 A 
ATOM      7  C   UNL     1      46.567   6.536  11.520  0.00  0.00    +0.000 A 
BRANCH   5   8
ATOM      8  C   UNL     1      44.252   3.679  10.453  0.00  0.00    +0.000 C 
BRANCH   8   9
ATOM      9  N   UNL     1      44.838   2.347  10.304  0.00  0.00    +0.000 NA
ATOM     10  H   UNL     1      44.412   1.725  10.992  0.00  0.00    +0.000 HD
BRANCH   9  11
ATOM     11  C   UNL     1      44.610   1.798   8.965  0.00  0.00    +0.000 C 
BRANCH  11  12
ATOM     12  C   UNL     1      45.787   2.056   8.060  0.00  0.00    +0.000 A 
ATOM     13  C   UNL     1      45.963   3.285   7.414  0.00  0.00    +0.000 A 
ATOM     14  C   UNL     1      47.074   3.490   6.599  0.00  0.00    +0.000 A 
ATOM     15  C   UNL     1      47.973   2.449   6.444  0.00  0.00    +0.000 A 
ATOM     16  N   UNL     1      47.831   1.242   7.030  0.00  0.00    +0.000 NA
ATOM     17  C   UNL     1      46.745   1.074   7.820  0.00  0.00    +0.000 A 
ENDBRANCH  11  12
ENDBRANCH   9  11
ENDBRANCH   8   9
ENDBRANCH   5   8
ENDBRANCH   1   2
BRANCH   1  20
ATOM     18  C   UNL     1      49.061   6.508  15.708  0.00  0.00    +0.000 C 
ATOM     19  O   UNL     1      50.126   6.788  15.154  0.00  0.00    +0.000 OA
ATOM     20  N   UNL     1      47.872   6.612  15.038  0.00  0.00    +0.000 N 
ATOM     21  H   UNL     1      47.010   6.321  15.479  0.00  0.00    +0.000 HD
BRANCH  18  29
ATOM     22  C   UNL     1      49.225   8.140  18.741  0.00  0.00    +0.000 A 
ATOM     23  N   UNL     1      49.253   8.506  20.038  0.00  0.00    +0.000 NA
ATOM     24  C   UNL     1      49.177   7.553  20.968  0.00  0.00    +0.000 A 
ATOM     25  N   UNL     1      49.074   6.245  20.759  0.00  0.00    +0.000 NA
ATOM     26  C   UNL     1      49.039   5.920  19.457  0.00  0.00    +0.000 A 
ATOM     27  S   UNL     1      48.914   4.287  19.010  0.00  0.00    +0.000 S 
ATOM     28  C   UNL     1      48.934   4.689  17.359  0.00  0.00    +0.000 A 
ATOM     29  C   UNL     1      49.029   6.053  17.109  0.00  0.00    +0.000 A 
ATOM     30  C   UNL     1      49.098   6.789  18.370  0.00  0.00    +0.000 A 
BRANCH  22  32
ATOM     31  C   UNL     1      47.976   9.643  17.479  0.00  0.00    +0.000 C 
ATOM     32  O   UNL     1      49.272   9.139  17.792  0.00  0.00    +0.000 OA
ENDBRANCH  22  32
ENDBRANCH  18  29
ENDBRANCH   1  20
TORSDOF 8
ENDMDL
MODEL 3
REMARK VINA RESULT:    -7.454      1.592      3.017
REMARK INTER + INTRA:         -12.224
REMARK INTER:                 -11.025
REMARK INTRA:                  -1.199
REMARK UNBOUND:                -1.284
REMARK  Name = 
REMARK  9 active torsions:
REMARK  status: ('A' for Active; 'I' for Inactive)
REMARK    1  A    between atoms: C_1  and  O_2
REMARK    2  A    between atoms: O_2  and  C_3
REMARK    3  A    between atoms: C_10  and  C_11
REMARK    4  A    between atoms: N_13  and  C_14
REMARK    5  A    between atoms: C_14  and  C_15
REMARK    6  A    between atoms: C_18  and  C_19
REMARK    7  A    between atoms: C_19  and  N_20
REMARK    8  A    between atoms: N_20  and  C_21
REMARK    9  A    between atoms: C_21  and  C_22
REMARK                            x       y       z     vdW  Elec       q    Type
REMARK                         _______ _______ _______ _____ _____    ______ ____
ROOT
ATOM      1  C   UNL     1      47.420   3.824  15.227  0.00  0.00    +0.000 C 
ENDROOT
BRANCH   1   2
ATOM      2  C   UNL     1      46.799   4.292  13.935  0.00  0.00    +0.000 A 
ATOM      3  C   UNL     1      47.024   5.591  13.458  0.00  0.00    +0.000 A 
ATOM      4  C   UNL     1      46.393   6.046  12.291  0.00  0.00    +0.000 A 
ATOM      5  C   UNL     1      45.529   5.212  11.567  0.00  0.00    +0.000 A 
ATOM      6  C   UNL     1      45.324   3.905  12.033  0.00  0.00    +0.000 A 
ATOM      7  C   UNL     1      45.944   3.453  13.206  0.00  0.00    +0.000 A 
BRANCH   5   8
ATOM      8  C   UNL     1      44.798   5.718  10.339  0.00  0.00    +0.000 C 
BRANCH   8   9
ATOM      9  N   UNL     1      45.409   5.233   9.101  0.00  0.00    +0.000 NA
ATOM     10  H   UNL     1      46.378   4.980   9.294  0.00  0.00    +0.000 HD
BRANCH   9  11
ATOM     11  C   UNL     1      44.710   4.058   8.574  0.00  0.00    +0.000 C 
BRANCH  11  12
ATOM     12  C   UNL     1      45.682   3.028   8.059  0.00  0.00    +0.000 A 
ATOM     13  C   UNL     1      46.678   3.355   7.132  0.00  0.00    +0.000 A 
ATOM     14  C   UNL     1      47.568   2.378   6.693  0.00  0.00    +0.000 A 
ATOM     15  C   UNL     1      47.427   1.093   7.189  0.00  0.00    +0.000 A 
ATOM     16  N   UNL     1      46.469   0.730   8.067  0.00  0.00    +0.000 NA
ATOM     17  C   UNL     1      45.621   1.702   8.478  0.00  0.00    +0.000 A 
ENDBRANCH  11  12
ENDBRANCH   9  11
ENDBRANCH   8   9
ENDBRANCH   5   8
ENDBRANCH   1   2
BRANCH   1  20
ATOM     18  C   UNL     1      48.604   5.029  17.019  0.00  0.00    +0.000 C 
ATOM     19  O   UNL     1      49.527   4.214  16.986  0.00  0.00    +0.000 OA
ATOM     20  N   UNL     1      47.525   4.903  16.184  0.00  0.00    +0.000 N 
ATOM     21  H   UNL     1      46.743   5.540  16.261  0.00  0.00    +0.000 HD
BRANCH  18  29
ATOM     22  C   UNL     1      48.659   8.450  16.596  0.00  0.00    +0.000 A 
ATOM     23  N   UNL     1      48.670   9.792  16.725  0.00  0.00    +0.000 NA
ATOM     24  C   UNL     1      48.687  10.310  17.955  0.00  0.00    +0.000 A 
ATOM     25  N   UNL     1      48.695   9.637  19.101  0.00  0.00    +0.000 NA
ATOM     26  C   UNL     1      48.674   8.306  18.931  0.00  0.00    +0.000 A 
ATOM     27  S   UNL     1      48.686   7.293  20.293  0.00  0.00    +0.000 S 
ATOM     28  C   UNL     1      48.652   5.902  19.318  0.00  0.00    +0.000 A 
ATOM     29  C   UNL     1      48.627   6.167  17.953  0.00  0.00    +0.000 A 
ATOM     30  C   UNL     1      48.646   7.611  17.724  0.00  0.00    +0.000 A 
BRANCH  22  32
ATOM     31  C   UNL     1      49.907   7.776  14.751  0.00  0.00    +0.000 C 
ATOM     32  O   UNL     1      48.609   7.931  15.319  0.00  0.00    +0.000 OA
ENDBRANCH  22  32
ENDBRANCH  18  29
ENDBRANCH   1  20
TORSDOF 8
ENDMDL
MODEL 4
REMARK VINA RESULT:    -7.371      1.766      2.174
REMARK INTER + INTRA:         -12.102
REMARK INTER:                 -10.906
REMARK INTRA:                  -1.197
REMARK UNBOUND:                -1.284
REMARK  Name = 
REMARK  9 active torsions:
REMARK  status: ('A' for Active; 'I' for Inactive)
REMARK    1  A    between atoms: C_1  and  O_2
REMARK    2  A    between atoms: O_2  and  C_3
REMARK    3  A    between atoms: C_10  and  C_11
REMARK    4  A    between atoms: N_13  and  C_14
REMARK    5  A    between atoms: C_14  and  C_15
REMARK    6  A    between atoms: C_18  and  C_19
REMARK    7  A    between atoms: C_19  and  N_20
REMARK    8  A    between atoms: N_20  and  C_21
REMARK    9  A    between atoms: C_21  and  C_22
REMARK                            x       y       z     vdW  Elec       q    Type
REMARK                         _______ _______ _______ _____ _____    ______ ____
ROOT
ATOM      1  C   UNL     1      47.753   7.767  13.337  0.00  0.00    +0.000 C 
ENDROOT
BRANCH   1   2
ATOM      2  C   UNL     1      46.907   6.693  12.699  0.00  0.00    +0.000 A 
ATOM      3  C   UNL     1      46.245   6.925  11.486  0.00  0.00    +0.000 A 
ATOM      4  C   UNL     1      45.406   5.949  10.928  0.00  0.00    +0.000 A 
ATOM      5  C   UNL     1      45.216   4.714  11.564  0.00  0.00    +0.000 A 
ATOM      6  C   UNL     1      45.898   4.476  12.766  0.00  0.00    +0.000 A 
ATOM      7  C   UNL     1      46.727   5.455  13.331  0.00  0.00    +0.000 A 
BRANCH   5   8
ATOM      8  C   UNL     1      44.264   3.679  10.997  0.00  0.00    +0.000 C 
BRANCH   8   9
ATOM      9  N   UNL     1      44.965   2.469  10.568  0.00  0.00    +0.000 NA
ATOM     10  H   UNL     1      44.718   1.708  11.200  0.00  0.00    +0.000 HD
BRANCH   9  11
ATOM     11  C   UNL     1      44.601   2.086   9.201  0.00  0.00    +0.000 C 
BRANCH  11  12
ATOM     12  C   UNL     1      45.775   2.214   8.265  0.00  0.00    +0.000 A 
ATOM     13  C   UNL     1      46.116   3.437   7.676  0.00  0.00    +0.000 A 
ATOM     14  C   UNL     1      47.219   3.518   6.830  0.00  0.00    +0.000 A 
ATOM     15  C   UNL     1      47.945   2.364   6.588  0.00  0.00    +0.000 A 
ATOM     16  N   UNL     1      47.640   1.161   7.117  0.00  0.00    +0.000 NA
ATOM     17  C   UNL     1      46.565   1.115   7.939  0.00  0.00    +0.000 A 
ENDBRANCH  11  12
ENDBRANCH   9  11
ENDBRANCH   8   9
ENDBRANCH   5   8
ENDBRANCH   1   2
BRANCH   1  20
ATOM     18  C   UNL     1      49.161   7.527  15.342  0.00  0.00    +0.000 C 
ATOM     19  O   UNL     1      48.456   8.327  15.959  0.00  0.00    +0.000 OA
ATOM     20  N   UNL     1      48.882   7.201  14.042  0.00  0.00    +0.000 N 
ATOM     21  H   UNL     1      49.501   6.592  13.524  0.00  0.00    +0.000 HD
BRANCH  18  29
ATOM     22  C   UNL     1      49.624   4.544  17.009  0.00  0.00    +0.000 A 
ATOM     23  N   UNL     1      50.086   3.468  17.676  0.00  0.00    +0.000 NA
ATOM     24  C   UNL     1      51.372   3.446  18.031  0.00  0.00    +0.000 A 
ATOM     25  N   UNL     1      52.277   4.391  17.799  0.00  0.00    +0.000 NA
ATOM     26  C   UNL     1      51.782   5.441  17.126  0.00  0.00    +0.000 A 
ATOM     27  S   UNL     1      52.803   6.744  16.749  0.00  0.00    +0.000 S 
ATOM     28  C   UNL     1      51.537   7.573  15.976  0.00  0.00    +0.000 A 
ATOM     29  C   UNL     1      50.326   6.891  15.981  0.00  0.00    +0.000 A 
ATOM     30  C   UNL     1      50.475   5.614  16.677  0.00  0.00    +0.000 A 
BRANCH  22  32
ATOM     31  C   UNL     1      47.417   4.750  17.718  0.00  0.00    +0.000 C 
ATOM     32  O   UNL     1      48.301   4.537  16.620  0.00  0.00    +0.000 OA
ENDBRANCH  22  32
ENDBRANCH  18  29
ENDBRANCH   1  20
TORSDOF 8
ENDMDL
MODEL 5
REMARK VINA RESULT:    -7.231      1.742      2.582
REMARK INTER + INTRA:         -11.896
REMARK INTER:                 -10.741
REMARK INTRA:                  -1.155
REMARK UNBOUND:                -1.284
REMARK  Name = 
REMARK  9 active torsions:
REMARK  status: ('A' for Active; 'I' for Inactive)
REMARK    1  A    between atoms: C_1  and  O_2
REMARK    2  A    between atoms: O_2  and  C_3
REMARK    3  A    between atoms: C_10  and  C_11
REMARK    4  A    between atoms: N_13  and  C_14
REMARK    5  A    between atoms: C_14  and  C_15
REMARK    6  A    between atoms: C_18  and  C_19
REMARK    7  A    between atoms: C_19  and  N_20
REMARK    8  A    between atoms: N_20  and  C_21
REMARK    9  A    between atoms: C_21  and  C_22
REMARK                            x       y       z     vdW  Elec       q    Type
REMARK                         _______ _______ _______ _____ _____    ______ ____
ROOT
ATOM      1  C   UNL     1      47.842   4.676  15.436  0.00  0.00    +0.000 C 
ENDROOT
BRANCH   1   2
ATOM      2  C   UNL     1      47.158   4.960  14.121  0.00  0.00    +0.000 A 
ATOM      3  C   UNL     1      47.528   6.065  13.343  0.00  0.00    +0.000 A 
ATOM      4  C   UNL     1      46.847   6.365  12.154  0.00  0.00    +0.000 A 
ATOM      5  C   UNL     1      45.786   5.563  11.710  0.00  0.00    +0.000 A 
ATOM      6  C   UNL     1      45.432   4.446  12.479  0.00  0.00    +0.000 A 
ATOM      7  C   UNL     1      46.104   4.152  13.674  0.00  0.00    +0.000 A 
BRANCH   5   8
ATOM      8  C   UNL     1      45.007   5.918  10.458  0.00  0.00    +0.000 C 
BRANCH   8   9
ATOM      9  N   UNL     1      45.628   5.364   9.254  0.00  0.00    +0.000 NA
ATOM     10  H   UNL     1      46.548   4.998   9.501  0.00  0.00    +0.000 HD
BRANCH   9  11
ATOM     11  C   UNL     1      44.828   4.280   8.679  0.00  0.00    +0.000 C 
BRANCH  11  12
ATOM     12  C   UNL     1      45.705   3.211   8.078  0.00  0.00    +0.000 A 
ATOM     13  C   UNL     1      46.558   3.478   7.002  0.00  0.00    +0.000 A 
ATOM     14  C   UNL     1      47.366   2.467   6.487  0.00  0.00    +0.000 A 
ATOM     15  C   UNL     1      47.286   1.210   7.060  0.00  0.00    +0.000 A 
ATOM     16  N   UNL     1      46.463   0.903   8.084  0.00  0.00    +0.000 NA
ATOM     17  C   UNL     1      45.693   1.907   8.566  0.00  0.00    +0.000 A 
ENDBRANCH  11  12
ENDBRANCH   9  11
ENDBRANCH   8   9
ENDBRANCH   5   8
ENDBRANCH   1   2
BRANCH   1  20
ATOM     18  C   UNL     1      49.012   6.562  16.501  0.00  0.00    +0.000 C 
ATOM     19  O   UNL     1      50.076   6.223  15.981  0.00  0.00    +0.000 OA
ATOM     20  N   UNL     1      47.864   5.847  16.284  0.00  0.00    +0.000 N 
ATOM     21  H   UNL     1      47.009   6.095  16.764  0.00  0.00    +0.000 HD
BRANCH  18  29
ATOM     22  C   UNL     1      47.759   7.108  19.666  0.00  0.00    +0.000 A 
ATOM     23  N   UNL     1      47.371   7.594  20.862  0.00  0.00    +0.000 NA
ATOM     24  C   UNL     1      47.588   8.886  21.121  0.00  0.00    +0.000 A 
ATOM     25  N   UNL     1      48.156   9.774  20.313  0.00  0.00    +0.000 NA
ATOM     26  C   UNL     1      48.536   9.250  19.137  0.00  0.00    +0.000 A 
ATOM     27  S   UNL     1      49.277  10.249  17.982  0.00  0.00    +0.000 S 
ATOM     28  C   UNL     1      49.430   8.955  16.892  0.00  0.00    +0.000 A 
ATOM     29  C   UNL     1      48.934   7.748  17.372  0.00  0.00    +0.000 A 
ATOM     30  C   UNL     1      48.393   7.930  18.718  0.00  0.00    +0.000 A 
BRANCH  22  32
ATOM     31  C   UNL     1      48.635   4.966  19.912  0.00  0.00    +0.000 C 
ATOM     32  O   UNL     1      47.558   5.764  19.427  0.00  0.00    +0.000 OA
ENDBRANCH  22  32
ENDBRANCH  18  29
ENDBRANCH   1  20
TORSDOF 8
ENDMDL
MODEL 6
REMARK VINA RESULT:    -6.870      4.694      9.332
REMARK INTER + INTRA:         -11.366
REMARK INTER:                 -10.394
REMARK INTRA:                  -0.972
REMARK UNBOUND:                -1.284
REMARK  Name = 
REMARK  9 active torsions:
REMARK  status: ('A' for Active; 'I' for Inactive)
REMARK    1  A    between atoms: C_1  and  O_2
REMARK    2  A    between atoms: O_2  and  C_3
REMARK    3  A    between atoms: C_10  and  C_11
REMARK    4  A    between atoms: N_13  and  C_14
REMARK    5  A    between atoms: C_14  and  C_15
REMARK    6  A    between atoms: C_18  and  C_19
REMARK    7  A    between atoms: C_19  and  N_20
REMARK    8  A    between atoms: N_20  and  C_21
REMARK    9  A    between atoms: C_21  and  C_22
REMARK                            x       y       z     vdW  Elec       q    Type
REMARK                         _______ _______ _______ _____ _____    ______ ____
ROOT
ATOM      1  C   UNL     1      47.250   3.297  16.849  0.00  0.00    +0.000 C 
ENDROOT
BRANCH   1   2
ATOM      2  C   UNL     1      48.734   3.301  17.122  0.00  0.00    +0.000 A 
ATOM      3  C   UNL     1      49.496   2.135  16.968  0.00  0.00    +0.000 A 
ATOM      4  C   UNL     1      50.862   2.124  17.285  0.00  0.00    +0.000 A 
ATOM      5  C   UNL     1      51.502   3.280  17.755  0.00  0.00    +0.000 A 
ATOM      6  C   UNL     1      50.742   4.450  17.887  0.00  0.00    +0.000 A 
ATOM      7  C   UNL     1      49.374   4.460  17.583  0.00  0.00    +0.000 A 
BRANCH   5   8
ATOM      8  C   UNL     1      52.964   3.258  18.157  0.00  0.00    +0.000 C 
BRANCH   8   9
ATOM      9  N   UNL     1      53.285   2.096  18.986  0.00  0.00    +0.000 NA
ATOM     10  H   UNL     1      52.694   1.316  18.696  0.00  0.00    +0.000 HD
BRANCH   9  11
ATOM     11  C   UNL     1      54.689   1.701  18.849  0.00  0.00    +0.000 C 
BRANCH  11  12
ATOM     12  C   UNL     1      54.817   0.366  18.159  0.00  0.00    +0.000 A 
ATOM     13  C   UNL     1      54.712   0.243  16.769  0.00  0.00    +0.000 A 
ATOM     14  C   UNL     1      54.854  -1.005  16.169  0.00  0.00    +0.000 A 
ATOM     15  C   UNL     1      55.086  -2.101  16.982  0.00  0.00    +0.000 A 
ATOM     16  N   UNL     1      55.173  -2.031  18.327  0.00  0.00    +0.000 NA
ATOM     17  C   UNL     1      55.036  -0.804  18.882  0.00  0.00    +0.000 A 
ENDBRANCH  11  12
ENDBRANCH   9  11
ENDBRANCH   8   9
ENDBRANCH   5   8
ENDBRANCH   1   2
BRANCH   1  20
ATOM     18  C   UNL     1      46.928   4.214  14.587  0.00  0.00    +0.000 C 
ATOM     19  O   UNL     1      47.306   3.156  14.082  0.00  0.00    +0.000 OA
ATOM     20  N   UNL     1      46.876   4.364  15.947  0.00  0.00    +0.000 N 
ATOM     21  H   UNL     1      46.625   5.255  16.354  0.00  0.00    +0.000 HD
BRANCH  18  29
ATOM     22  C   UNL     1      44.189   4.827  12.585  0.00  0.00    +0.000 A 
ATOM     23  N   UNL     1      43.247   5.329  11.761  0.00  0.00    +0.000 NA
ATOM     24  C   UNL     1      43.436   6.546  11.249  0.00  0.00    +0.000 A 
ATOM     25  N   UNL     1      44.477   7.345  11.461  0.00  0.00    +0.000 NA
ATOM     26  C   UNL     1      45.388   6.815  12.292  0.00  0.00    +0.000 A 
ATOM     27  S   UNL     1      46.785   7.701  12.670  0.00  0.00    +0.000 S 
ATOM     28  C   UNL     1      47.361   6.456  13.672  0.00  0.00    +0.000 A 
ATOM     29  C   UNL     1      46.518   5.354  13.749  0.00  0.00    +0.000 A 
ATOM     30  C   UNL     1      45.337   5.570  12.915  0.00  0.00    +0.000 A 
BRANCH  22  32
ATOM     31  C   UNL     1      43.453   2.658  12.172  0.00  0.00    +0.000 C 
ATOM     32  O   UNL     1      43.963   3.581  13.131  0.00  0.00    +0.000 OA
ENDBRANCH  22  32
ENDBRANCH  18  29
ENDBRANCH   1  20
TORSDOF 8
ENDMDL
MODEL 7
REMARK VINA RESULT:    -6.130      3.779      9.642
REMARK INTER + INTRA:         -10.281
REMARK INTER:                  -8.761
REMARK INTRA:                  -1.520
REMARK UNBOUND:                -1.284
REMARK  Name = 
REMARK  9 active torsions:
REMARK  status: ('A' for Active; 'I' for Inactive)
REMARK    1  A    between atoms: C_1  and  O_2
REMARK    2  A    between atoms: O_2  and  C_3
REMARK    3  A    between atoms: C_10  and  C_11
REMARK    4  A    between atoms: N_13  and  C_14
REMARK    5  A    between atoms: C_14  and  C_15
REMARK    6  A    between atoms: C_18  and  C_19
REMARK    7  A    between atoms: C_19  and  N_20
REMARK    8  A    between atoms: N_20  and  C_21
REMARK    9  A    between atoms: C_21  and  C_22
REMARK                            x       y       z     vdW  Elec       q    Type
REMARK                         _______ _______ _______ _____ _____    ______ ____
ROOT
ATOM      1  C   UNL     1      47.581   3.528  16.498  0.00  0.00    +0.000 C 
ENDROOT
BRANCH   1   2
ATOM      2  C   UNL     1      48.470   4.139  17.553  0.00  0.00    +0.000 A 
ATOM      3  C   UNL     1      49.502   5.018  17.201  0.00  0.00    +0.000 A 
ATOM      4  C   UNL     1      50.368   5.534  18.176  0.00  0.00    +0.000 A 
ATOM      5  C   UNL     1      50.219   5.190  19.528  0.00  0.00    +0.000 A 
ATOM      6  C   UNL     1      49.171   4.328  19.880  0.00  0.00    +0.000 A 
ATOM      7  C   UNL     1      48.312   3.802  18.904  0.00  0.00    +0.000 A 
BRANCH   5   8
ATOM      8  C   UNL     1      51.189   5.696  20.577  0.00  0.00    +0.000 C 
BRANCH   8   9
ATOM      9  N   UNL     1      51.331   7.151  20.533  0.00  0.00    +0.000 NA
ATOM     10  H   UNL     1      51.407   7.441  19.558  0.00  0.00    +0.000 HD
BRANCH   9  11
ATOM     11  C   UNL     1      50.181   7.828  21.139  0.00  0.00    +0.000 C 
BRANCH  11  12
ATOM     12  C   UNL     1      49.297   8.451  20.088  0.00  0.00    +0.000 A 
ATOM     13  C   UNL     1      47.932   8.155  20.005  0.00  0.00    +0.000 A 
ATOM     14  C   UNL     1      47.146   8.765  19.031  0.00  0.00    +0.000 A 
ATOM     15  C   UNL     1      47.756   9.648  18.157  0.00  0.00    +0.000 A 
ATOM     16  N   UNL     1      49.071   9.946  18.187  0.00  0.00    +0.000 NA
ATOM     17  C   UNL     1      49.809   9.342  19.148  0.00  0.00    +0.000 A 
ENDBRANCH  11  12
ENDBRANCH   9  11
ENDBRANCH   8   9
ENDBRANCH   5   8
ENDBRANCH   1   2
BRANCH   1  20
ATOM     18  C   UNL     1      46.855   4.298  14.275  0.00  0.00    +0.000 C 
ATOM     19  O   UNL     1      47.143   3.207  13.780  0.00  0.00    +0.000 OA
ATOM     20  N   UNL     1      47.046   4.536  15.610  0.00  0.00    +0.000 N 
ATOM     21  H   UNL     1      46.866   5.454  15.996  0.00  0.00    +0.000 HD
BRANCH  18  29
ATOM     22  C   UNL     1      43.864   4.719  12.613  0.00  0.00    +0.000 A 
ATOM     23  N   UNL     1      42.806   5.148  11.897  0.00  0.00    +0.000 NA
ATOM     24  C   UNL     1      42.877   6.348  11.317  0.00  0.00    +0.000 A 
ATOM     25  N   UNL     1      43.901   7.193  11.364  0.00  0.00    +0.000 NA
ATOM     26  C   UNL     1      44.931   6.735  12.093  0.00  0.00    +0.000 A 
ATOM     27  S   UNL     1      46.325   7.688  12.255  0.00  0.00    +0.000 S 
ATOM     28  C   UNL     1      47.075   6.512  13.225  0.00  0.00    +0.000 A 
ATOM     29  C   UNL     1      46.295   5.384  13.451  0.00  0.00    +0.000 A 
ATOM     30  C   UNL     1      45.011   5.518  12.766  0.00  0.00    +0.000 A 
BRANCH  22  32
ATOM     31  C   UNL     1      43.557   2.433  12.299  0.00  0.00    +0.000 C 
ATOM     32  O   UNL     1      43.761   3.491  13.233  0.00  0.00    +0.000 OA
ENDBRANCH  22  32
ENDBRANCH  18  29
ENDBRANCH   1  20
TORSDOF 8
ENDMDL
MODEL 8
REMARK VINA RESULT:    -5.817      3.469      4.430
REMARK INTER + INTRA:          -9.822
REMARK INTER:                  -9.520
REMARK INTRA:                  -0.302
REMARK UNBOUND:                -1.284
REMARK  Name = 
REMARK  9 active torsions:
REMARK  status: ('A' for Active; 'I' for Inactive)
REMARK    1  A    between atoms: C_1  and  O_2
REMARK    2  A    between atoms: O_2  and  C_3
REMARK    3  A    between atoms: C_10  and  C_11
REMARK    4  A    between atoms: N_13  and  C_14
REMARK    5  A    between atoms: C_14  and  C_15
REMARK    6  A    between atoms: C_18  and  C_19
REMARK    7  A    between atoms: C_19  and  N_20
REMARK    8  A    between atoms: N_20  and  C_21
REMARK    9  A    between atoms: C_21  and  C_22
REMARK                            x       y       z     vdW  Elec       q    Type
REMARK                         _______ _______ _______ _____ _____    ______ ____
ROOT
ATOM      1  C   UNL     1      46.206   8.609  12.296  0.00  0.00    +0.000 C 
ENDROOT
BRANCH   1   2
ATOM      2  C   UNL     1      45.481   7.287  12.232  0.00  0.00    +0.000 A 
ATOM      3  C   UNL     1      46.004   6.150  12.862  0.00  0.00    +0.000 A 
ATOM      4  C   UNL     1      45.363   4.908  12.747  0.00  0.00    +0.000 A 
ATOM      5  C   UNL     1      44.180   4.774  12.005  0.00  0.00    +0.000 A 
ATOM      6  C   UNL     1      43.648   5.918  11.395  0.00  0.00    +0.000 A 
ATOM      7  C   UNL     1      44.293   7.157  11.499  0.00  0.00    +0.000 A 
BRANCH   5   8
ATOM      8  C   UNL     1      43.517   3.422  11.827  0.00  0.00    +0.000 C 
BRANCH   8   9
ATOM      9  N   UNL     1      43.720   2.887  10.480  0.00  0.00    +0.000 NA
ATOM     10  H   UNL     1      42.808   2.718  10.056  0.00  0.00    +0.000 HD
BRANCH   9  11
ATOM     11  C   UNL     1      44.470   3.819   9.633  0.00  0.00    +0.000 C 
BRANCH  11  12
ATOM     12  C   UNL     1      45.405   3.084   8.706  0.00  0.00    +0.000 A 
ATOM     13  C   UNL     1      46.112   3.747   7.697  0.00  0.00    +0.000 A 
ATOM     14  C   UNL     1      46.979   3.035   6.872  0.00  0.00    +0.000 A 
ATOM     15  C   UNL     1      47.105   1.672   7.077  0.00  0.00    +0.000 A 
ATOM     16  N   UNL     1      46.428   0.989   8.023  0.00  0.00    +0.000 NA
ATOM     17  C   UNL     1      45.596   1.709   8.812  0.00  0.00    +0.000 A 
ENDBRANCH  11  12
ENDBRANCH   9  11
ENDBRANCH   8   9
ENDBRANCH   5   8
ENDBRANCH   1   2
BRANCH   1  20
ATOM     18  C   UNL     1      48.538   9.252  12.756  0.00  0.00    +0.000 C 
ATOM     19  O   UNL     1      48.163  10.171  13.485  0.00  0.00    +0.000 OA
ATOM     20  N   UNL     1      47.632   8.438  12.129  0.00  0.00    +0.000 N 
ATOM     21  H   UNL     1      47.947   7.726  11.483  0.00  0.00    +0.000 HD
BRANCH  18  29
ATOM     22  C   UNL     1      51.127   8.285  14.817  0.00  0.00    +0.000 A 
ATOM     23  N   UNL     1      52.297   7.913  15.374  0.00  0.00    +0.000 NA
ATOM     24  C   UNL     1      53.377   7.845  14.593  0.00  0.00    +0.000 A 
ATOM     25  N   UNL     1      53.436   8.113  13.293  0.00  0.00    +0.000 NA
ATOM     26  C   UNL     1      52.252   8.471  12.774  0.00  0.00    +0.000 A 
ATOM     27  S   UNL     1      52.147   8.852  11.123  0.00  0.00    +0.000 S 
ATOM     28  C   UNL     1      50.484   9.171  11.253  0.00  0.00    +0.000 A 
ATOM     29  C   UNL     1      49.971   8.994  12.533  0.00  0.00    +0.000 A 
ATOM     30  C   UNL     1      51.036   8.579  13.445  0.00  0.00    +0.000 A 
BRANCH  22  32
ATOM     31  C   UNL     1      50.007   9.458  16.486  0.00  0.00    +0.000 C 
ATOM     32  O   UNL     1      50.013   8.318  15.630  0.00  0.00    +0.000 OA
ENDBRANCH  22  32
ENDBRANCH  18  29
ENDBRANCH   1  20
TORSDOF 8
ENDMDL
