MODEL 1
REMARK VINA RESULT:    -8.801      0.000      0.000
REMARK INTER + INTRA:         -12.105
REMARK INTER:                 -11.373
REMARK INTRA:                  -0.732
REMARK UNBOUND:                -0.732
REMARK  Name = 
REMARK  5 active torsions:
REMARK  status: ('A' for Active; 'I' for Inactive)
REMARK    1  A    between atoms: C_2  and  C_4
REMARK    2  A    between atoms: C_7  and  O_8
REMARK    3  A    between atoms: O_8  and  C_9
REMARK    4  A    between atoms: C_9  and  C_10
REMARK    5  A    between atoms: C_14  and  C_15
REMARK                            x       y       z     vdW  Elec       q    Type
REMARK                         _______ _______ _______ _____ _____    ______ ____
ROOT
ATOM      1  C   UNL     1      43.908   4.539  11.323  0.00  0.00    +0.000 C 
ENDROOT
BRANCH   1   2
ATOM      2  C   UNL     1      45.069   5.337  11.874  0.00  0.00    +0.000 A 
ATOM      3  C   UNL     1      45.353   6.597  11.333  0.00  0.00    +0.000 A 
ATOM      4  C   UNL     1      46.355   7.391  11.883  0.00  0.00    +0.000 A 
ATOM      5  C   UNL     1      47.072   6.940  12.993  0.00  0.00    +0.000 A 
ATOM      6  C   UNL     1      46.799   5.693  13.584  0.00  0.00    +0.000 A 
ATOM      7  C   UNL     1      45.793   4.902  12.996  0.00  0.00    +0.000 A 
BRANCH   6   8
ATOM      8  C   UNL     1      47.508   5.244  14.799  0.00  0.00    +0.000 A 
ATOM      9  C   UNL     1      48.522   6.008  15.391  0.00  0.00    +0.000 A 
ATOM     10  N   UNL     1      49.202   5.673  16.518  0.00  0.00    +0.000 NA
ATOM     11  C   UNL     1      48.848   4.509  17.105  0.00  0.00    +0.000 A 
ATOM     12  C   UNL     1      47.859   3.681  16.611  0.00  0.00    +0.000 A 
ATOM     13  F   UNL     1      47.543   2.542  17.243  0.00  0.00    +0.000 F 
ATOM     14  C   UNL     1      47.188   4.043  15.450  0.00  0.00    +0.000 A 
ENDBRANCH   6   8
ENDBRANCH   1   2
BRANCH   1  15
ATOM     15  O   UNL     1      43.737   4.744   9.915  0.00  0.00    +0.000 OA
BRANCH  15  19
ATOM     16  C   UNL     1      46.409   2.459   7.763  0.00  0.00    +0.000 A 
ATOM     17  C   UNL     1      45.572   1.845   8.699  0.00  0.00    +0.000 A 
ATOM     18  C   UNL     1      44.670   2.626   9.426  0.00  0.00    +0.000 A 
ATOM     19  C   UNL     1      44.639   3.994   9.186  0.00  0.00    +0.000 A 
ATOM     20  N   UNL     1      45.440   4.610   8.291  0.00  0.00    +0.000 NA
ATOM     21  C   UNL     1      46.313   3.833   7.608  0.00  0.00    +0.000 A 
BRANCH  16  23
ATOM     22  N   UNL     1      48.436   2.457   6.425  0.00  0.00    +0.000 N 
ATOM     23  C   UNL     1      47.404   1.733   6.951  0.00  0.00    +0.000 C 
ATOM     24  O   UNL     1      47.334   0.521   6.791  0.00  0.00    +0.000 OA
ATOM     25  H   UNL     1      49.167   1.923   5.972  0.00  0.00    +0.000 HD
ATOM     26  H   UNL     1      48.668   3.385   6.747  0.00  0.00    +0.000 HD
ENDBRANCH  16  23
ENDBRANCH  15  19
ENDBRANCH   1  15
TORSDOF 5
ENDMDL
MODEL 2
REMARK VINA RESULT:    -8.720      2.762      3.819
REMARK INTER + INTRA:         -12.001
REMARK INTER:                 -11.215
REMARK INTRA:                  -0.786
REMARK UNBOUND:                -0.732
REMARK  Name = 
REMARK  5 active torsions:
REMARK  status: ('A' for Active; 'I' for Inactive)
REMARK    1  A    between atoms: C_2  and  C_4
REMARK    2  A    between atoms: C_7  and  O_8
REMARK    3  A    between atoms: O_8  and  C_9
REMARK    4  A    between atoms: C_9  and  C_10
REMARK    5  A    between atoms: C_14  and  C_15
REMARK                            x       y       z     vdW  Elec       q    Type
REMARK                         _______ _______ _______ _____ _____    ______ ____
ROOT
ATOM      1  C   UNL     1      43.554   4.372  11.152  0.00  0.00    +0.000 C 
ENDROOT
BRANCH   1   2
ATOM      2  C   UNL     1      44.763   4.815  11.945  0.00  0.00    +0.000 A 
ATOM      3  C   UNL     1      45.394   3.904  12.801  0.00  0.00    +0.000 A 
ATOM      4  C   UNL     1      46.562   4.257  13.470  0.00  0.00    +0.000 A 
ATOM      5  C   UNL     1      47.123   5.520  13.274  0.00  0.00    +0.000 A 
ATOM      6  C   UNL     1      46.537   6.455  12.401  0.00  0.00    +0.000 A 
ATOM      7  C   UNL     1      45.345   6.078  11.752  0.00  0.00    +0.000 A 
BRANCH   6   8
ATOM      8  C   UNL     1      47.165   7.766  12.140  0.00  0.00    +0.000 A 
ATOM      9  C   UNL     1      46.454   8.967  12.264  0.00  0.00    +0.000 A 
ATOM     10  N   UNL     1      46.968  10.208  12.062  0.00  0.00    +0.000 NA
ATOM     11  C   UNL     1      48.275  10.266  11.727  0.00  0.00    +0.000 A 
ATOM     12  C   UNL     1      49.071   9.146  11.582  0.00  0.00    +0.000 A 
ATOM     13  F   UNL     1      50.365   9.266  11.257  0.00  0.00    +0.000 F 
ATOM     14  C   UNL     1      48.516   7.889  11.783  0.00  0.00    +0.000 A 
ENDBRANCH   6   8
ENDBRANCH   1   2
BRANCH   1  15
ATOM     15  O   UNL     1      43.657   4.733   9.769  0.00  0.00    +0.000 OA
BRANCH  15  19
ATOM     16  C   UNL     1      46.312   2.259   7.812  0.00  0.00    +0.000 A 
ATOM     17  C   UNL     1      45.412   1.716   8.733  0.00  0.00    +0.000 A 
ATOM     18  C   UNL     1      44.516   2.561   9.394  0.00  0.00    +0.000 A 
ATOM     19  C   UNL     1      44.555   3.919   9.105  0.00  0.00    +0.000 A 
ATOM     20  N   UNL     1      45.418   4.467   8.223  0.00  0.00    +0.000 NA
ATOM     21  C   UNL     1      46.282   3.630   7.605  0.00  0.00    +0.000 A 
BRANCH  16  23
ATOM     22  N   UNL     1      48.411   2.115   6.598  0.00  0.00    +0.000 N 
ATOM     23  C   UNL     1      47.306   1.462   7.069  0.00  0.00    +0.000 C 
ATOM     24  O   UNL     1      47.170   0.255   6.916  0.00  0.00    +0.000 OA
ATOM     25  H   UNL     1      49.133   1.530   6.195  0.00  0.00    +0.000 HD
ATOM     26  H   UNL     1      48.682   3.030   6.925  0.00  0.00    +0.000 HD
ENDBRANCH  16  23
ENDBRANCH  15  19
ENDBRANCH   1  15
TORSDOF 5
ENDMDL
MODEL 3
REMARK VINA RESULT:    -8.592      2.877      4.011
REMARK INTER + INTRA:         -11.836
REMARK INTER:                 -10.987
REMARK INTRA:                  -0.849
REMARK UNBOUND:                -0.732
REMARK  Name = 
REMARK  5 active torsions:
REMARK  status: ('A' for Active; 'I' for Inactive)
REMARK    1  A    between atoms: C_2  and  C_4
REMARK    2  A    between atoms: C_7  and  O_8
REMARK    3  A    between atoms: O_8  and  C_9
REMARK    4  A    between atoms: C_9  and  C_10
REMARK    5  A    between atoms: C_14  and  C_15
REMARK                            x       y       z     vdW  Elec       q    Type
REMARK                         _______ _______ _______ _____ _____    ______ ____
ROOT
ATOM      1  C   UNL     1      43.593   4.303  11.221  0.00  0.00    +0.000 C 
ENDROOT
BRANCH   1   2
ATOM      2  C   UNL     1      44.776   4.853  11.987  0.00  0.00    +0.000 A 
ATOM      3  C   UNL     1      45.525   3.995  12.802  0.00  0.00    +0.000 A 
ATOM      4  C   UNL     1      46.671   4.453  13.443  0.00  0.00    +0.000 A 
ATOM      5  C   UNL     1      47.093   5.771  13.261  0.00  0.00    +0.000 A 
ATOM      6  C   UNL     1      46.386   6.657  12.428  0.00  0.00    +0.000 A 
ATOM      7  C   UNL     1      45.219   6.173  11.806  0.00  0.00    +0.000 A 
BRANCH   6   8
ATOM      8  C   UNL     1      46.867   8.031  12.178  0.00  0.00    +0.000 A 
ATOM      9  C   UNL     1      48.208   8.303  11.876  0.00  0.00    +0.000 A 
ATOM     10  N   UNL     1      48.721   9.534  11.613  0.00  0.00    +0.000 NA
ATOM     11  C   UNL     1      47.845  10.562  11.641  0.00  0.00    +0.000 A 
ATOM     12  C   UNL     1      46.502  10.408  11.922  0.00  0.00    +0.000 A 
ATOM     13  F   UNL     1      45.679  11.465  11.924  0.00  0.00    +0.000 F 
ATOM     14  C   UNL     1      46.008   9.140  12.198  0.00  0.00    +0.000 A 
ENDBRANCH   6   8
ENDBRANCH   1   2
BRANCH   1  15
ATOM     15  O   UNL     1      43.631   4.675   9.838  0.00  0.00    +0.000 OA
BRANCH  15  19
ATOM     16  C   UNL     1      46.308   2.322   7.766  0.00  0.00    +0.000 A 
ATOM     17  C   UNL     1      45.428   1.730   8.675  0.00  0.00    +0.000 A 
ATOM     18  C   UNL     1      44.524   2.534   9.376  0.00  0.00    +0.000 A 
ATOM     19  C   UNL     1      44.536   3.902   9.136  0.00  0.00    +0.000 A 
ATOM     20  N   UNL     1      45.379   4.497   8.265  0.00  0.00    +0.000 NA
ATOM     21  C   UNL     1      46.252   3.699   7.609  0.00  0.00    +0.000 A 
BRANCH  16  23
ATOM     22  N   UNL     1      48.430   2.243   6.587  0.00  0.00    +0.000 N 
ATOM     23  C   UNL     1      47.309   1.571   6.984  0.00  0.00    +0.000 C 
ATOM     24  O   UNL     1      47.162   0.381   6.738  0.00  0.00    +0.000 OA
ATOM     25  H   UNL     1      49.154   1.681   6.155  0.00  0.00    +0.000 HD
ATOM     26  H   UNL     1      48.704   3.128   6.988  0.00  0.00    +0.000 HD
ENDBRANCH  16  23
ENDBRANCH  15  19
ENDBRANCH   1  15
TORSDOF 5
ENDMDL
MODEL 4
REMARK VINA RESULT:    -8.052      2.134      2.606
REMARK INTER + INTRA:         -11.137
REMARK INTER:                 -10.441
REMARK INTRA:                  -0.697
REMARK UNBOUND:                -0.732
REMARK  Name = 
REMARK  5 active torsions:
REMARK  status: ('A' for Active; 'I' for Inactive)
REMARK    1  A    between atoms: C_2  and  C_4
REMARK    2  A    between atoms: C_7  and  O_8
REMARK    3  A    between atoms: O_8  and  C_9
REMARK    4  A    between atoms: C_9  and  C_10
REMARK    5  A    between atoms: C_14  and  C_15
REMARK                            x       y       z     vdW  Elec       q    Type
REMARK                         _______ _______ _______ _____ _____    ______ ____
ROOT
ATOM      1  C   UNL     1      44.402   4.791  11.413  0.00  0.00    +0.000 C 
ENDROOT
BRANCH   1   2
ATOM      2  C   UNL     1      45.108   6.092  11.722  0.00  0.00    +0.000 A 
ATOM      3  C   UNL     1      44.479   7.305  11.411  0.00  0.00    +0.000 A 
ATOM      4  C   UNL     1      45.064   8.515  11.770  0.00  0.00    +0.000 A 
ATOM      5  C   UNL     1      46.277   8.526  12.461  0.00  0.00    +0.000 A 
ATOM      6  C   UNL     1      46.927   7.331  12.818  0.00  0.00    +0.000 A 
ATOM      7  C   UNL     1      46.322   6.120  12.426  0.00  0.00    +0.000 A 
BRANCH   6   8
ATOM      8  C   UNL     1      48.174   7.338  13.610  0.00  0.00    +0.000 A 
ATOM      9  C   UNL     1      48.325   6.556  14.763  0.00  0.00    +0.000 A 
ATOM     10  N   UNL     1      49.445   6.492  15.528  0.00  0.00    +0.000 NA
ATOM     11  C   UNL     1      50.490   7.245  15.119  0.00  0.00    +0.000 A 
ATOM     12  C   UNL     1      50.454   8.047  13.996  0.00  0.00    +0.000 A 
ATOM     13  F   UNL     1      51.526   8.764  13.634  0.00  0.00    +0.000 F 
ATOM     14  C   UNL     1      49.290   8.102  13.239  0.00  0.00    +0.000 A 
ENDBRANCH   6   8
ENDBRANCH   1   2
BRANCH   1  15
ATOM     15  O   UNL     1      43.935   4.743  10.060  0.00  0.00    +0.000 OA
BRANCH  15  19
ATOM     16  C   UNL     1      46.460   2.497   7.699  0.00  0.00    +0.000 A 
ATOM     17  C   UNL     1      45.666   1.864   8.658  0.00  0.00    +0.000 A 
ATOM     18  C   UNL     1      44.814   2.632   9.457  0.00  0.00    +0.000 A 
ATOM     19  C   UNL     1      44.788   4.006   9.260  0.00  0.00    +0.000 A 
ATOM     20  N   UNL     1      45.548   4.641   8.343  0.00  0.00    +0.000 NA
ATOM     21  C   UNL     1      46.373   3.877   7.591  0.00  0.00    +0.000 A 
BRANCH  16  23
ATOM     22  N   UNL     1      48.500   2.473   6.381  0.00  0.00    +0.000 N 
ATOM     23  C   UNL     1      47.401   1.786   6.813  0.00  0.00    +0.000 C 
ATOM     24  O   UNL     1      47.229   0.612   6.511  0.00  0.00    +0.000 OA
ATOM     25  H   UNL     1      49.190   1.933   5.873  0.00  0.00    +0.000 HD
ATOM     26  H   UNL     1      48.808   3.333   6.812  0.00  0.00    +0.000 HD
ENDBRANCH  16  23
ENDBRANCH  15  19
ENDBRANCH   1  15
TORSDOF 5
ENDMDL
MODEL 5
REMARK VINA RESULT:    -7.296      3.505      8.236
REMARK INTER + INTRA:         -10.161
REMARK INTER:                  -9.651
REMARK INTRA:                  -0.510
REMARK UNBOUND:                -0.732
REMARK  Name = 
REMARK  5 active torsions:
REMARK  status: ('A' for Active; 'I' for Inactive)
REMARK    1  A    between atoms: C_2  and  C_4
REMARK    2  A    between atoms: C_7  and  O_8
REMARK    3  A    between atoms: O_8  and  C_9
REMARK    4  A    between atoms: C_9  and  C_10
REMARK    5  A    between atoms: C_14  and  C_15
REMARK                            x       y       z     vdW  Elec       q    Type
REMARK                         _______ _______ _______ _____ _____    ______ ____
ROOT
ATOM      1  C   UNL     1      45.839   4.862  14.133  0.00  0.00    +0.000 C 
ENDROOT
BRANCH   1   2
ATOM      2  C   UNL     1      44.974   4.619  12.916  0.00  0.00    +0.000 A 
ATOM      3  C   UNL     1      43.639   5.043  12.927  0.00  0.00    +0.000 A 
ATOM      4  C   UNL     1      42.849   4.917  11.789  0.00  0.00    +0.000 A 
ATOM      5  C   UNL     1      43.392   4.382  10.619  0.00  0.00    +0.000 A 
ATOM      6  C   UNL     1      44.735   3.971  10.557  0.00  0.00    +0.000 A 
ATOM      7  C   UNL     1      45.507   4.092  11.729  0.00  0.00    +0.000 A 
BRANCH   6   8
ATOM      8  C   UNL     1      45.331   3.469   9.301  0.00  0.00    +0.000 A 
ATOM      9  C   UNL     1      45.694   4.330   8.257  0.00  0.00    +0.000 A 
ATOM     10  N   UNL     1      46.265   3.947   7.085  0.00  0.00    +0.000 NA
ATOM     11  C   UNL     1      46.503   2.625   6.942  0.00  0.00    +0.000 A 
ATOM     12  C   UNL     1      46.191   1.689   7.908  0.00  0.00    +0.000 A 
ATOM     13  F   UNL     1      46.461   0.391   7.714  0.00  0.00    +0.000 F 
ATOM     14  C   UNL     1      45.597   2.108   9.092  0.00  0.00    +0.000 A 
ENDBRANCH   6   8
ENDBRANCH   1   2
BRANCH   1  15
ATOM     15  O   UNL     1      46.713   3.758  14.398  0.00  0.00    +0.000 OA
BRANCH  15  19
ATOM     16  C   UNL     1      49.147   4.471  17.647  0.00  0.00    +0.000 A 
ATOM     17  C   UNL     1      48.593   3.201  17.465  0.00  0.00    +0.000 A 
ATOM     18  C   UNL     1      47.767   2.967  16.362  0.00  0.00    +0.000 A 
ATOM     19  C   UNL     1      47.530   4.015  15.482  0.00  0.00    +0.000 A 
ATOM     20  N   UNL     1      48.051   5.251  15.639  0.00  0.00    +0.000 NA
ATOM     21  C   UNL     1      48.837   5.455  16.721  0.00  0.00    +0.000 A 
BRANCH  16  23
ATOM     22  N   UNL     1      51.078   4.006  19.046  0.00  0.00    +0.000 N 
ATOM     23  C   UNL     1      50.021   4.830  18.781  0.00  0.00    +0.000 C 
ATOM     24  O   UNL     1      49.832   5.850  19.432  0.00  0.00    +0.000 OA
ATOM     25  H   UNL     1      51.729   4.333  19.750  0.00  0.00    +0.000 HD
ATOM     26  H   UNL     1      51.412   3.321  18.385  0.00  0.00    +0.000 HD
ENDBRANCH  16  23
ENDBRANCH  15  19
ENDBRANCH   1  15
TORSDOF 5
ENDMDL
MODEL 6
REMARK VINA RESULT:    -7.139      3.708      7.730
REMARK INTER + INTRA:          -9.957
REMARK INTER:                  -9.280
REMARK INTRA:                  -0.677
REMARK UNBOUND:                -0.732
REMARK  Name = 
REMARK  5 active torsions:
REMARK  status: ('A' for Active; 'I' for Inactive)
REMARK    1  A    between atoms: C_2  and  C_4
REMARK    2  A    between atoms: C_7  and  O_8
REMARK    3  A    between atoms: O_8  and  C_9
REMARK    4  A    between atoms: C_9  and  C_10
REMARK    5  A    between atoms: C_14  and  C_15
REMARK                            x       y       z     vdW  Elec       q    Type
REMARK                         _______ _______ _______ _____ _____    ______ ____
ROOT
ATOM      1  C   UNL     1      44.235   6.488  11.488  0.00  0.00    +0.000 C 
ENDROOT
BRANCH   1   2
ATOM      2  C   UNL     1      44.256   5.023  11.113  0.00  0.00    +0.000 A 
ATOM      3  C   UNL     1      43.400   4.133  11.774  0.00  0.00    +0.000 A 
ATOM      4  C   UNL     1      43.332   2.799  11.384  0.00  0.00    +0.000 A 
ATOM      5  C   UNL     1      44.105   2.344  10.315  0.00  0.00    +0.000 A 
ATOM      6  C   UNL     1      44.956   3.211   9.606  0.00  0.00    +0.000 A 
ATOM      7  C   UNL     1      45.020   4.551  10.033  0.00  0.00    +0.000 A 
BRANCH   6   8
ATOM      8  C   UNL     1      45.723   2.748   8.432  0.00  0.00    +0.000 A 
ATOM      9  C   UNL     1      46.219   1.441   8.338  0.00  0.00    +0.000 A 
ATOM     10  N   UNL     1      46.912   0.937   7.283  0.00  0.00    +0.000 NA
ATOM     11  C   UNL     1      47.118   1.780   6.248  0.00  0.00    +0.000 A 
ATOM     12  C   UNL     1      46.670   3.086   6.232  0.00  0.00    +0.000 A 
ATOM     13  F   UNL     1      46.897   3.872   5.172  0.00  0.00    +0.000 F 
ATOM     14  C   UNL     1      45.975   3.578   7.329  0.00  0.00    +0.000 A 
ENDBRANCH   6   8
ENDBRANCH   1   2
BRANCH   1  15
ATOM     15  O   UNL     1      45.397   7.179  11.014  0.00  0.00    +0.000 OA
BRANCH  15  19
ATOM     16  C   UNL     1      48.233   7.521  13.987  0.00  0.00    +0.000 A 
ATOM     17  C   UNL     1      47.183   8.441  13.925  0.00  0.00    +0.000 A 
ATOM     18  C   UNL     1      46.226   8.320  12.913  0.00  0.00    +0.000 A 
ATOM     19  C   UNL     1      46.358   7.279  12.003  0.00  0.00    +0.000 A 
ATOM     20  N   UNL     1      47.365   6.381  12.040  0.00  0.00    +0.000 NA
ATOM     21  C   UNL     1      48.285   6.527  13.022  0.00  0.00    +0.000 A 
BRANCH  16  23
ATOM     22  N   UNL     1      49.661   8.789  15.488  0.00  0.00    +0.000 N 
ATOM     23  C   UNL     1      49.302   7.563  15.003  0.00  0.00    +0.000 C 
ATOM     24  O   UNL     1      49.817   6.536  15.429  0.00  0.00    +0.000 OA
ATOM     25  H   UNL     1      50.311   8.785  16.266  0.00  0.00    +0.000 HD
ATOM     26  H   UNL     1      49.092   9.612  15.362  0.00  0.00    +0.000 HD
ENDBRANCH  16  23
ENDBRANCH  15  19
ENDBRANCH   1  15
TORSDOF 5
ENDMDL
MODEL 7
REMARK VINA RESULT:    -7.083      4.357      7.937
REMARK INTER + INTRA:          -9.886
REMARK INTER:                  -9.155
REMARK INTRA:                  -0.731
REMARK UNBOUND:                -0.732
REMARK  Name = 
REMARK  5 active torsions:
REMARK  status: ('A' for Active; 'I' for Inactive)
REMARK    1  A    between atoms: C_2  and  C_4
REMARK    2  A    between atoms: C_7  and  O_8
REMARK    3  A    between atoms: O_8  and  C_9
REMARK    4  A    between atoms: C_9  and  C_10
REMARK    5  A    between atoms: C_14  and  C_15
REMARK                            x       y       z     vdW  Elec       q    Type
REMARK                         _______ _______ _______ _____ _____    ______ ____
ROOT
ATOM      1  C   UNL     1      48.834   6.451  15.950  0.00  0.00    +0.000 C 
ENDROOT
BRANCH   1   2
ATOM      2  C   UNL     1      48.319   6.602  14.537  0.00  0.00    +0.000 A 
ATOM      3  C   UNL     1      49.034   7.391  13.626  0.00  0.00    +0.000 A 
ATOM      4  C   UNL     1      48.633   7.472  12.296  0.00  0.00    +0.000 A 
ATOM      5  C   UNL     1      47.524   6.748  11.856  0.00  0.00    +0.000 A 
ATOM      6  C   UNL     1      46.796   5.921  12.731  0.00  0.00    +0.000 A 
ATOM      7  C   UNL     1      47.211   5.873  14.076  0.00  0.00    +0.000 A 
BRANCH   6   8
ATOM      8  C   UNL     1      45.664   5.101  12.254  0.00  0.00    +0.000 A 
ATOM      9  C   UNL     1      44.918   4.291  13.121  0.00  0.00    +0.000 A 
ATOM     10  N   UNL     1      43.853   3.528  12.761  0.00  0.00    +0.000 NA
ATOM     11  C   UNL     1      43.495   3.578  11.459  0.00  0.00    +0.000 A 
ATOM     12  C   UNL     1      44.156   4.346  10.520  0.00  0.00    +0.000 A 
ATOM     13  F   UNL     1      43.749   4.363   9.244  0.00  0.00    +0.000 F 
ATOM     14  C   UNL     1      45.249   5.107  10.914  0.00  0.00    +0.000 A 
ENDBRANCH   6   8
ENDBRANCH   1   2
BRANCH   1  15
ATOM     15  O   UNL     1      48.265   5.313  16.609  0.00  0.00    +0.000 OA
BRANCH  15  19
ATOM     16  C   UNL     1      51.170   2.512  17.452  0.00  0.00    +0.000 A 
ATOM     17  C   UNL     1      51.438   3.868  17.657  0.00  0.00    +0.000 A 
ATOM     18  C   UNL     1      50.448   4.812  17.368  0.00  0.00    +0.000 A 
ATOM     19  C   UNL     1      49.228   4.361  16.885  0.00  0.00    +0.000 A 
ATOM     20  N   UNL     1      48.946   3.057  16.675  0.00  0.00    +0.000 NA
ATOM     21  C   UNL     1      49.924   2.164  16.952  0.00  0.00    +0.000 A 
BRANCH  16  23
ATOM     22  N   UNL     1      51.652   0.232  18.134  0.00  0.00    +0.000 N 
ATOM     23  C   UNL     1      52.143   1.434  17.712  0.00  0.00    +0.000 C 
ATOM     24  O   UNL     1      53.341   1.597  17.517  0.00  0.00    +0.000 OA
ATOM     25  H   UNL     1      52.323  -0.525  18.194  0.00  0.00    +0.000 HD
ATOM     26  H   UNL     1      50.677  -0.016  18.054  0.00  0.00    +0.000 HD
ENDBRANCH  16  23
ENDBRANCH  15  19
ENDBRANCH   1  15
TORSDOF 5
ENDMDL
MODEL 8
REMARK VINA RESULT:    -6.867      3.784      8.394
REMARK INTER + INTRA:          -9.606
REMARK INTER:                  -8.912
REMARK INTRA:                  -0.694
REMARK UNBOUND:                -0.732
REMARK  Name = 
REMARK  5 active torsions:
REMARK  status: ('A' for Active; 'I' for Inactive)
REMARK    1  A    between atoms: C_2  and  C_4
REMARK    2  A    between atoms: C_7  and  O_8
REMARK    3  A    between atoms: O_8  and  C_9
REMARK    4  A    between atoms: C_9  and  C_10
REMARK    5  A    between atoms: C_14  and  C_15
REMARK                            x       y       z     vdW  Elec       q    Type
REMARK                         _______ _______ _______ _____ _____    ______ ____
ROOT
ATOM      1  C   UNL     1      48.323   7.570  13.923  0.00  0.00    +0.000 C 
ENDROOT
BRANCH   1   2
ATOM      2  C   UNL     1      47.057   7.524  13.096  0.00  0.00    +0.000 A 
ATOM      3  C   UNL     1      46.271   8.677  12.980  0.00  0.00    +0.000 A 
ATOM      4  C   UNL     1      45.153   8.688  12.151  0.00  0.00    +0.000 A 
ATOM      5  C   UNL     1      44.821   7.551  11.413  0.00  0.00    +0.000 A 
ATOM      6  C   UNL     1      45.600   6.382  11.479  0.00  0.00    +0.000 A 
ATOM      7  C   UNL     1      46.715   6.392  12.339  0.00  0.00    +0.000 A 
BRANCH   6   8
ATOM      8  C   UNL     1      45.291   5.201  10.647  0.00  0.00    +0.000 A 
ATOM      9  C   UNL     1      44.561   4.113  11.145  0.00  0.00    +0.000 A 
ATOM     10  N   UNL     1      44.219   3.006  10.436  0.00  0.00    +0.000 NA
ATOM     11  C   UNL     1      44.617   2.977   9.146  0.00  0.00    +0.000 A 
ATOM     12  C   UNL     1      45.336   3.995   8.551  0.00  0.00    +0.000 A 
ATOM     13  F   UNL     1      45.694   3.915   7.262  0.00  0.00    +0.000 F 
ATOM     14  C   UNL     1      45.682   5.111   9.302  0.00  0.00    +0.000 A 
ENDBRANCH   6   8
ENDBRANCH   1   2
BRANCH   1  15
ATOM     15  O   UNL     1      48.782   6.259  14.273  0.00  0.00    +0.000 OA
BRANCH  15  19
ATOM     16  C   UNL     1      48.248   5.563  18.301  0.00  0.00    +0.000 A 
ATOM     17  C   UNL     1      48.747   6.796  17.874  0.00  0.00    +0.000 A 
ATOM     18  C   UNL     1      48.928   7.024  16.507  0.00  0.00    +0.000 A 
ATOM     19  C   UNL     1      48.598   6.008  15.620  0.00  0.00    +0.000 A 
ATOM     20  N   UNL     1      48.118   4.807  16.009  0.00  0.00    +0.000 NA
ATOM     21  C   UNL     1      47.964   4.607  17.338  0.00  0.00    +0.000 A 
BRANCH  16  23
ATOM     22  N   UNL     1      48.501   4.003  20.146  0.00  0.00    +0.000 N 
ATOM     23  C   UNL     1      48.031   5.212  19.718  0.00  0.00    +0.000 C 
ATOM     24  O   UNL     1      47.489   5.992  20.491  0.00  0.00    +0.000 OA
ATOM     25  H   UNL     1      48.445   3.833  21.143  0.00  0.00    +0.000 HD
ATOM     26  H   UNL     1      49.170   3.462  19.618  0.00  0.00    +0.000 HD
ENDBRANCH  16  23
ENDBRANCH  15  19
ENDBRANCH   1  15
TORSDOF 5
ENDMDL
MODEL 9
REMARK VINA RESULT:    -6.518      2.696      3.924
REMARK INTER + INTRA:          -9.155
REMARK INTER:                  -8.259
REMARK INTRA:                  -0.896
REMARK UNBOUND:                -0.732
REMARK  Name = 
REMARK  5 active torsions:
REMARK  status: ('A' for Active; 'I' for Inactive)
REMARK    1  A    between atoms: C_2  and  C_4
REMARK    2  A    between atoms: C_7  and  O_8
REMARK    3  A    between atoms: O_8  and  C_9
REMARK    4  A    between atoms: C_9  and  C_10
REMARK    5  A    between atoms: C_14  and  C_15
REMARK                            x       y       z     vdW  Elec       q    Type
REMARK                         _______ _______ _______ _____ _____    ______ ____
ROOT
ATOM      1  C   UNL     1      47.835   7.521  12.172  0.00  0.00    +0.000 C 
ENDROOT
BRANCH   1   2
ATOM      2  C   UNL     1      48.301   7.656  13.604  0.00  0.00    +0.000 A 
ATOM      3  C   UNL     1      48.568   8.930  14.122  0.00  0.00    +0.000 A 
ATOM      4  C   UNL     1      48.907   9.089  15.462  0.00  0.00    +0.000 A 
ATOM      5  C   UNL     1      48.966   7.978  16.305  0.00  0.00    +0.000 A 
ATOM      6  C   UNL     1      48.677   6.685  15.831  0.00  0.00    +0.000 A 
ATOM      7  C   UNL     1      48.355   6.549  14.467  0.00  0.00    +0.000 A 
BRANCH   6   8
ATOM      8  C   UNL     1      48.670   5.516  16.735  0.00  0.00    +0.000 A 
ATOM      9  C   UNL     1      49.631   5.353  17.742  0.00  0.00    +0.000 A 
ATOM     10  N   UNL     1      49.677   4.320  18.624  0.00  0.00    +0.000 NA
ATOM     11  C   UNL     1      48.701   3.393  18.507  0.00  0.00    +0.000 A 
ATOM     12  C   UNL     1      47.703   3.457  17.555  0.00  0.00    +0.000 A 
ATOM     13  F   UNL     1      46.754   2.513  17.495  0.00  0.00    +0.000 F 
ATOM     14  C   UNL     1      47.687   4.519  16.660  0.00  0.00    +0.000 A 
ENDBRANCH   6   8
ENDBRANCH   1   2
BRANCH   1  15
ATOM     15  O   UNL     1      46.416   7.682  12.053  0.00  0.00    +0.000 OA
BRANCH  15  19
ATOM     16  C   UNL     1      44.549   4.085  11.295  0.00  0.00    +0.000 A 
ATOM     17  C   UNL     1      44.510   4.626  12.583  0.00  0.00    +0.000 A 
ATOM     18  C   UNL     1      45.147   5.845  12.833  0.00  0.00    +0.000 A 
ATOM     19  C   UNL     1      45.797   6.476  11.781  0.00  0.00    +0.000 A 
ATOM     20  N   UNL     1      45.851   5.973  10.530  0.00  0.00    +0.000 NA
ATOM     21  C   UNL     1      45.237   4.786  10.316  0.00  0.00    +0.000 A 
BRANCH  16  23
ATOM     22  N   UNL     1      44.475   2.110   9.884  0.00  0.00    +0.000 N 
ATOM     23  C   UNL     1      43.922   2.802  10.924  0.00  0.00    +0.000 C 
ATOM     24  O   UNL     1      42.970   2.353  11.550  0.00  0.00    +0.000 OA
ATOM     25  H   UNL     1      44.103   1.181   9.723  0.00  0.00    +0.000 HD
ATOM     26  H   UNL     1      45.396   2.311   9.525  0.00  0.00    +0.000 HD
ENDBRANCH  16  23
ENDBRANCH  15  19
ENDBRANCH   1  15
TORSDOF 5
ENDMDL
