MODEL 1
REMARK VINA RESULT:    -8.244      0.000      0.000
REMARK INTER + INTRA:         -12.426
REMARK INTER:                 -11.618
REMARK INTRA:                  -0.807
REMARK UNBOUND:                -0.807
REMARK  Name = 
REMARK  8 active torsions:
REMARK  status: ('A' for Active; 'I' for Inactive)
REMARK    1  A    between atoms: N_1  and  C_2
REMARK    2  A    between atoms: C_2  and  C_3
REMARK    3  A    between atoms: C_6  and  O_7
REMARK    4  A    between atoms: O_7  and  C_8
REMARK    5  A    between atoms: C_8  and  C_9
REMARK    6  A    between atoms: C_9  and  C_12
REMARK    7  A    between atoms: C_15  and  S_16
REMARK    8  A    between atoms: S_16  and  N_17
REMARK                            x       y       z     vdW  Elec       q    Type
REMARK                         _______ _______ _______ _____ _____    ______ ____
ROOT
ATOM      1  C   UNL     1      43.276   5.145  12.250  0.00  0.00    +0.000 C 
ATOM      2  F   UNL     1      42.475   6.127  11.740  0.00  0.00    +0.000 F 
ATOM      3  F   UNL     1      42.593   4.681  13.347  0.00  0.00    +0.000 F 
ENDROOT
BRANCH   1   4
ATOM      4  C   UNL     1      44.650   5.653  12.636  0.00  0.00    +0.000 A 
ATOM      5  C   UNL     1      45.055   6.964  12.333  0.00  0.00    +0.000 A 
ATOM      6  C   UNL     1      46.316   7.424  12.715  0.00  0.00    +0.000 A 
ATOM      7  C   UNL     1      47.174   6.561  13.399  0.00  0.00    +0.000 A 
ATOM      8  C   UNL     1      46.804   5.247  13.680  0.00  0.00    +0.000 A 
ATOM      9  C   UNL     1      45.542   4.796  13.303  0.00  0.00    +0.000 A 
BRANCH   7  10
ATOM     10  S   UNL     1      48.743   7.150  13.954  0.00  0.00    +0.000 S 
ATOM     11  O   UNL     1      48.713   8.595  14.009  0.00  0.00    +0.000 OA
ATOM     12  O   UNL     1      49.203   6.338  15.053  0.00  0.00    +0.000 OA
BRANCH  10  13
ATOM     13  N   UNL     1      49.691   6.743  12.632  0.00  0.00    +0.000 NA
ATOM     14  H   UNL     1      50.678   6.714  12.884  0.00  0.00    +0.000 HD
ATOM     15  H   UNL     1      49.331   5.907  12.174  0.00  0.00    +0.000 HD
ENDBRANCH  10  13
ENDBRANCH   7  10
ENDBRANCH   1   4
BRANCH   1  16
ATOM     16  C   UNL     1      43.344   3.985  11.249  0.00  0.00    +0.000 C 
BRANCH  16  17
ATOM     17  O   UNL     1      43.661   4.431   9.925  0.00  0.00    +0.000 OA
BRANCH  17  21
ATOM     18  C   UNL     1      46.543   2.324   7.735  0.00  0.00    +0.000 A 
ATOM     19  C   UNL     1      45.677   1.615   8.580  0.00  0.00    +0.000 A 
ATOM     20  C   UNL     1      44.709   2.282   9.333  0.00  0.00    +0.000 A 
ATOM     21  C   UNL     1      44.581   3.669   9.253  0.00  0.00    +0.000 A 
ATOM     22  C   UNL     1      45.446   4.385   8.429  0.00  0.00    +0.000 A 
ATOM     23  C   UNL     1      46.422   3.719   7.678  0.00  0.00    +0.000 A 
BRANCH  18  24
ATOM     24  C   UNL     1      47.595   1.601   6.936  0.00  0.00    +0.000 C 
BRANCH  24  25
ATOM     25  N   UNL     1      48.529   2.518   6.292  0.00  0.00    +0.000 NA
ATOM     26  H   UNL     1      49.207   2.837   6.981  0.00  0.00    +0.000 HD
ATOM     27  H   UNL     1      48.021   3.346   5.983  0.00  0.00    +0.000 HD
ENDBRANCH  24  25
ENDBRANCH  18  24
ENDBRANCH  17  21
ENDBRANCH  16  17
ENDBRANCH   1  16
TORSDOF 8
ENDMDL
MODEL 2
REMARK VINA RESULT:    -7.476      2.959      6.635
REMARK INTER + INTRA:         -11.343
REMARK INTER:                 -10.434
REMARK INTRA:                  -0.909
REMARK UNBOUND:                -0.807
REMARK  Name = 
REMARK  8 active torsions:
REMARK  status: ('A' for Active; 'I' for Inactive)
REMARK    1  A    between atoms: N_1  and  C_2
REMARK    2  A    between atoms: C_2  and  C_3
REMARK    3  A    between atoms: C_6  and  O_7
REMARK    4  A    between atoms: O_7  and  C_8
REMARK    5  A    between atoms: C_8  and  C_9
REMARK    6  A    between atoms: C_9  and  C_12
REMARK    7  A    between atoms: C_15  and  S_16
REMARK    8  A    between atoms: S_16  and  N_17
REMARK                            x       y       z     vdW  Elec       q    Type
REMARK                         _______ _______ _______ _____ _____    ______ ____
ROOT
ATOM      1  C   UNL     1      43.730   4.252  11.000  0.00  0.00    +0.000 C 
ATOM      2  F   UNL     1      42.735   3.401  11.390  0.00  0.00    +0.000 F 
ATOM      3  F   UNL     1      43.071   5.384  10.588  0.00  0.00    +0.000 F 
ENDROOT
BRANCH   1   4
ATOM      4  C   UNL     1      44.583   3.682   9.885  0.00  0.00    +0.000 A 
ATOM      5  C   UNL     1      44.695   2.295   9.689  0.00  0.00    +0.000 A 
ATOM      6  C   UNL     1      45.467   1.785   8.644  0.00  0.00    +0.000 A 
ATOM      7  C   UNL     1      46.133   2.673   7.798  0.00  0.00    +0.000 A 
ATOM      8  C   UNL     1      46.062   4.051   7.996  0.00  0.00    +0.000 A 
ATOM      9  C   UNL     1      45.284   4.553   9.034  0.00  0.00    +0.000 A 
BRANCH   7  10
ATOM     10  S   UNL     1      47.054   2.047   6.428  0.00  0.00    +0.000 S 
ATOM     11  O   UNL     1      47.218   0.618   6.581  0.00  0.00    +0.000 OA
ATOM     12  O   UNL     1      46.578   2.650   5.208  0.00  0.00    +0.000 OA
BRANCH  10  13
ATOM     13  N   UNL     1      48.551   2.734   6.745  0.00  0.00    +0.000 NA
ATOM     14  H   UNL     1      48.641   2.979   7.730  0.00  0.00    +0.000 HD
ATOM     15  H   UNL     1      49.300   2.155   6.368  0.00  0.00    +0.000 HD
ENDBRANCH  10  13
ENDBRANCH   7  10
ENDBRANCH   1   4
BRANCH   1  16
ATOM     16  C   UNL     1      44.562   4.646  12.226  0.00  0.00    +0.000 C 
BRANCH  16  17
ATOM     17  O   UNL     1      44.415   6.031  12.558  0.00  0.00    +0.000 OA
BRANCH  17  21
ATOM     18  C   UNL     1      48.103   8.012  12.640  0.00  0.00    +0.000 A 
ATOM     19  C   UNL     1      46.928   8.754  12.827  0.00  0.00    +0.000 A 
ATOM     20  C   UNL     1      45.679   8.131  12.798  0.00  0.00    +0.000 A 
ATOM     21  C   UNL     1      45.578   6.755  12.588  0.00  0.00    +0.000 A 
ATOM     22  C   UNL     1      46.738   6.012  12.386  0.00  0.00    +0.000 A 
ATOM     23  C   UNL     1      47.991   6.635  12.408  0.00  0.00    +0.000 A 
BRANCH  18  24
ATOM     24  C   UNL     1      49.448   8.692  12.658  0.00  0.00    +0.000 C 
BRANCH  24  25
ATOM     25  N   UNL     1      50.520   7.786  13.056  0.00  0.00    +0.000 NA
ATOM     26  H   UNL     1      50.508   6.972  12.445  0.00  0.00    +0.000 HD
ATOM     27  H   UNL     1      50.333   7.442  13.997  0.00  0.00    +0.000 HD
ENDBRANCH  24  25
ENDBRANCH  18  24
ENDBRANCH  17  21
ENDBRANCH  16  17
ENDBRANCH   1  16
TORSDOF 8
ENDMDL
MODEL 3
REMARK VINA RESULT:    -7.423      1.484      2.198
REMARK INTER + INTRA:         -11.268
REMARK INTER:                 -10.631
REMARK INTRA:                  -0.637
REMARK UNBOUND:                -0.807
REMARK  Name = 
REMARK  8 active torsions:
REMARK  status: ('A' for Active; 'I' for Inactive)
REMARK    1  A    between atoms: N_1  and  C_2
REMARK    2  A    between atoms: C_2  and  C_3
REMARK    3  A    between atoms: C_6  and  O_7
REMARK    4  A    between atoms: O_7  and  C_8
REMARK    5  A    between atoms: C_8  and  C_9
REMARK    6  A    between atoms: C_9  and  C_12
REMARK    7  A    between atoms: C_15  and  S_16
REMARK    8  A    between atoms: S_16  and  N_17
REMARK                            x       y       z     vdW  Elec       q    Type
REMARK                         _______ _______ _______ _____ _____    ______ ____
ROOT
ATOM      1  C   UNL     1      44.051   4.014  12.393  0.00  0.00    +0.000 C 
ATOM      2  F   UNL     1      43.048   4.011  13.320  0.00  0.00    +0.000 F 
ATOM      3  F   UNL     1      44.726   2.838  12.614  0.00  0.00    +0.000 F 
ENDROOT
BRANCH   1   4
ATOM      4  C   UNL     1      44.975   5.207  12.534  0.00  0.00    +0.000 A 
ATOM      5  C   UNL     1      46.352   5.041  12.759  0.00  0.00    +0.000 A 
ATOM      6  C   UNL     1      47.192   6.150  12.865  0.00  0.00    +0.000 A 
ATOM      7  C   UNL     1      46.646   7.429  12.749  0.00  0.00    +0.000 A 
ATOM      8  C   UNL     1      45.278   7.615  12.558  0.00  0.00    +0.000 A 
ATOM      9  C   UNL     1      44.446   6.506  12.446  0.00  0.00    +0.000 A 
BRANCH   7  10
ATOM     10  S   UNL     1      47.706   8.839  12.806  0.00  0.00    +0.000 S 
ATOM     11  O   UNL     1      48.221   8.990  14.150  0.00  0.00    +0.000 OA
ATOM     12  O   UNL     1      48.555   8.854  11.641  0.00  0.00    +0.000 OA
BRANCH  10  13
ATOM     13  N   UNL     1      46.578  10.061  12.589  0.00  0.00    +0.000 NA
ATOM     14  H   UNL     1      46.919  10.762  11.933  0.00  0.00    +0.000 HD
ATOM     15  H   UNL     1      45.661   9.671  12.376  0.00  0.00    +0.000 HD
ENDBRANCH  10  13
ENDBRANCH   7  10
ENDBRANCH   1   4
BRANCH   1  16
ATOM     16  C   UNL     1      43.438   3.915  10.991  0.00  0.00    +0.000 C 
BRANCH  16  17
ATOM     17  O   UNL     1      44.198   4.637  10.016  0.00  0.00    +0.000 OA
BRANCH  17  21
ATOM     18  C   UNL     1      46.527   2.076   7.658  0.00  0.00    +0.000 A 
ATOM     19  C   UNL     1      46.608   3.459   7.444  0.00  0.00    +0.000 A 
ATOM     20  C   UNL     1      45.841   4.345   8.204  0.00  0.00    +0.000 A 
ATOM     21  C   UNL     1      44.983   3.868   9.196  0.00  0.00    +0.000 A 
ATOM     22  C   UNL     1      44.883   2.495   9.406  0.00  0.00    +0.000 A 
ATOM     23  C   UNL     1      45.645   1.604   8.641  0.00  0.00    +0.000 A 
BRANCH  18  24
ATOM     24  C   UNL     1      47.345   1.123   6.826  0.00  0.00    +0.000 C 
BRANCH  24  25
ATOM     25  N   UNL     1      48.283   1.818   5.951  0.00  0.00    +0.000 NA
ATOM     26  H   UNL     1      48.391   2.777   6.277  0.00  0.00    +0.000 HD
ATOM     27  H   UNL     1      47.885   1.876   5.015  0.00  0.00    +0.000 HD
ENDBRANCH  24  25
ENDBRANCH  18  24
ENDBRANCH  17  21
ENDBRANCH  16  17
ENDBRANCH   1  16
TORSDOF 8
ENDMDL
MODEL 4
REMARK VINA RESULT:    -7.301      1.337      2.149
REMARK INTER + INTRA:         -11.096
REMARK INTER:                 -10.447
REMARK INTRA:                  -0.649
REMARK UNBOUND:                -0.807
REMARK  Name = 
REMARK  8 active torsions:
REMARK  status: ('A' for Active; 'I' for Inactive)
REMARK    1  A    between atoms: N_1  and  C_2
REMARK    2  A    between atoms: C_2  and  C_3
REMARK    3  A    between atoms: C_6  and  O_7
REMARK    4  A    between atoms: O_7  and  C_8
REMARK    5  A    between atoms: C_8  and  C_9
REMARK    6  A    between atoms: C_9  and  C_12
REMARK    7  A    between atoms: C_15  and  S_16
REMARK    8  A    between atoms: S_16  and  N_17
REMARK                            x       y       z     vdW  Elec       q    Type
REMARK                         _______ _______ _______ _____ _____    ______ ____
ROOT
ATOM      1  C   UNL     1      45.092   4.245  12.704  0.00  0.00    +0.000 C 
ATOM      2  F   UNL     1      43.976   4.140  13.485  0.00  0.00    +0.000 F 
ATOM      3  F   UNL     1      45.449   2.946  12.439  0.00  0.00    +0.000 F 
ENDROOT
BRANCH   1   4
ATOM      4  C   UNL     1      46.218   4.992  13.391  0.00  0.00    +0.000 A 
ATOM      5  C   UNL     1      46.739   4.555  14.621  0.00  0.00    +0.000 A 
ATOM      6  C   UNL     1      47.791   5.241  15.229  0.00  0.00    +0.000 A 
ATOM      7  C   UNL     1      48.317   6.371  14.602  0.00  0.00    +0.000 A 
ATOM      8  C   UNL     1      47.792   6.839  13.399  0.00  0.00    +0.000 A 
ATOM      9  C   UNL     1      46.748   6.147  12.792  0.00  0.00    +0.000 A 
BRANCH   7  10
ATOM     10  S   UNL     1      49.695   7.207  15.322  0.00  0.00    +0.000 S 
ATOM     11  O   UNL     1      49.245   8.459  15.890  0.00  0.00    +0.000 OA
ATOM     12  O   UNL     1      50.503   6.265  16.055  0.00  0.00    +0.000 OA
BRANCH  10  13
ATOM     13  N   UNL     1      50.556   7.596  13.936  0.00  0.00    +0.000 NA
ATOM     14  H   UNL     1      51.211   8.356  14.113  0.00  0.00    +0.000 HD
ATOM     15  H   UNL     1      50.961   6.759  13.517  0.00  0.00    +0.000 HD
ENDBRANCH  10  13
ENDBRANCH   7  10
ENDBRANCH   1   4
BRANCH   1  16
ATOM     16  C   UNL     1      44.706   4.880  11.363  0.00  0.00    +0.000 C 
BRANCH  16  17
ATOM     17  O   UNL     1      44.124   3.931  10.462  0.00  0.00    +0.000 OA
BRANCH  17  21
ATOM     18  C   UNL     1      46.568   2.484   7.384  0.00  0.00    +0.000 A 
ATOM     19  C   UNL     1      46.354   3.866   7.491  0.00  0.00    +0.000 A 
ATOM     20  C   UNL     1      45.539   4.386   8.498  0.00  0.00    +0.000 A 
ATOM     21  C   UNL     1      44.926   3.539   9.422  0.00  0.00    +0.000 A 
ATOM     22  C   UNL     1      45.120   2.163   9.315  0.00  0.00    +0.000 A 
ATOM     23  C   UNL     1      45.930   1.639   8.303  0.00  0.00    +0.000 A 
BRANCH  18  24
ATOM     24  C   UNL     1      47.436   1.927   6.286  0.00  0.00    +0.000 C 
BRANCH  24  25
ATOM     25  N   UNL     1      48.776   2.505   6.293  0.00  0.00    +0.000 NA
ATOM     26  H   UNL     1      49.128   2.532   5.338  0.00  0.00    +0.000 HD
ATOM     27  H   UNL     1      49.401   1.890   6.813  0.00  0.00    +0.000 HD
ENDBRANCH  24  25
ENDBRANCH  18  24
ENDBRANCH  17  21
ENDBRANCH  16  17
ENDBRANCH   1  16
TORSDOF 8
ENDMDL
MODEL 5
REMARK VINA RESULT:    -6.961      3.177      6.951
REMARK INTER + INTRA:         -10.618
REMARK INTER:                  -9.993
REMARK INTRA:                  -0.625
REMARK UNBOUND:                -0.807
REMARK  Name = 
REMARK  8 active torsions:
REMARK  status: ('A' for Active; 'I' for Inactive)
REMARK    1  A    between atoms: N_1  and  C_2
REMARK    2  A    between atoms: C_2  and  C_3
REMARK    3  A    between atoms: C_6  and  O_7
REMARK    4  A    between atoms: O_7  and  C_8
REMARK    5  A    between atoms: C_8  and  C_9
REMARK    6  A    between atoms: C_9  and  C_12
REMARK    7  A    between atoms: C_15  and  S_16
REMARK    8  A    between atoms: S_16  and  N_17
REMARK                            x       y       z     vdW  Elec       q    Type
REMARK                         _______ _______ _______ _____ _____    ______ ____
ROOT
ATOM      1  C   UNL     1      43.884   4.436  10.947  0.00  0.00    +0.000 C 
ATOM      2  F   UNL     1      43.142   3.488  11.591  0.00  0.00    +0.000 F 
ATOM      3  F   UNL     1      42.959   5.338  10.482  0.00  0.00    +0.000 F 
ENDROOT
BRANCH   1   4
ATOM      4  C   UNL     1      44.707   3.863   9.811  0.00  0.00    +0.000 A 
ATOM      5  C   UNL     1      45.392   4.700   8.913  0.00  0.00    +0.000 A 
ATOM      6  C   UNL     1      46.164   4.156   7.885  0.00  0.00    +0.000 A 
ATOM      7  C   UNL     1      46.244   2.769   7.757  0.00  0.00    +0.000 A 
ATOM      8  C   UNL     1      45.545   1.923   8.617  0.00  0.00    +0.000 A 
ATOM      9  C   UNL     1      44.783   2.470   9.645  0.00  0.00    +0.000 A 
BRANCH   7  10
ATOM     10  S   UNL     1      47.274   2.065   6.509  0.00  0.00    +0.000 S 
ATOM     11  O   UNL     1      46.706   2.351   5.210  0.00  0.00    +0.000 OA
ATOM     12  O   UNL     1      48.658   2.316   6.825  0.00  0.00    +0.000 OA
BRANCH  10  13
ATOM     13  N   UNL     1      47.008   0.434   6.796  0.00  0.00    +0.000 NA
ATOM     14  H   UNL     1      46.673  -0.035   5.957  0.00  0.00    +0.000 HD
ATOM     15  H   UNL     1      47.822   0.009   7.240  0.00  0.00    +0.000 HD
ENDBRANCH  10  13
ENDBRANCH   7  10
ENDBRANCH   1   4
BRANCH   1  16
ATOM     16  C   UNL     1      44.748   5.179  11.974  0.00  0.00    +0.000 C 
BRANCH  16  17
ATOM     17  O   UNL     1      45.657   4.304  12.650  0.00  0.00    +0.000 OA
BRANCH  17  21
ATOM     18  C   UNL     1      48.354   6.015  15.360  0.00  0.00    +0.000 A 
ATOM     19  C   UNL     1      48.156   6.631  14.116  0.00  0.00    +0.000 A 
ATOM     20  C   UNL     1      47.272   6.086  13.182  0.00  0.00    +0.000 A 
ATOM     21  C   UNL     1      46.563   4.919  13.474  0.00  0.00    +0.000 A 
ATOM     22  C   UNL     1      46.764   4.291  14.701  0.00  0.00    +0.000 A 
ATOM     23  C   UNL     1      47.655   4.831  15.635  0.00  0.00    +0.000 A 
BRANCH  18  24
ATOM     24  C   UNL     1      49.320   6.598  16.357  0.00  0.00    +0.000 C 
BRANCH  24  25
ATOM     25  N   UNL     1      50.422   5.691  16.657  0.00  0.00    +0.000 NA
ATOM     26  H   UNL     1      50.933   6.046  17.462  0.00  0.00    +0.000 HD
ATOM     27  H   UNL     1      51.078   5.694  15.876  0.00  0.00    +0.000 HD
ENDBRANCH  24  25
ENDBRANCH  18  24
ENDBRANCH  17  21
ENDBRANCH  16  17
ENDBRANCH   1  16
TORSDOF 8
ENDMDL
MODEL 6
REMARK VINA RESULT:    -6.851      2.021      2.374
REMARK INTER + INTRA:         -10.462
REMARK INTER:                  -9.878
REMARK INTRA:                  -0.584
REMARK UNBOUND:                -0.807
REMARK  Name = 
REMARK  8 active torsions:
REMARK  status: ('A' for Active; 'I' for Inactive)
REMARK    1  A    between atoms: N_1  and  C_2
REMARK    2  A    between atoms: C_2  and  C_3
REMARK    3  A    between atoms: C_6  and  O_7
REMARK    4  A    between atoms: O_7  and  C_8
REMARK    5  A    between atoms: C_8  and  C_9
REMARK    6  A    between atoms: C_9  and  C_12
REMARK    7  A    between atoms: C_15  and  S_16
REMARK    8  A    between atoms: S_16  and  N_17
REMARK                            x       y       z     vdW  Elec       q    Type
REMARK                         _______ _______ _______ _____ _____    ______ ____
ROOT
ATOM      1  C   UNL     1      45.528   5.467  12.219  0.00  0.00    +0.000 C 
ATOM      2  F   UNL     1      45.962   6.198  11.149  0.00  0.00    +0.000 F 
ATOM      3  F   UNL     1      44.325   6.034  12.557  0.00  0.00    +0.000 F 
ENDROOT
BRANCH   1   4
ATOM      4  C   UNL     1      46.497   5.504  13.384  0.00  0.00    +0.000 A 
ATOM      5  C   UNL     1      47.424   6.550  13.527  0.00  0.00    +0.000 A 
ATOM      6  C   UNL     1      48.295   6.582  14.618  0.00  0.00    +0.000 A 
ATOM      7  C   UNL     1      48.235   5.557  15.563  0.00  0.00    +0.000 A 
ATOM      8  C   UNL     1      47.345   4.494  15.421  0.00  0.00    +0.000 A 
ATOM      9  C   UNL     1      46.474   4.471  14.336  0.00  0.00    +0.000 A 
BRANCH   7  10
ATOM     10  S   UNL     1      49.278   5.621  16.986  0.00  0.00    +0.000 S 
ATOM     11  O   UNL     1      50.474   6.368  16.663  0.00  0.00    +0.000 OA
ATOM     12  O   UNL     1      48.482   5.893  18.157  0.00  0.00    +0.000 OA
BRANCH  10  13
ATOM     13  N   UNL     1      49.735   4.010  17.085  0.00  0.00    +0.000 NA
ATOM     14  H   UNL     1      50.741   3.907  16.963  0.00  0.00    +0.000 HD
ATOM     15  H   UNL     1      49.350   3.577  17.924  0.00  0.00    +0.000 HD
ENDBRANCH  10  13
ENDBRANCH   7  10
ENDBRANCH   1   4
BRANCH   1  16
ATOM     16  C   UNL     1      45.228   4.035  11.757  0.00  0.00    +0.000 C 
BRANCH  16  17
ATOM     17  O   UNL     1      44.460   4.005  10.550  0.00  0.00    +0.000 OA
BRANCH  17  21
ATOM     18  C   UNL     1      46.457   2.751   7.089  0.00  0.00    +0.000 A 
ATOM     19  C   UNL     1      45.992   1.786   7.994  0.00  0.00    +0.000 A 
ATOM     20  C   UNL     1      45.329   2.165   9.163  0.00  0.00    +0.000 A 
ATOM     21  C   UNL     1      45.112   3.513   9.449  0.00  0.00    +0.000 A 
ATOM     22  C   UNL     1      45.584   4.480   8.565  0.00  0.00    +0.000 A 
ATOM     23  C   UNL     1      46.255   4.104   7.396  0.00  0.00    +0.000 A 
BRANCH  18  24
ATOM     24  C   UNL     1      47.185   2.337   5.837  0.00  0.00    +0.000 C 
BRANCH  24  25
ATOM     25  N   UNL     1      48.508   1.791   6.119  0.00  0.00    +0.000 NA
ATOM     26  H   UNL     1      48.401   0.894   6.588  0.00  0.00    +0.000 HD
ATOM     27  H   UNL     1      48.987   2.405   6.778  0.00  0.00    +0.000 HD
ENDBRANCH  24  25
ENDBRANCH  18  24
ENDBRANCH  17  21
ENDBRANCH  16  17
ENDBRANCH   1  16
TORSDOF 8
ENDMDL
MODEL 7
REMARK VINA RESULT:    -6.336      4.037      5.334
REMARK INTER + INTRA:          -9.737
REMARK INTER:                  -8.623
REMARK INTRA:                  -1.114
REMARK UNBOUND:                -0.807
REMARK  Name = 
REMARK  8 active torsions:
REMARK  status: ('A' for Active; 'I' for Inactive)
REMARK    1  A    between atoms: N_1  and  C_2
REMARK    2  A    between atoms: C_2  and  C_3
REMARK    3  A    between atoms: C_6  and  O_7
REMARK    4  A    between atoms: O_7  and  C_8
REMARK    5  A    between atoms: C_8  and  C_9
REMARK    6  A    between atoms: C_9  and  C_12
REMARK    7  A    between atoms: C_15  and  S_16
REMARK    8  A    between atoms: S_16  and  N_17
REMARK                            x       y       z     vdW  Elec       q    Type
REMARK                         _______ _______ _______ _____ _____    ______ ____
ROOT
ATOM      1  C   UNL     1      48.142   7.591  13.295  0.00  0.00    +0.000 C 
ATOM      2  F   UNL     1      48.614   7.105  12.108  0.00  0.00    +0.000 F 
ATOM      3  F   UNL     1      49.045   8.563  13.651  0.00  0.00    +0.000 F 
ENDROOT
BRANCH   1   4
ATOM      4  C   UNL     1      48.039   6.523  14.365  0.00  0.00    +0.000 A 
ATOM      5  C   UNL     1      47.295   5.350  14.154  0.00  0.00    +0.000 A 
ATOM      6  C   UNL     1      47.228   4.365  15.141  0.00  0.00    +0.000 A 
ATOM      7  C   UNL     1      47.907   4.564  16.344  0.00  0.00    +0.000 A 
ATOM      8  C   UNL     1      48.623   5.735  16.585  0.00  0.00    +0.000 A 
ATOM      9  C   UNL     1      48.693   6.710  15.595  0.00  0.00    +0.000 A 
BRANCH   7  10
ATOM     10  S   UNL     1      47.893   3.296  17.573  0.00  0.00    +0.000 S 
ATOM     11  O   UNL     1      46.586   2.676  17.598  0.00  0.00    +0.000 OA
ATOM     12  O   UNL     1      49.115   2.535  17.498  0.00  0.00    +0.000 OA
BRANCH  10  13
ATOM     13  N   UNL     1      48.000   4.234  18.960  0.00  0.00    +0.000 NA
ATOM     14  H   UNL     1      48.258   3.667  19.766  0.00  0.00    +0.000 HD
ATOM     15  H   UNL     1      48.584   5.053  18.797  0.00  0.00    +0.000 HD
ENDBRANCH  10  13
ENDBRANCH   7  10
ENDBRANCH   1   4
BRANCH   1  16
ATOM     16  C   UNL     1      46.804   8.299  13.049  0.00  0.00    +0.000 C 
BRANCH  16  17
ATOM     17  O   UNL     1      46.292   8.048  11.736  0.00  0.00    +0.000 OA
BRANCH  17  21
ATOM     18  C   UNL     1      44.040   4.523  11.521  0.00  0.00    +0.000 A 
ATOM     19  C   UNL     1      45.061   4.737  10.584  0.00  0.00    +0.000 A 
ATOM     20  C   UNL     1      45.828   5.903  10.617  0.00  0.00    +0.000 A 
ATOM     21  C   UNL     1      45.596   6.877  11.590  0.00  0.00    +0.000 A 
ATOM     22  C   UNL     1      44.574   6.681  12.516  0.00  0.00    +0.000 A 
ATOM     23  C   UNL     1      43.799   5.516  12.481  0.00  0.00    +0.000 A 
BRANCH  18  24
ATOM     24  C   UNL     1      43.206   3.270  11.472  0.00  0.00    +0.000 C 
BRANCH  24  25
ATOM     25  N   UNL     1      43.588   2.310  12.502  0.00  0.00    +0.000 NA
ATOM     26  H   UNL     1      44.600   2.330  12.614  0.00  0.00    +0.000 HD
ATOM     27  H   UNL     1      43.353   1.370  12.184  0.00  0.00    +0.000 HD
ENDBRANCH  24  25
ENDBRANCH  18  24
ENDBRANCH  17  21
ENDBRANCH  16  17
ENDBRANCH   1  16
TORSDOF 8
ENDMDL
MODEL 8
REMARK VINA RESULT:    -6.171      5.374      6.945
REMARK INTER + INTRA:          -9.504
REMARK INTER:                  -8.917
REMARK INTRA:                  -0.587
REMARK UNBOUND:                -0.807
REMARK  Name = 
REMARK  8 active torsions:
REMARK  status: ('A' for Active; 'I' for Inactive)
REMARK    1  A    between atoms: N_1  and  C_2
REMARK    2  A    between atoms: C_2  and  C_3
REMARK    3  A    between atoms: C_6  and  O_7
REMARK    4  A    between atoms: O_7  and  C_8
REMARK    5  A    between atoms: C_8  and  C_9
REMARK    6  A    between atoms: C_9  and  C_12
REMARK    7  A    between atoms: C_15  and  S_16
REMARK    8  A    between atoms: S_16  and  N_17
REMARK                            x       y       z     vdW  Elec       q    Type
REMARK                         _______ _______ _______ _____ _____    ______ ____
ROOT
ATOM      1  C   UNL     1      48.166   4.549  17.143  0.00  0.00    +0.000 C 
ATOM      2  F   UNL     1      48.296   5.907  17.209  0.00  0.00    +0.000 F 
ATOM      3  F   UNL     1      47.266   4.242  18.133  0.00  0.00    +0.000 F 
ENDROOT
BRANCH   1   4
ATOM      4  C   UNL     1      49.480   3.825  17.355  0.00  0.00    +0.000 A 
ATOM      5  C   UNL     1      50.620   4.505  17.817  0.00  0.00    +0.000 A 
ATOM      6  C   UNL     1      51.817   3.819  18.029  0.00  0.00    +0.000 A 
ATOM      7  C   UNL     1      51.869   2.448  17.771  0.00  0.00    +0.000 A 
ATOM      8  C   UNL     1      50.759   1.763  17.281  0.00  0.00    +0.000 A 
ATOM      9  C   UNL     1      49.566   2.450  17.079  0.00  0.00    +0.000 A 
BRANCH   7  10
ATOM     10  S   UNL     1      53.354   1.553  18.104  0.00  0.00    +0.000 S 
ATOM     11  O   UNL     1      54.193   1.574  16.925  0.00  0.00    +0.000 OA
ATOM     12  O   UNL     1      53.844   1.898  19.415  0.00  0.00    +0.000 OA
BRANCH  10  13
ATOM     13  N   UNL     1      52.737  -0.002  18.220  0.00  0.00    +0.000 NA
ATOM     14  H   UNL     1      51.959  -0.039  18.877  0.00  0.00    +0.000 HD
ATOM     15  H   UNL     1      52.547  -0.385  17.295  0.00  0.00    +0.000 HD
ENDBRANCH  10  13
ENDBRANCH   7  10
ENDBRANCH   1   4
BRANCH   1  16
ATOM     16  C   UNL     1      47.504   4.175  15.811  0.00  0.00    +0.000 C 
BRANCH  16  17
ATOM     17  O   UNL     1      47.917   5.032  14.741  0.00  0.00    +0.000 OA
BRANCH  17  21
ATOM     18  C   UNL     1      45.320   4.842  11.461  0.00  0.00    +0.000 A 
ATOM     19  C   UNL     1      46.105   5.990  11.642  0.00  0.00    +0.000 A 
ATOM     20  C   UNL     1      46.976   6.095  12.728  0.00  0.00    +0.000 A 
ATOM     21  C   UNL     1      47.086   5.054  13.652  0.00  0.00    +0.000 A 
ATOM     22  C   UNL     1      46.299   3.916  13.489  0.00  0.00    +0.000 A 
ATOM     23  C   UNL     1      45.420   3.811  12.406  0.00  0.00    +0.000 A 
BRANCH  18  24
ATOM     24  C   UNL     1      44.371   4.740  10.296  0.00  0.00    +0.000 C 
BRANCH  24  25
ATOM     25  N   UNL     1      43.150   5.510  10.508  0.00  0.00    +0.000 NA
ATOM     26  H   UNL     1      43.064   5.729  11.498  0.00  0.00    +0.000 HD
ATOM     27  H   UNL     1      42.345   4.930  10.271  0.00  0.00    +0.000 HD
ENDBRANCH  24  25
ENDBRANCH  18  24
ENDBRANCH  17  21
ENDBRANCH  16  17
ENDBRANCH   1  16
TORSDOF 8
ENDMDL
MODEL 9
REMARK VINA RESULT:    -6.155      4.542      8.272
REMARK INTER + INTRA:          -9.481
REMARK INTER:                  -8.795
REMARK INTRA:                  -0.686
REMARK UNBOUND:                -0.807
REMARK  Name = 
REMARK  8 active torsions:
REMARK  status: ('A' for Active; 'I' for Inactive)
REMARK    1  A    between atoms: N_1  and  C_2
REMARK    2  A    between atoms: C_2  and  C_3
REMARK    3  A    between atoms: C_6  and  O_7
REMARK    4  A    between atoms: O_7  and  C_8
REMARK    5  A    between atoms: C_8  and  C_9
REMARK    6  A    between atoms: C_9  and  C_12
REMARK    7  A    between atoms: C_15  and  S_16
REMARK    8  A    between atoms: S_16  and  N_17
REMARK                            x       y       z     vdW  Elec       q    Type
REMARK                         _______ _______ _______ _____ _____    ______ ____
ROOT
ATOM      1  C   UNL     1      48.235   7.132  12.902  0.00  0.00    +0.000 C 
ATOM      2  F   UNL     1      48.102   8.326  12.251  0.00  0.00    +0.000 F 
ATOM      3  F   UNL     1      49.448   6.645  12.481  0.00  0.00    +0.000 F 
ENDROOT
BRANCH   1   4
ATOM      4  C   UNL     1      47.116   6.163  12.581  0.00  0.00    +0.000 A 
ATOM      5  C   UNL     1      46.786   5.115  13.457  0.00  0.00    +0.000 A 
ATOM      6  C   UNL     1      45.737   4.243  13.158  0.00  0.00    +0.000 A 
ATOM      7  C   UNL     1      45.023   4.424  11.973  0.00  0.00    +0.000 A 
ATOM      8  C   UNL     1      45.356   5.437  11.075  0.00  0.00    +0.000 A 
ATOM      9  C   UNL     1      46.397   6.307  11.382  0.00  0.00    +0.000 A 
BRANCH   7  10
ATOM     10  S   UNL     1      43.648   3.376  11.615  0.00  0.00    +0.000 S 
ATOM     11  O   UNL     1      43.746   2.918  10.246  0.00  0.00    +0.000 OA
ATOM     12  O   UNL     1      43.421   2.480  12.721  0.00  0.00    +0.000 OA
BRANCH  10  13
ATOM     13  N   UNL     1      42.406   4.502  11.652  0.00  0.00    +0.000 NA
ATOM     14  H   UNL     1      41.670   4.258  10.992  0.00  0.00    +0.000 HD
ATOM     15  H   UNL     1      42.098   4.668  12.609  0.00  0.00    +0.000 HD
ENDBRANCH  10  13
ENDBRANCH   7  10
ENDBRANCH   1   4
BRANCH   1  16
ATOM     16  C   UNL     1      48.363   7.395  14.408  0.00  0.00    +0.000 C 
BRANCH  16  17
ATOM     17  O   UNL     1      49.373   6.582  15.016  0.00  0.00    +0.000 OA
BRANCH  17  21
ATOM     18  C   UNL     1      48.630   5.580  19.013  0.00  0.00    +0.000 A 
ATOM     19  C   UNL     1      49.463   6.671  18.729  0.00  0.00    +0.000 A 
ATOM     20  C   UNL     1      49.742   7.031  17.409  0.00  0.00    +0.000 A 
ATOM     21  C   UNL     1      49.190   6.314  16.347  0.00  0.00    +0.000 A 
ATOM     22  C   UNL     1      48.372   5.219  16.619  0.00  0.00    +0.000 A 
ATOM     23  C   UNL     1      48.097   4.852  17.941  0.00  0.00    +0.000 A 
BRANCH  18  24
ATOM     24  C   UNL     1      48.344   5.187  20.439  0.00  0.00    +0.000 C 
BRANCH  24  25
ATOM     25  N   UNL     1      48.386   3.742  20.634  0.00  0.00    +0.000 NA
ATOM     26  H   UNL     1      48.374   3.542  21.632  0.00  0.00    +0.000 HD
ATOM     27  H   UNL     1      49.273   3.384  20.280  0.00  0.00    +0.000 HD
ENDBRANCH  24  25
ENDBRANCH  18  24
ENDBRANCH  17  21
ENDBRANCH  16  17
ENDBRANCH   1  16
TORSDOF 8
ENDMDL
