MODEL 1
REMARK VINA RESULT:    -9.433      0.000      0.000
REMARK INTER + INTRA:         -13.732
REMARK INTER:                 -13.018
REMARK INTRA:                  -0.715
REMARK UNBOUND:                -0.715
REMARK  Name = 
REMARK  7 active torsions:
REMARK  status: ('A' for Active; 'I' for Inactive)
REMARK    1  A    between atoms: C_2  and  C_4
REMARK    2  A    between atoms: N_8  and  C_9
REMARK    3  A    between atoms: C_9  and  C_10
REMARK    4  A    between atoms: C_10  and  C_13
REMARK    5  A    between atoms: C_15  and  N_16
REMARK    6  A    between atoms: N_16  and  C_17
REMARK    7  A    between atoms: C_19  and  O_20
REMARK                            x       y       z     vdW  Elec       q    Type
REMARK                         _______ _______ _______ _____ _____    ______ ____
ROOT
ATOM      1  C   UNL     1      43.365   5.453  12.171  0.00  0.00    +0.000 C 
ATOM      2  F   UNL     1      42.938   6.674  11.710  0.00  0.00    +0.000 F 
ATOM      3  F   UNL     1      42.511   5.158  13.194  0.00  0.00    +0.000 F 
ENDROOT
BRANCH   1   4
ATOM      4  C   UNL     1      44.807   5.498  12.612  0.00  0.00    +0.000 A 
ATOM      5  C   UNL     1      45.286   4.652  13.628  0.00  0.00    +0.000 A 
ATOM      6  C   UNL     1      46.625   4.697  14.048  0.00  0.00    +0.000 A 
ATOM      7  C   UNL     1      47.495   5.588  13.413  0.00  0.00    +0.000 A 
ATOM      8  C   UNL     1      47.029   6.447  12.415  0.00  0.00    +0.000 A 
ATOM      9  C   UNL     1      45.695   6.395  12.024  0.00  0.00    +0.000 A 
ATOM     10  F   UNL     1      45.271   7.233  11.070  0.00  0.00    +0.000 F 
BRANCH   6  11
ATOM     11  N   UNL     1      47.060   3.756  14.995  0.00  0.00    +0.000 N 
ATOM     12  H   UNL     1      46.580   2.862  14.948  0.00  0.00    +0.000 HD
BRANCH  11  13
ATOM     13  C   UNL     1      47.899   3.967  16.131  0.00  0.00    +0.000 C 
ATOM     14  C   UNL     1      48.492   2.649  16.667  0.00  0.00    +0.000 C 
ATOM     15  C   UNL     1      47.931   2.977  18.061  0.00  0.00    +0.000 C 
ATOM     16  C   UNL     1      47.083   4.096  17.432  0.00  0.00    +0.000 C 
BRANCH  15  17
ATOM     17  O   UNL     1      48.885   3.376  19.068  0.00  0.00    +0.000 OA
ATOM     18  H   UNL     1      48.602   4.253  19.373  0.00  0.00    +0.000 HD
ENDBRANCH  15  17
ENDBRANCH  11  13
ENDBRANCH   6  11
ENDBRANCH   1   4
BRANCH   1  19
ATOM     19  C   UNL     1      43.166   4.435  11.019  0.00  0.00    +0.000 C 
BRANCH  19  24
ATOM     20  C   UNL     1      46.253   2.044   7.895  0.00  0.00    +0.000 A 
ATOM     21  C   UNL     1      46.175   3.336   7.383  0.00  0.00    +0.000 A 
ATOM     22  C   UNL     1      45.374   4.275   8.036  0.00  0.00    +0.000 A 
ATOM     23  C   UNL     1      44.675   3.918   9.188  0.00  0.00    +0.000 A 
ATOM     24  N   UNL     1      43.825   4.864   9.766  0.00  0.00    +0.000 N 
ATOM     25  N   UNL     1      44.740   2.665   9.687  0.00  0.00    +0.000 NA
ATOM     26  C   UNL     1      45.513   1.757   9.031  0.00  0.00    +0.000 A 
ATOM     27  H   UNL     1      44.280   5.769   9.859  0.00  0.00    +0.000 HD
BRANCH  20  29
ATOM     28  N   UNL     1      46.751  -0.318   7.620  0.00  0.00    +0.000 N 
ATOM     29  C   UNL     1      47.047   0.970   7.266  0.00  0.00    +0.000 C 
ATOM     30  O   UNL     1      47.911   1.214   6.436  0.00  0.00    +0.000 OA
ATOM     31  H   UNL     1      47.239  -1.049   7.115  0.00  0.00    +0.000 HD
ATOM     32  H   UNL     1      45.903  -0.572   8.105  0.00  0.00    +0.000 HD
ENDBRANCH  20  29
ENDBRANCH  19  24
ENDBRANCH   1  19
TORSDOF 7
ENDMDL
MODEL 2
REMARK VINA RESULT:    -8.374      1.905      8.341
REMARK INTER + INTRA:         -12.271
REMARK INTER:                 -11.707
REMARK INTRA:                  -0.564
REMARK UNBOUND:                -0.715
REMARK  Name = 
REMARK  7 active torsions:
REMARK  status: ('A' for Active; 'I' for Inactive)
REMARK    1  A    between atoms: C_2  and  C_4
REMARK    2  A    between atoms: N_8  and  C_9
REMARK    3  A    between atoms: C_9  and  C_10
REMARK    4  A    between atoms: C_10  and  C_13
REMARK    5  A    between atoms: C_15  and  N_16
REMARK    6  A    between atoms: N_16  and  C_17
REMARK    7  A    between atoms: C_19  and  O_20
REMARK                            x       y       z     vdW  Elec       q    Type
REMARK                         _______ _______ _______ _____ _____    ______ ____
ROOT
ATOM      1  C   UNL     1      45.343   5.740  12.557  0.00  0.00    +0.000 C 
ATOM      2  F   UNL     1      44.381   5.912  13.522  0.00  0.00    +0.000 F 
ATOM      3  F   UNL     1      45.497   6.979  12.004  0.00  0.00    +0.000 F 
ENDROOT
BRANCH   1   4
ATOM      4  C   UNL     1      44.934   4.699  11.544  0.00  0.00    +0.000 A 
ATOM      5  C   UNL     1      45.327   4.797  10.198  0.00  0.00    +0.000 A 
ATOM      6  C   UNL     1      44.942   3.835   9.249  0.00  0.00    +0.000 A 
ATOM      7  C   UNL     1      44.176   2.747   9.675  0.00  0.00    +0.000 A 
ATOM      8  C   UNL     1      43.763   2.646  11.007  0.00  0.00    +0.000 A 
ATOM      9  C   UNL     1      44.144   3.618  11.926  0.00  0.00    +0.000 A 
ATOM     10  F   UNL     1      43.731   3.502  13.194  0.00  0.00    +0.000 F 
BRANCH   6  11
ATOM     11  N   UNL     1      45.453   3.940   7.946  0.00  0.00    +0.000 N 
ATOM     12  H   UNL     1      44.765   4.207   7.247  0.00  0.00    +0.000 HD
BRANCH  11  13
ATOM     13  C   UNL     1      46.720   3.503   7.455  0.00  0.00    +0.000 C 
ATOM     14  C   UNL     1      46.730   3.361   5.921  0.00  0.00    +0.000 C 
ATOM     15  C   UNL     1      47.222   1.911   6.071  0.00  0.00    +0.000 C 
ATOM     16  C   UNL     1      46.888   1.976   7.570  0.00  0.00    +0.000 C 
BRANCH  15  17
ATOM     17  O   UNL     1      48.600   1.654   5.725  0.00  0.00    +0.000 OA
ATOM     18  H   UNL     1      49.089   2.459   5.960  0.00  0.00    +0.000 HD
ENDBRANCH  15  17
ENDBRANCH  11  13
ENDBRANCH   6  11
ENDBRANCH   1   4
BRANCH   1  19
ATOM     19  C   UNL     1      46.649   5.330  13.283  0.00  0.00    +0.000 C 
BRANCH  19  24
ATOM     20  C   UNL     1      48.965   4.748  17.676  0.00  0.00    +0.000 A 
ATOM     21  C   UNL     1      48.005   3.740  17.655  0.00  0.00    +0.000 A 
ATOM     22  C   UNL     1      47.168   3.625  16.542  0.00  0.00    +0.000 A 
ATOM     23  C   UNL     1      47.308   4.506  15.470  0.00  0.00    +0.000 A 
ATOM     24  N   UNL     1      46.402   4.406  14.411  0.00  0.00    +0.000 N 
ATOM     25  N   UNL     1      48.232   5.489  15.486  0.00  0.00    +0.000 NA
ATOM     26  C   UNL     1      49.029   5.597  16.583  0.00  0.00    +0.000 A 
ATOM     27  H   UNL     1      46.288   3.443  14.104  0.00  0.00    +0.000 HD
BRANCH  20  29
ATOM     28  N   UNL     1      50.829   4.016  19.052  0.00  0.00    +0.000 N 
ATOM     29  C   UNL     1      49.879   4.971  18.814  0.00  0.00    +0.000 C 
ATOM     30  O   UNL     1      49.816   5.984  19.497  0.00  0.00    +0.000 OA
ATOM     31  H   UNL     1      51.506   4.224  19.777  0.00  0.00    +0.000 HD
ATOM     32  H   UNL     1      51.068   3.301  18.381  0.00  0.00    +0.000 HD
ENDBRANCH  20  29
ENDBRANCH  19  24
ENDBRANCH   1  19
TORSDOF 7
ENDMDL
MODEL 3
REMARK VINA RESULT:    -8.152      1.942      2.319
REMARK INTER + INTRA:         -11.965
REMARK INTER:                 -11.578
REMARK INTRA:                  -0.387
REMARK UNBOUND:                -0.715
REMARK  Name = 
REMARK  7 active torsions:
REMARK  status: ('A' for Active; 'I' for Inactive)
REMARK    1  A    between atoms: C_2  and  C_4
REMARK    2  A    between atoms: N_8  and  C_9
REMARK    3  A    between atoms: C_9  and  C_10
REMARK    4  A    between atoms: C_10  and  C_13
REMARK    5  A    between atoms: C_15  and  N_16
REMARK    6  A    between atoms: N_16  and  C_17
REMARK    7  A    between atoms: C_19  and  O_20
REMARK                            x       y       z     vdW  Elec       q    Type
REMARK                         _______ _______ _______ _____ _____    ______ ____
ROOT
ATOM      1  C   UNL     1      43.179   4.927  12.405  0.00  0.00    +0.000 C 
ATOM      2  F   UNL     1      41.946   5.528  12.346  0.00  0.00    +0.000 F 
ATOM      3  F   UNL     1      43.125   4.148  13.524  0.00  0.00    +0.000 F 
ENDROOT
BRANCH   1   4
ATOM      4  C   UNL     1      44.292   5.944  12.458  0.00  0.00    +0.000 A 
ATOM      5  C   UNL     1      45.456   5.712  13.211  0.00  0.00    +0.000 A 
ATOM      6  C   UNL     1      46.491   6.660  13.270  0.00  0.00    +0.000 A 
ATOM      7  C   UNL     1      46.358   7.843  12.537  0.00  0.00    +0.000 A 
ATOM      8  C   UNL     1      45.197   8.094  11.799  0.00  0.00    +0.000 A 
ATOM      9  C   UNL     1      44.179   7.147  11.766  0.00  0.00    +0.000 A 
ATOM     10  F   UNL     1      43.076   7.414  11.056  0.00  0.00    +0.000 F 
BRANCH   6  11
ATOM     11  N   UNL     1      47.668   6.323  13.957  0.00  0.00    +0.000 N 
ATOM     12  H   UNL     1      47.999   5.378  13.781  0.00  0.00    +0.000 HD
BRANCH  11  13
ATOM     13  C   UNL     1      48.307   7.032  15.019  0.00  0.00    +0.000 C 
ATOM     14  C   UNL     1      49.801   7.280  14.734  0.00  0.00    +0.000 C 
ATOM     15  C   UNL     1      50.155   6.618  16.077  0.00  0.00    +0.000 C 
ATOM     16  C   UNL     1      48.712   6.096  16.174  0.00  0.00    +0.000 C 
BRANCH  15  17
ATOM     17  O   UNL     1      50.600   7.494  17.134  0.00  0.00    +0.000 OA
ATOM     18  H   UNL     1      51.521   7.720  16.926  0.00  0.00    +0.000 HD
ENDBRANCH  15  17
ENDBRANCH  11  13
ENDBRANCH   6  11
ENDBRANCH   1   4
BRANCH   1  19
ATOM     19  C   UNL     1      43.307   4.025  11.151  0.00  0.00    +0.000 C 
BRANCH  19  24
ATOM     20  C   UNL     1      46.468   2.322   7.670  0.00  0.00    +0.000 A 
ATOM     21  C   UNL     1      46.410   3.695   7.444  0.00  0.00    +0.000 A 
ATOM     22  C   UNL     1      45.596   4.482   8.260  0.00  0.00    +0.000 A 
ATOM     23  C   UNL     1      44.863   3.894   9.291  0.00  0.00    +0.000 A 
ATOM     24  N   UNL     1      44.003   4.705  10.036  0.00  0.00    +0.000 N 
ATOM     25  N   UNL     1      44.909   2.563   9.514  0.00  0.00    +0.000 NA
ATOM     26  C   UNL     1      45.695   1.808   8.700  0.00  0.00    +0.000 A 
ATOM     27  H   UNL     1      44.459   5.564  10.332  0.00  0.00    +0.000 HD
BRANCH  20  29
ATOM     28  N   UNL     1      48.289   1.942   6.108  0.00  0.00    +0.000 N 
ATOM     29  C   UNL     1      47.275   1.398   6.848  0.00  0.00    +0.000 C 
ATOM     30  O   UNL     1      47.071   0.192   6.852  0.00  0.00    +0.000 OA
ATOM     31  H   UNL     1      48.892   1.290   5.620  0.00  0.00    +0.000 HD
ATOM     32  H   UNL     1      48.639   2.877   6.260  0.00  0.00    +0.000 HD
ENDBRANCH  20  29
ENDBRANCH  19  24
ENDBRANCH   1  19
TORSDOF 7
ENDMDL
MODEL 4
REMARK VINA RESULT:    -7.913      3.778      5.563
REMARK INTER + INTRA:         -11.634
REMARK INTER:                 -11.005
REMARK INTRA:                  -0.629
REMARK UNBOUND:                -0.715
REMARK  Name = 
REMARK  7 active torsions:
REMARK  status: ('A' for Active; 'I' for Inactive)
REMARK    1  A    between atoms: C_2  and  C_4
REMARK    2  A    between atoms: N_8  and  C_9
REMARK    3  A    between atoms: C_9  and  C_10
REMARK    4  A    between atoms: C_10  and  C_13
REMARK    5  A    between atoms: C_15  and  N_16
REMARK    6  A    between atoms: N_16  and  C_17
REMARK    7  A    between atoms: C_19  and  O_20
REMARK                            x       y       z     vdW  Elec       q    Type
REMARK                         _______ _______ _______ _____ _____    ______ ____
ROOT
ATOM      1  C   UNL     1      43.919   5.374  12.343  0.00  0.00    +0.000 C 
ATOM      2  F   UNL     1      42.780   5.755  13.008  0.00  0.00    +0.000 F 
ATOM      3  F   UNL     1      44.375   4.293  13.040  0.00  0.00    +0.000 F 
ENDROOT
BRANCH   1   4
ATOM      4  C   UNL     1      44.929   6.494  12.281  0.00  0.00    +0.000 A 
ATOM      5  C   UNL     1      44.525   7.840  12.300  0.00  0.00    +0.000 A 
ATOM      6  C   UNL     1      45.461   8.886  12.234  0.00  0.00    +0.000 A 
ATOM      7  C   UNL     1      46.820   8.565  12.179  0.00  0.00    +0.000 A 
ATOM      8  C   UNL     1      47.233   7.230  12.142  0.00  0.00    +0.000 A 
ATOM      9  C   UNL     1      46.288   6.211  12.193  0.00  0.00    +0.000 A 
ATOM     10  F   UNL     1      46.710   4.941  12.151  0.00  0.00    +0.000 F 
BRANCH   6  11
ATOM     11  N   UNL     1      44.998  10.206  12.359  0.00  0.00    +0.000 N 
ATOM     12  H   UNL     1      45.210  10.641  13.252  0.00  0.00    +0.000 HD
BRANCH  11  13
ATOM     13  C   UNL     1      44.091  10.909  11.510  0.00  0.00    +0.000 C 
ATOM     14  C   UNL     1      43.180   9.953  10.716  0.00  0.00    +0.000 C 
ATOM     15  C   UNL     1      43.625  10.632   9.409  0.00  0.00    +0.000 C 
ATOM     16  C   UNL     1      44.754  11.332  10.184  0.00  0.00    +0.000 C 
BRANCH  15  17
ATOM     17  O   UNL     1      42.659  11.485   8.759  0.00  0.00    +0.000 OA
ATOM     18  H   UNL     1      42.964  11.584   7.843  0.00  0.00    +0.000 HD
ENDBRANCH  15  17
ENDBRANCH  11  13
ENDBRANCH   6  11
ENDBRANCH   1   4
BRANCH   1  19
ATOM     19  C   UNL     1      43.491   4.930  10.921  0.00  0.00    +0.000 C 
BRANCH  19  24
ATOM     20  C   UNL     1      46.390   2.601   7.578  0.00  0.00    +0.000 A 
ATOM     21  C   UNL     1      45.740   1.570   8.251  0.00  0.00    +0.000 A 
ATOM     22  C   UNL     1      44.842   1.888   9.272  0.00  0.00    +0.000 A 
ATOM     23  C   UNL     1      44.598   3.222   9.597  0.00  0.00    +0.000 A 
ATOM     24  N   UNL     1      43.752   3.495  10.674  0.00  0.00    +0.000 N 
ATOM     25  N   UNL     1      45.228   4.227   8.953  0.00  0.00    +0.000 NA
ATOM     26  C   UNL     1      46.112   3.900   7.972  0.00  0.00    +0.000 A 
ATOM     27  H   UNL     1      42.895   2.949  10.626  0.00  0.00    +0.000 HD
BRANCH  20  29
ATOM     28  N   UNL     1      47.290   3.164   5.393  0.00  0.00    +0.000 N 
ATOM     29  C   UNL     1      47.377   2.371   6.504  0.00  0.00    +0.000 C 
ATOM     30  O   UNL     1      48.261   1.533   6.615  0.00  0.00    +0.000 OA
ATOM     31  H   UNL     1      48.026   3.059   4.704  0.00  0.00    +0.000 HD
ATOM     32  H   UNL     1      46.742   4.011   5.365  0.00  0.00    +0.000 HD
ENDBRANCH  20  29
ENDBRANCH  19  24
ENDBRANCH   1  19
TORSDOF 7
ENDMDL
MODEL 5
REMARK VINA RESULT:    -7.658      3.080      3.651
REMARK INTER + INTRA:         -11.282
REMARK INTER:                 -10.929
REMARK INTRA:                  -0.353
REMARK UNBOUND:                -0.715
REMARK  Name = 
REMARK  7 active torsions:
REMARK  status: ('A' for Active; 'I' for Inactive)
REMARK    1  A    between atoms: C_2  and  C_4
REMARK    2  A    between atoms: N_8  and  C_9
REMARK    3  A    between atoms: C_9  and  C_10
REMARK    4  A    between atoms: C_10  and  C_13
REMARK    5  A    between atoms: C_15  and  N_16
REMARK    6  A    between atoms: N_16  and  C_17
REMARK    7  A    between atoms: C_19  and  O_20
REMARK                            x       y       z     vdW  Elec       q    Type
REMARK                         _______ _______ _______ _____ _____    ______ ____
ROOT
ATOM      1  C   UNL     1      43.784   4.592  12.388  0.00  0.00    +0.000 C 
ATOM      2  F   UNL     1      42.716   4.726  13.240  0.00  0.00    +0.000 F 
ATOM      3  F   UNL     1      44.513   3.565  12.914  0.00  0.00    +0.000 F 
ENDROOT
BRANCH   1   4
ATOM      4  C   UNL     1      44.576   5.873  12.284  0.00  0.00    +0.000 A 
ATOM      5  C   UNL     1      45.916   5.937  12.702  0.00  0.00    +0.000 A 
ATOM      6  C   UNL     1      46.655   7.129  12.616  0.00  0.00    +0.000 A 
ATOM      7  C   UNL     1      46.037   8.259  12.073  0.00  0.00    +0.000 A 
ATOM      8  C   UNL     1      44.700   8.214  11.670  0.00  0.00    +0.000 A 
ATOM      9  C   UNL     1      43.984   7.026  11.778  0.00  0.00    +0.000 A 
ATOM     10  F   UNL     1      42.703   7.010  11.390  0.00  0.00    +0.000 F 
BRANCH   6  11
ATOM     11  N   UNL     1      48.016   7.098  12.956  0.00  0.00    +0.000 N 
ATOM     12  H   UNL     1      48.307   6.255  13.443  0.00  0.00    +0.000 HD
BRANCH  11  13
ATOM     13  C   UNL     1      48.962   8.167  12.917  0.00  0.00    +0.000 C 
ATOM     14  C   UNL     1      49.864   8.097  11.669  0.00  0.00    +0.000 C 
ATOM     15  C   UNL     1      51.104   8.140  12.578  0.00  0.00    +0.000 C 
ATOM     16  C   UNL     1      50.197   7.875  13.791  0.00  0.00    +0.000 C 
BRANCH  15  17
ATOM     17  O   UNL     1      51.859   9.370  12.589  0.00  0.00    +0.000 OA
ATOM     18  H   UNL     1      51.315  10.013  13.072  0.00  0.00    +0.000 HD
ENDBRANCH  15  17
ENDBRANCH  11  13
ENDBRANCH   6  11
ENDBRANCH   1   4
BRANCH   1  19
ATOM     19  C   UNL     1      43.218   4.173  11.008  0.00  0.00    +0.000 C 
BRANCH  19  24
ATOM     20  C   UNL     1      46.472   2.245   7.737  0.00  0.00    +0.000 A 
ATOM     21  C   UNL     1      46.442   3.604   7.436  0.00  0.00    +0.000 A 
ATOM     22  C   UNL     1      45.612   4.444   8.180  0.00  0.00    +0.000 A 
ATOM     23  C   UNL     1      44.836   3.922   9.214  0.00  0.00    +0.000 A 
ATOM     24  N   UNL     1      43.962   4.783   9.883  0.00  0.00    +0.000 N 
ATOM     25  N   UNL     1      44.854   2.605   9.508  0.00  0.00    +0.000 NA
ATOM     26  C   UNL     1      45.657   1.797   8.764  0.00  0.00    +0.000 A 
ATOM     27  H   UNL     1      44.420   5.651  10.149  0.00  0.00    +0.000 HD
BRANCH  20  29
ATOM     28  N   UNL     1      48.275   1.766   6.180  0.00  0.00    +0.000 N 
ATOM     29  C   UNL     1      47.293   1.269   6.993  0.00  0.00    +0.000 C 
ATOM     30  O   UNL     1      47.130   0.064   7.123  0.00  0.00    +0.000 OA
ATOM     31  H   UNL     1      48.889   1.087   5.746  0.00  0.00    +0.000 HD
ATOM     32  H   UNL     1      48.596   2.722   6.229  0.00  0.00    +0.000 HD
ENDBRANCH  20  29
ENDBRANCH  19  24
ENDBRANCH   1  19
TORSDOF 7
ENDMDL
MODEL 6
REMARK VINA RESULT:    -7.276      3.281      7.756
REMARK INTER + INTRA:         -10.755
REMARK INTER:                 -10.061
REMARK INTRA:                  -0.694
REMARK UNBOUND:                -0.715
REMARK  Name = 
REMARK  7 active torsions:
REMARK  status: ('A' for Active; 'I' for Inactive)
REMARK    1  A    between atoms: C_2  and  C_4
REMARK    2  A    between atoms: N_8  and  C_9
REMARK    3  A    between atoms: C_9  and  C_10
REMARK    4  A    between atoms: C_10  and  C_13
REMARK    5  A    between atoms: C_15  and  N_16
REMARK    6  A    between atoms: N_16  and  C_17
REMARK    7  A    between atoms: C_19  and  O_20
REMARK                            x       y       z     vdW  Elec       q    Type
REMARK                         _______ _______ _______ _____ _____    ______ ____
ROOT
ATOM      1  C   UNL     1      45.103   6.289  11.502  0.00  0.00    +0.000 C 
ATOM      2  F   UNL     1      44.057   7.179  11.504  0.00  0.00    +0.000 F 
ATOM      3  F   UNL     1      45.964   6.777  10.563  0.00  0.00    +0.000 F 
ENDROOT
BRANCH   1   4
ATOM      4  C   UNL     1      44.639   4.887  11.193  0.00  0.00    +0.000 A 
ATOM      5  C   UNL     1      45.044   4.227  10.020  0.00  0.00    +0.000 A 
ATOM      6  C   UNL     1      44.607   2.925   9.723  0.00  0.00    +0.000 A 
ATOM      7  C   UNL     1      43.777   2.274  10.639  0.00  0.00    +0.000 A 
ATOM      8  C   UNL     1      43.352   2.925  11.801  0.00  0.00    +0.000 A 
ATOM      9  C   UNL     1      43.785   4.220  12.067  0.00  0.00    +0.000 A 
ATOM     10  F   UNL     1      43.360   4.823  13.184  0.00  0.00    +0.000 F 
BRANCH   6  11
ATOM     11  N   UNL     1      45.130   2.288   8.586  0.00  0.00    +0.000 N 
ATOM     12  H   UNL     1      44.522   1.578   8.188  0.00  0.00    +0.000 HD
BRANCH  11  13
ATOM     13  C   UNL     1      46.462   2.343   8.076  0.00  0.00    +0.000 C 
ATOM     14  C   UNL     1      46.520   2.976   6.672  0.00  0.00    +0.000 C 
ATOM     15  C   UNL     1      47.259   1.731   6.154  0.00  0.00    +0.000 C 
ATOM     16  C   UNL     1      46.896   1.000   7.457  0.00  0.00    +0.000 C 
BRANCH  15  17
ATOM     17  O   UNL     1      48.666   1.884   5.867  0.00  0.00    +0.000 OA
ATOM     18  H   UNL     1      48.736   1.952   4.901  0.00  0.00    +0.000 HD
ENDBRANCH  15  17
ENDBRANCH  11  13
ENDBRANCH   6  11
ENDBRANCH   1   4
BRANCH   1  19
ATOM     19  C   UNL     1      45.766   6.362  12.901  0.00  0.00    +0.000 C 
BRANCH  19  24
ATOM     20  C   UNL     1      50.177   8.682  13.302  0.00  0.00    +0.000 A 
ATOM     21  C   UNL     1      49.249   9.624  13.738  0.00  0.00    +0.000 A 
ATOM     22  C   UNL     1      47.895   9.286  13.748  0.00  0.00    +0.000 A 
ATOM     23  C   UNL     1      47.488   8.017  13.335  0.00  0.00    +0.000 A 
ATOM     24  N   UNL     1      46.119   7.746  13.288  0.00  0.00    +0.000 N 
ATOM     25  N   UNL     1      48.381   7.101  12.906  0.00  0.00    +0.000 NA
ATOM     26  C   UNL     1      49.695   7.450  12.888  0.00  0.00    +0.000 A 
ATOM     27  H   UNL     1      45.648   8.041  14.140  0.00  0.00    +0.000 HD
BRANCH  20  29
ATOM     28  N   UNL     1      52.471   7.918  13.540  0.00  0.00    +0.000 N 
ATOM     29  C   UNL     1      51.628   8.948  13.227  0.00  0.00    +0.000 C 
ATOM     30  O   UNL     1      52.062  10.033  12.865  0.00  0.00    +0.000 OA
ATOM     31  H   UNL     1      53.460   8.084  13.397  0.00  0.00    +0.000 HD
ATOM     32  H   UNL     1      52.163   6.959  13.606  0.00  0.00    +0.000 HD
ENDBRANCH  20  29
ENDBRANCH  19  24
ENDBRANCH   1  19
TORSDOF 7
ENDMDL
MODEL 7
REMARK VINA RESULT:    -7.096      1.829      7.981
REMARK INTER + INTRA:         -10.507
REMARK INTER:                 -10.523
REMARK INTRA:                   0.016
REMARK UNBOUND:                -0.715
REMARK  Name = 
REMARK  7 active torsions:
REMARK  status: ('A' for Active; 'I' for Inactive)
REMARK    1  A    between atoms: C_2  and  C_4
REMARK    2  A    between atoms: N_8  and  C_9
REMARK    3  A    between atoms: C_9  and  C_10
REMARK    4  A    between atoms: C_10  and  C_13
REMARK    5  A    between atoms: C_15  and  N_16
REMARK    6  A    between atoms: N_16  and  C_17
REMARK    7  A    between atoms: C_19  and  O_20
REMARK                            x       y       z     vdW  Elec       q    Type
REMARK                         _______ _______ _______ _____ _____    ______ ____
ROOT
ATOM      1  C   UNL     1      44.768   4.636  12.962  0.00  0.00    +0.000 C 
ATOM      2  F   UNL     1      43.749   3.738  13.169  0.00  0.00    +0.000 F 
ATOM      3  F   UNL     1      44.291   5.813  13.462  0.00  0.00    +0.000 F 
ENDROOT
BRANCH   1   4
ATOM      4  C   UNL     1      45.135   4.732  11.501  0.00  0.00    +0.000 A 
ATOM      5  C   UNL     1      45.007   3.626  10.643  0.00  0.00    +0.000 A 
ATOM      6  C   UNL     1      45.356   3.708   9.285  0.00  0.00    +0.000 A 
ATOM      7  C   UNL     1      45.813   4.931   8.785  0.00  0.00    +0.000 A 
ATOM      8  C   UNL     1      45.963   6.033   9.631  0.00  0.00    +0.000 A 
ATOM      9  C   UNL     1      45.624   5.925  10.976  0.00  0.00    +0.000 A 
ATOM     10  F   UNL     1      45.782   6.994  11.767  0.00  0.00    +0.000 F 
BRANCH   6  11
ATOM     11  N   UNL     1      45.108   2.598   8.463  0.00  0.00    +0.000 N 
ATOM     12  H   UNL     1      44.446   1.930   8.849  0.00  0.00    +0.000 HD
BRANCH  11  13
ATOM     13  C   UNL     1      45.821   2.183   7.298  0.00  0.00    +0.000 C 
ATOM     14  C   UNL     1      46.929   1.164   7.629  0.00  0.00    +0.000 C 
ATOM     15  C   UNL     1      47.953   2.065   6.919  0.00  0.00    +0.000 C 
ATOM     16  C   UNL     1      46.912   3.196   6.898  0.00  0.00    +0.000 C 
BRANCH  15  17
ATOM     17  O   UNL     1      48.442   1.610   5.639  0.00  0.00    +0.000 OA
ATOM     18  H   UNL     1      47.724   1.084   5.251  0.00  0.00    +0.000 HD
ENDBRANCH  15  17
ENDBRANCH  11  13
ENDBRANCH   6  11
ENDBRANCH   1   4
BRANCH   1  19
ATOM     19  C   UNL     1      45.974   4.162  13.811  0.00  0.00    +0.000 C 
BRANCH  19  24
ATOM     20  C   UNL     1      49.386   4.505  17.451  0.00  0.00    +0.000 A 
ATOM     21  C   UNL     1      49.302   5.794  16.932  0.00  0.00    +0.000 A 
ATOM     22  C   UNL     1      48.422   6.043  15.877  0.00  0.00    +0.000 A 
ATOM     23  C   UNL     1      47.636   5.012  15.365  0.00  0.00    +0.000 A 
ATOM     24  N   UNL     1      46.825   5.286  14.260  0.00  0.00    +0.000 N 
ATOM     25  N   UNL     1      47.716   3.758  15.858  0.00  0.00    +0.000 NA
ATOM     26  C   UNL     1      48.589   3.528  16.875  0.00  0.00    +0.000 A 
ATOM     27  H   UNL     1      46.295   6.145  14.387  0.00  0.00    +0.000 HD
BRANCH  20  29
ATOM     28  N   UNL     1      51.104   3.038  18.346  0.00  0.00    +0.000 N 
ATOM     29  C   UNL     1      50.304   4.130  18.545  0.00  0.00    +0.000 C 
ATOM     30  O   UNL     1      50.374   4.786  19.575  0.00  0.00    +0.000 OA
ATOM     31  H   UNL     1      51.792   2.846  19.065  0.00  0.00    +0.000 HD
ATOM     32  H   UNL     1      51.249   2.624  17.437  0.00  0.00    +0.000 HD
ENDBRANCH  20  29
ENDBRANCH  19  24
ENDBRANCH   1  19
TORSDOF 7
ENDMDL
MODEL 8
REMARK VINA RESULT:    -7.054      3.973      7.443
REMARK INTER + INTRA:         -10.449
REMARK INTER:                  -9.250
REMARK INTRA:                  -1.199
REMARK UNBOUND:                -0.715
REMARK  Name = 
REMARK  7 active torsions:
REMARK  status: ('A' for Active; 'I' for Inactive)
REMARK    1  A    between atoms: C_2  and  C_4
REMARK    2  A    between atoms: N_8  and  C_9
REMARK    3  A    between atoms: C_9  and  C_10
REMARK    4  A    between atoms: C_10  and  C_13
REMARK    5  A    between atoms: C_15  and  N_16
REMARK    6  A    between atoms: N_16  and  C_17
REMARK    7  A    between atoms: C_19  and  O_20
REMARK                            x       y       z     vdW  Elec       q    Type
REMARK                         _______ _______ _______ _____ _____    ______ ____
ROOT
ATOM      1  C   UNL     1      48.338   8.990  12.432  0.00  0.00    +0.000 C 
ATOM      2  F   UNL     1      48.642   9.783  13.511  0.00  0.00    +0.000 F 
ATOM      3  F   UNL     1      49.186   9.412  11.450  0.00  0.00    +0.000 F 
ENDROOT
BRANCH   1   4
ATOM      4  C   UNL     1      46.886   9.117  12.040  0.00  0.00    +0.000 A 
ATOM      5  C   UNL     1      46.063   7.984  11.915  0.00  0.00    +0.000 A 
ATOM      6  C   UNL     1      44.714   8.096  11.542  0.00  0.00    +0.000 A 
ATOM      7  C   UNL     1      44.185   9.371  11.322  0.00  0.00    +0.000 A 
ATOM      8  C   UNL     1      44.996  10.504  11.425  0.00  0.00    +0.000 A 
ATOM      9  C   UNL     1      46.334  10.368  11.782  0.00  0.00    +0.000 A 
ATOM     10  F   UNL     1      47.091  11.468  11.868  0.00  0.00    +0.000 F 
BRANCH   6  11
ATOM     11  N   UNL     1      43.924   6.935  11.535  0.00  0.00    +0.000 N 
ATOM     12  H   UNL     1      43.002   7.059  11.125  0.00  0.00    +0.000 HD
BRANCH  11  13
ATOM     13  C   UNL     1      44.154   5.704  12.220  0.00  0.00    +0.000 C 
ATOM     14  C   UNL     1      44.594   4.580  11.262  0.00  0.00    +0.000 C 
ATOM     15  C   UNL     1      43.449   3.699  11.789  0.00  0.00    +0.000 C 
ATOM     16  C   UNL     1      42.844   4.934  12.476  0.00  0.00    +0.000 C 
BRANCH  15  17
ATOM     17  O   UNL     1      43.820   2.597  12.645  0.00  0.00    +0.000 OA
ATOM     18  H   UNL     1      43.971   1.840  12.057  0.00  0.00    +0.000 HD
ENDBRANCH  15  17
ENDBRANCH  11  13
ENDBRANCH   6  11
ENDBRANCH   1   4
BRANCH   1  19
ATOM     19  C   UNL     1      48.684   7.531  12.826  0.00  0.00    +0.000 C 
BRANCH  19  24
ATOM     20  C   UNL     1      47.969   4.574  16.794  0.00  0.00    +0.000 A 
ATOM     21  C   UNL     1      48.976   5.449  17.192  0.00  0.00    +0.000 A 
ATOM     22  C   UNL     1      49.422   6.421  16.294  0.00  0.00    +0.000 A 
ATOM     23  C   UNL     1      48.852   6.513  15.024  0.00  0.00    +0.000 A 
ATOM     24  N   UNL     1      49.378   7.448  14.130  0.00  0.00    +0.000 N 
ATOM     25  N   UNL     1      47.879   5.664  14.629  0.00  0.00    +0.000 NA
ATOM     26  C   UNL     1      47.467   4.713  15.510  0.00  0.00    +0.000 A 
ATOM     27  H   UNL     1      49.493   8.360  14.566  0.00  0.00    +0.000 HD
BRANCH  20  29
ATOM     28  N   UNL     1      48.136   3.223  18.807  0.00  0.00    +0.000 N 
ATOM     29  C   UNL     1      47.447   3.494  17.656  0.00  0.00    +0.000 C 
ATOM     30  O   UNL     1      46.423   2.888  17.375  0.00  0.00    +0.000 OA
ATOM     31  H   UNL     1      47.719   2.545  19.433  0.00  0.00    +0.000 HD
ATOM     32  H   UNL     1      48.831   3.847  19.189  0.00  0.00    +0.000 HD
ENDBRANCH  20  29
ENDBRANCH  19  24
ENDBRANCH   1  19
TORSDOF 7
ENDMDL
MODEL 9
REMARK VINA RESULT:    -6.632      3.531      5.006
REMARK INTER + INTRA:          -9.867
REMARK INTER:                  -8.629
REMARK INTRA:                  -1.238
REMARK UNBOUND:                -0.715
REMARK  Name = 
REMARK  7 active torsions:
REMARK  status: ('A' for Active; 'I' for Inactive)
REMARK    1  A    between atoms: C_2  and  C_4
REMARK    2  A    between atoms: N_8  and  C_9
REMARK    3  A    between atoms: C_9  and  C_10
REMARK    4  A    between atoms: C_10  and  C_13
REMARK    5  A    between atoms: C_15  and  N_16
REMARK    6  A    between atoms: N_16  and  C_17
REMARK    7  A    between atoms: C_19  and  O_20
REMARK                            x       y       z     vdW  Elec       q    Type
REMARK                         _______ _______ _______ _____ _____    ______ ____
ROOT
ATOM      1  C   UNL     1      48.159   8.928  13.217  0.00  0.00    +0.000 C 
ATOM      2  F   UNL     1      48.276   8.526  11.909  0.00  0.00    +0.000 F 
ATOM      3  F   UNL     1      48.241  10.289  13.163  0.00  0.00    +0.000 F 
ENDROOT
BRANCH   1   4
ATOM      4  C   UNL     1      49.230   8.315  14.085  0.00  0.00    +0.000 A 
ATOM      5  C   UNL     1      48.903   7.479  15.166  0.00  0.00    +0.000 A 
ATOM      6  C   UNL     1      49.896   6.913  15.982  0.00  0.00    +0.000 A 
ATOM      7  C   UNL     1      51.236   7.174  15.682  0.00  0.00    +0.000 A 
ATOM      8  C   UNL     1      51.575   8.019  14.621  0.00  0.00    +0.000 A 
ATOM      9  C   UNL     1      50.574   8.579  13.835  0.00  0.00    +0.000 A 
ATOM     10  F   UNL     1      50.925   9.389  12.828  0.00  0.00    +0.000 F 
BRANCH   6  11
ATOM     11  N   UNL     1      49.505   6.008  16.981  0.00  0.00    +0.000 N 
ATOM     12  H   UNL     1      50.270   5.656  17.550  0.00  0.00    +0.000 HD
BRANCH  11  13
ATOM     13  C   UNL     1      48.244   5.358  17.141  0.00  0.00    +0.000 C 
ATOM     14  C   UNL     1      48.200   4.479  18.406  0.00  0.00    +0.000 C 
ATOM     15  C   UNL     1      47.770   3.280  17.544  0.00  0.00    +0.000 C 
ATOM     16  C   UNL     1      48.141   4.081  16.285  0.00  0.00    +0.000 C 
BRANCH  15  17
ATOM     17  O   UNL     1      46.395   2.856  17.661  0.00  0.00    +0.000 OA
ATOM     18  H   UNL     1      46.000   3.416  18.347  0.00  0.00    +0.000 HD
ENDBRANCH  15  17
ENDBRANCH  11  13
ENDBRANCH   6  11
ENDBRANCH   1   4
BRANCH   1  19
ATOM     19  C   UNL     1      46.745   8.512  13.698  0.00  0.00    +0.000 C 
BRANCH  19  24
ATOM     20  C   UNL     1      44.394   4.440  11.995  0.00  0.00    +0.000 A 
ATOM     21  C   UNL     1      44.042   5.445  11.097  0.00  0.00    +0.000 A 
ATOM     22  C   UNL     1      44.541   6.734  11.294  0.00  0.00    +0.000 A 
ATOM     23  C   UNL     1      45.386   6.999  12.371  0.00  0.00    +0.000 A 
ATOM     24  N   UNL     1      45.802   8.318  12.575  0.00  0.00    +0.000 N 
ATOM     25  N   UNL     1      45.727   6.033  13.249  0.00  0.00    +0.000 NA
ATOM     26  C   UNL     1      45.221   4.785  13.052  0.00  0.00    +0.000 A 
ATOM     27  H   UNL     1      46.133   8.745  11.713  0.00  0.00    +0.000 HD
BRANCH  20  29
ATOM     28  N   UNL     1      44.062   2.417  10.693  0.00  0.00    +0.000 N 
ATOM     29  C   UNL     1      43.899   3.053  11.893  0.00  0.00    +0.000 C 
ATOM     30  O   UNL     1      43.397   2.480  12.850  0.00  0.00    +0.000 OA
ATOM     31  H   UNL     1      43.801   1.438  10.662  0.00  0.00    +0.000 HD
ATOM     32  H   UNL     1      44.675   2.760   9.969  0.00  0.00    +0.000 HD
ENDBRANCH  20  29
ENDBRANCH  19  24
ENDBRANCH   1  19
TORSDOF 7
ENDMDL
