MODEL 1
REMARK VINA RESULT:    -8.474      0.000      0.000
REMARK INTER + INTRA:         -12.393
REMARK INTER:                 -11.446
REMARK INTRA:                  -0.947
REMARK UNBOUND:                -0.947
REMARK  Name = 
REMARK  6 active torsions:
REMARK  status: ('A' for Active; 'I' for Inactive)
REMARK    1  A    between atoms: C_2  and  C_4
REMARK    2  A    between atoms: C_7  and  N_8
REMARK    3  A    between atoms: N_8  and  C_9
REMARK    4  A    between atoms: C_9  and  C_10
REMARK    5  A    between atoms: C_10  and  C_11
REMARK    6  A    between atoms: C_15  and  C_16
REMARK                            x       y       z     vdW  Elec       q    Type
REMARK                         _______ _______ _______ _____ _____    ______ ____
ROOT
ATOM      1  C   UNL     1      43.038   4.365  11.169  0.00  0.00    +0.000 C 
ENDROOT
BRANCH   1   2
ATOM      2  N   UNL     1      43.754   4.854   9.994  0.00  0.00    +0.000 N 
ATOM      3  H   UNL     1      43.212   5.465   9.384  0.00  0.00    +0.000 HD
BRANCH   2   7
ATOM      4  C   UNL     1      46.348   2.310   7.836  0.00  0.00    +0.000 A 
ATOM      5  C   UNL     1      45.452   1.759   8.754  0.00  0.00    +0.000 A 
ATOM      6  C   UNL     1      44.580   2.591   9.467  0.00  0.00    +0.000 A 
ATOM      7  C   UNL     1      44.559   3.976   9.263  0.00  0.00    +0.000 A 
ATOM      8  C   UNL     1      45.490   4.515   8.360  0.00  0.00    +0.000 A 
ATOM      9  C   UNL     1      46.378   3.694   7.656  0.00  0.00    +0.000 A 
BRANCH   4  11
ATOM     10  N   UNL     1      48.402   2.075   6.554  0.00  0.00    +0.000 N 
ATOM     11  C   UNL     1      47.296   1.459   7.074  0.00  0.00    +0.000 C 
ATOM     12  O   UNL     1      47.122   0.254   6.944  0.00  0.00    +0.000 OA
ATOM     13  H   UNL     1      49.092   1.472   6.124  0.00  0.00    +0.000 HD
ATOM     14  H   UNL     1      48.701   2.990   6.857  0.00  0.00    +0.000 HD
ENDBRANCH   4  11
ENDBRANCH   2   7
ENDBRANCH   1   2
BRANCH   1  15
ATOM     15  C   UNL     1      43.221   5.311  12.357  0.00  0.00    +0.000 C 
BRANCH  15  16
ATOM     16  C   UNL     1      44.679   5.459  12.702  0.00  0.00    +0.000 A 
ATOM     17  C   UNL     1      45.408   4.393  13.214  0.00  0.00    +0.000 A 
ATOM     18  N   UNL     1      46.703   4.474  13.585  0.00  0.00    +0.000 NA
ATOM     19  C   UNL     1      47.306   5.675  13.442  0.00  0.00    +0.000 A 
ATOM     20  C   UNL     1      46.679   6.815  12.948  0.00  0.00    +0.000 A 
ATOM     21  C   UNL     1      45.334   6.688  12.578  0.00  0.00    +0.000 A 
BRANCH  20  22
ATOM     22  C   UNL     1      47.436   8.118  12.812  0.00  0.00    +0.000 C 
ATOM     23  C   UNL     1      46.519   9.286  12.415  0.00  0.00    +0.000 C 
ATOM     24  C   UNL     1      47.332  10.550  12.167  0.00  0.00    +0.000 C 
ATOM     25  O   UNL     1      48.342  10.312  11.188  0.00  0.00    +0.000 OA
ATOM     26  C   UNL     1      49.287   9.333  11.615  0.00  0.00    +0.000 C 
ATOM     27  C   UNL     1      48.605   7.989  11.824  0.00  0.00    +0.000 C 
ENDBRANCH  20  22
ENDBRANCH  15  16
ENDBRANCH   1  15
TORSDOF 6
ENDMDL
MODEL 2
REMARK VINA RESULT:    -7.880      1.705      2.262
REMARK INTER + INTRA:         -11.591
REMARK INTER:                 -11.094
REMARK INTRA:                  -0.497
REMARK UNBOUND:                -0.947
REMARK  Name = 
REMARK  6 active torsions:
REMARK  status: ('A' for Active; 'I' for Inactive)
REMARK    1  A    between atoms: C_2  and  C_4
REMARK    2  A    between atoms: C_7  and  N_8
REMARK    3  A    between atoms: N_8  and  C_9
REMARK    4  A    between atoms: C_9  and  C_10
REMARK    5  A    between atoms: C_10  and  C_11
REMARK    6  A    between atoms: C_15  and  C_16
REMARK                            x       y       z     vdW  Elec       q    Type
REMARK                         _______ _______ _______ _____ _____    ______ ____
ROOT
ATOM      1  C   UNL     1      43.536   2.969  11.707  0.00  0.00    +0.000 C 
ENDROOT
BRANCH   1   2
ATOM      2  N   UNL     1      43.588   3.692  10.439  0.00  0.00    +0.000 N 
ATOM      3  H   UNL     1      42.688   3.815   9.978  0.00  0.00    +0.000 HD
BRANCH   2   7
ATOM      4  C   UNL     1      46.537   2.681   7.586  0.00  0.00    +0.000 A 
ATOM      5  C   UNL     1      46.183   4.020   7.764  0.00  0.00    +0.000 A 
ATOM      6  C   UNL     1      45.216   4.368   8.714  0.00  0.00    +0.000 A 
ATOM      7  C   UNL     1      44.604   3.404   9.523  0.00  0.00    +0.000 A 
ATOM      8  C   UNL     1      44.949   2.060   9.308  0.00  0.00    +0.000 A 
ATOM      9  C   UNL     1      45.902   1.699   8.349  0.00  0.00    +0.000 A 
BRANCH   4  11
ATOM     10  N   UNL     1      47.531   2.935   5.380  0.00  0.00    +0.000 N 
ATOM     11  C   UNL     1      47.549   2.275   6.579  0.00  0.00    +0.000 C 
ATOM     12  O   UNL     1      48.388   1.415   6.816  0.00  0.00    +0.000 OA
ATOM     13  H   UNL     1      48.284   2.723   4.739  0.00  0.00    +0.000 HD
ATOM     14  H   UNL     1      47.034   3.804   5.252  0.00  0.00    +0.000 HD
ENDBRANCH   4  11
ENDBRANCH   2   7
ENDBRANCH   1   2
BRANCH   1  15
ATOM     15  C   UNL     1      43.591   3.933  12.893  0.00  0.00    +0.000 C 
BRANCH  15  16
ATOM     16  C   UNL     1      44.357   5.178  12.534  0.00  0.00    +0.000 A 
ATOM     17  C   UNL     1      43.743   6.235  11.873  0.00  0.00    +0.000 A 
ATOM     18  N   UNL     1      44.386   7.356  11.483  0.00  0.00    +0.000 NA
ATOM     19  C   UNL     1      45.706   7.433  11.763  0.00  0.00    +0.000 A 
ATOM     20  C   UNL     1      46.431   6.438  12.414  0.00  0.00    +0.000 A 
ATOM     21  C   UNL     1      45.726   5.290  12.797  0.00  0.00    +0.000 A 
BRANCH  20  22
ATOM     22  C   UNL     1      47.907   6.614  12.696  0.00  0.00    +0.000 C 
ATOM     23  C   UNL     1      48.174   7.059  14.142  0.00  0.00    +0.000 C 
ATOM     24  C   UNL     1      49.655   7.346  14.354  0.00  0.00    +0.000 C 
ATOM     25  O   UNL     1      50.119   8.309  13.409  0.00  0.00    +0.000 OA
ATOM     26  C   UNL     1      50.013   7.840  12.066  0.00  0.00    +0.000 C 
ATOM     27  C   UNL     1      48.557   7.589  11.702  0.00  0.00    +0.000 C 
ENDBRANCH  20  22
ENDBRANCH  15  16
ENDBRANCH   1  15
TORSDOF 6
ENDMDL
MODEL 3
REMARK VINA RESULT:    -7.695      2.550      3.529
REMARK INTER + INTRA:         -11.341
REMARK INTER:                 -10.474
REMARK INTRA:                  -0.866
REMARK UNBOUND:                -0.947
REMARK  Name = 
REMARK  6 active torsions:
REMARK  status: ('A' for Active; 'I' for Inactive)
REMARK    1  A    between atoms: C_2  and  C_4
REMARK    2  A    between atoms: C_7  and  N_8
REMARK    3  A    between atoms: N_8  and  C_9
REMARK    4  A    between atoms: C_9  and  C_10
REMARK    5  A    between atoms: C_10  and  C_11
REMARK    6  A    between atoms: C_15  and  C_16
REMARK                            x       y       z     vdW  Elec       q    Type
REMARK                         _______ _______ _______ _____ _____    ______ ____
ROOT
ATOM      1  C   UNL     1      43.383   4.786  10.869  0.00  0.00    +0.000 C 
ENDROOT
BRANCH   1   2
ATOM      2  N   UNL     1      43.860   3.432  10.606  0.00  0.00    +0.000 N 
ATOM      3  H   UNL     1      44.175   2.920  11.429  0.00  0.00    +0.000 HD
BRANCH   2   7
ATOM      4  C   UNL     1      46.481   2.856   7.341  0.00  0.00    +0.000 A 
ATOM      5  C   UNL     1      46.056   1.753   8.084  0.00  0.00    +0.000 A 
ATOM      6  C   UNL     1      45.180   1.929   9.161  0.00  0.00    +0.000 A 
ATOM      7  C   UNL     1      44.685   3.194   9.503  0.00  0.00    +0.000 A 
ATOM      8  C   UNL     1      45.148   4.295   8.764  0.00  0.00    +0.000 A 
ATOM      9  C   UNL     1      46.039   4.131   7.697  0.00  0.00    +0.000 A 
BRANCH   4  11
ATOM     10  N   UNL     1      48.710   2.359   6.502  0.00  0.00    +0.000 N 
ATOM     11  C   UNL     1      47.421   2.706   6.202  0.00  0.00    +0.000 C 
ATOM     12  O   UNL     1      47.057   2.848   5.041  0.00  0.00    +0.000 OA
ATOM     13  H   UNL     1      49.316   2.161   5.717  0.00  0.00    +0.000 HD
ATOM     14  H   UNL     1      48.971   1.989   7.404  0.00  0.00    +0.000 HD
ENDBRANCH   4  11
ENDBRANCH   2   7
ENDBRANCH   1   2
BRANCH   1  15
ATOM     15  C   UNL     1      43.602   5.172  12.334  0.00  0.00    +0.000 C 
BRANCH  15  16
ATOM     16  C   UNL     1      45.025   5.608  12.564  0.00  0.00    +0.000 A 
ATOM     17  C   UNL     1      45.676   6.440  11.662  0.00  0.00    +0.000 A 
ATOM     18  N   UNL     1      46.963   6.828  11.788  0.00  0.00    +0.000 NA
ATOM     19  C   UNL     1      47.638   6.367  12.865  0.00  0.00    +0.000 A 
ATOM     20  C   UNL     1      47.095   5.526  13.831  0.00  0.00    +0.000 A 
ATOM     21  C   UNL     1      45.759   5.144  13.660  0.00  0.00    +0.000 A 
BRANCH  20  22
ATOM     22  C   UNL     1      47.923   5.067  15.012  0.00  0.00    +0.000 C 
ATOM     23  C   UNL     1      47.120   4.182  15.978  0.00  0.00    +0.000 C 
ATOM     24  C   UNL     1      47.946   3.844  17.213  0.00  0.00    +0.000 C 
ATOM     25  O   UNL     1      48.412   5.034  17.846  0.00  0.00    +0.000 OA
ATOM     26  C   UNL     1      49.282   5.787  17.004  0.00  0.00    +0.000 C 
ATOM     27  C   UNL     1      48.545   6.257  15.759  0.00  0.00    +0.000 C 
ENDBRANCH  20  22
ENDBRANCH  15  16
ENDBRANCH   1  15
TORSDOF 6
ENDMDL
MODEL 4
REMARK VINA RESULT:    -7.380      3.082      7.628
REMARK INTER + INTRA:         -10.916
REMARK INTER:                 -10.235
REMARK INTRA:                  -0.682
REMARK UNBOUND:                -0.947
REMARK  Name = 
REMARK  6 active torsions:
REMARK  status: ('A' for Active; 'I' for Inactive)
REMARK    1  A    between atoms: C_2  and  C_4
REMARK    2  A    between atoms: C_7  and  N_8
REMARK    3  A    between atoms: N_8  and  C_9
REMARK    4  A    between atoms: C_9  and  C_10
REMARK    5  A    between atoms: C_10  and  C_11
REMARK    6  A    between atoms: C_15  and  C_16
REMARK                            x       y       z     vdW  Elec       q    Type
REMARK                         _______ _______ _______ _____ _____    ______ ____
ROOT
ATOM      1  C   UNL     1      45.732   6.695  12.527  0.00  0.00    +0.000 C 
ENDROOT
BRANCH   1   2
ATOM      2  N   UNL     1      47.113   6.298  12.782  0.00  0.00    +0.000 N 
ATOM      3  H   UNL     1      47.576   5.831  12.003  0.00  0.00    +0.000 HD
BRANCH   2   7
ATOM      4  C   UNL     1      48.065   4.703  16.578  0.00  0.00    +0.000 A 
ATOM      5  C   UNL     1      47.241   3.978  15.715  0.00  0.00    +0.000 A 
ATOM      6  C   UNL     1      46.927   4.491  14.451  0.00  0.00    +0.000 A 
ATOM      7  C   UNL     1      47.447   5.713  14.007  0.00  0.00    +0.000 A 
ATOM      8  C   UNL     1      48.247   6.442  14.901  0.00  0.00    +0.000 A 
ATOM      9  C   UNL     1      48.552   5.947  16.174  0.00  0.00    +0.000 A 
BRANCH   4  11
ATOM     10  N   UNL     1      47.701   4.711  18.983  0.00  0.00    +0.000 N 
ATOM     11  C   UNL     1      48.407   4.195  17.930  0.00  0.00    +0.000 C 
ATOM     12  O   UNL     1      49.253   3.328  18.100  0.00  0.00    +0.000 OA
ATOM     13  H   UNL     1      47.869   4.288  19.887  0.00  0.00    +0.000 HD
ATOM     14  H   UNL     1      46.840   5.222  18.855  0.00  0.00    +0.000 HD
ENDBRANCH   4  11
ENDBRANCH   2   7
ENDBRANCH   1   2
BRANCH   1  15
ATOM     15  C   UNL     1      45.436   6.726  11.026  0.00  0.00    +0.000 C 
BRANCH  15  16
ATOM     16  C   UNL     1      44.975   5.376  10.545  0.00  0.00    +0.000 A 
ATOM     17  C   UNL     1      43.962   4.687  11.200  0.00  0.00    +0.000 A 
ATOM     18  N   UNL     1      43.536   3.456  10.846  0.00  0.00    +0.000 NA
ATOM     19  C   UNL     1      44.147   2.879   9.788  0.00  0.00    +0.000 A 
ATOM     20  C   UNL     1      45.176   3.467   9.057  0.00  0.00    +0.000 A 
ATOM     21  C   UNL     1      45.589   4.742   9.461  0.00  0.00    +0.000 A 
BRANCH  20  22
ATOM     22  C   UNL     1      45.795   2.750   7.877  0.00  0.00    +0.000 C 
ATOM     23  C   UNL     1      46.291   1.342   8.246  0.00  0.00    +0.000 C 
ATOM     24  C   UNL     1      47.018   0.701   7.071  0.00  0.00    +0.000 C 
ATOM     25  O   UNL     1      48.082   1.538   6.622  0.00  0.00    +0.000 OA
ATOM     26  C   UNL     1      47.612   2.793   6.136  0.00  0.00    +0.000 C 
ATOM     27  C   UNL     1      46.929   3.575   7.249  0.00  0.00    +0.000 C 
ENDBRANCH  20  22
ENDBRANCH  15  16
ENDBRANCH   1  15
TORSDOF 6
ENDMDL
MODEL 5
REMARK VINA RESULT:    -7.084      2.135      6.791
REMARK INTER + INTRA:         -10.515
REMARK INTER:                  -9.648
REMARK INTRA:                  -0.868
REMARK UNBOUND:                -0.947
REMARK  Name = 
REMARK  6 active torsions:
REMARK  status: ('A' for Active; 'I' for Inactive)
REMARK    1  A    between atoms: C_2  and  C_4
REMARK    2  A    between atoms: C_7  and  N_8
REMARK    3  A    between atoms: N_8  and  C_9
REMARK    4  A    between atoms: C_9  and  C_10
REMARK    5  A    between atoms: C_10  and  C_11
REMARK    6  A    between atoms: C_15  and  C_16
REMARK                            x       y       z     vdW  Elec       q    Type
REMARK                         _______ _______ _______ _____ _____    ______ ____
ROOT
ATOM      1  C   UNL     1      44.536   6.579  12.729  0.00  0.00    +0.000 C 
ENDROOT
BRANCH   1   2
ATOM      2  N   UNL     1      45.349   7.748  13.055  0.00  0.00    +0.000 N 
ATOM      3  H   UNL     1      44.880   8.644  12.931  0.00  0.00    +0.000 HD
BRANCH   2   7
ATOM      4  C   UNL     1      49.403   8.062  11.906  0.00  0.00    +0.000 A 
ATOM      5  C   UNL     1      48.910   6.837  12.357  0.00  0.00    +0.000 A 
ATOM      6  C   UNL     1      47.566   6.717  12.730  0.00  0.00    +0.000 A 
ATOM      7  C   UNL     1      46.681   7.798  12.635  0.00  0.00    +0.000 A 
ATOM      8  C   UNL     1      47.203   9.030  12.209  0.00  0.00    +0.000 A 
ATOM      9  C   UNL     1      48.549   9.165  11.851  0.00  0.00    +0.000 A 
BRANCH   4  11
ATOM     10  N   UNL     1      51.525   9.231  12.129  0.00  0.00    +0.000 N 
ATOM     11  C   UNL     1      50.826   8.228  11.515  0.00  0.00    +0.000 C 
ATOM     12  O   UNL     1      51.366   7.481  10.709  0.00  0.00    +0.000 OA
ATOM     13  H   UNL     1      52.517   9.273  11.933  0.00  0.00    +0.000 HD
ATOM     14  H   UNL     1      51.192   9.685  12.967  0.00  0.00    +0.000 HD
ENDBRANCH   4  11
ENDBRANCH   2   7
ENDBRANCH   1   2
BRANCH   1  15
ATOM     15  C   UNL     1      44.247   6.511  11.228  0.00  0.00    +0.000 C 
BRANCH  15  16
ATOM     16  C   UNL     1      44.187   5.082  10.760  0.00  0.00    +0.000 A 
ATOM     17  C   UNL     1      43.458   4.127  11.459  0.00  0.00    +0.000 A 
ATOM     18  N   UNL     1      43.401   2.823  11.117  0.00  0.00    +0.000 NA
ATOM     19  C   UNL     1      44.105   2.446  10.026  0.00  0.00    +0.000 A 
ATOM     20  C   UNL     1      44.876   3.308   9.251  0.00  0.00    +0.000 A 
ATOM     21  C   UNL     1      44.909   4.652   9.643  0.00  0.00    +0.000 A 
BRANCH  20  22
ATOM     22  C   UNL     1      45.623   2.799   8.038  0.00  0.00    +0.000 C 
ATOM     23  C   UNL     1      46.254   1.418   8.280  0.00  0.00    +0.000 C 
ATOM     24  C   UNL     1      47.099   0.994   7.085  0.00  0.00    +0.000 C 
ATOM     25  O   UNL     1      48.084   1.983   6.793  0.00  0.00    +0.000 OA
ATOM     26  C   UNL     1      47.502   3.230   6.420  0.00  0.00    +0.000 C 
ATOM     27  C   UNL     1      46.687   3.804   7.570  0.00  0.00    +0.000 C 
ENDBRANCH  20  22
ENDBRANCH  15  16
ENDBRANCH   1  15
TORSDOF 6
ENDMDL
MODEL 6
REMARK VINA RESULT:    -6.502      3.634      7.602
REMARK INTER + INTRA:          -9.729
REMARK INTER:                  -8.763
REMARK INTRA:                  -0.966
REMARK UNBOUND:                -0.947
REMARK  Name = 
REMARK  6 active torsions:
REMARK  status: ('A' for Active; 'I' for Inactive)
REMARK    1  A    between atoms: C_2  and  C_4
REMARK    2  A    between atoms: C_7  and  N_8
REMARK    3  A    between atoms: N_8  and  C_9
REMARK    4  A    between atoms: C_9  and  C_10
REMARK    5  A    between atoms: C_10  and  C_11
REMARK    6  A    between atoms: C_15  and  C_16
REMARK                            x       y       z     vdW  Elec       q    Type
REMARK                         _______ _______ _______ _____ _____    ______ ____
ROOT
ATOM      1  C   UNL     1      49.788   7.407  13.015  0.00  0.00    +0.000 C 
ENDROOT
BRANCH   1   2
ATOM      2  N   UNL     1      49.442   7.771  14.386  0.00  0.00    +0.000 N 
ATOM      3  H   UNL     1      50.091   8.416  14.834  0.00  0.00    +0.000 HD
BRANCH   2   7
ATOM      4  C   UNL     1      48.108   4.652  16.905  0.00  0.00    +0.000 A 
ATOM      5  C   UNL     1      49.213   5.416  17.284  0.00  0.00    +0.000 A 
ATOM      6  C   UNL     1      49.658   6.459  16.463  0.00  0.00    +0.000 A 
ATOM      7  C   UNL     1      49.001   6.783  15.270  0.00  0.00    +0.000 A 
ATOM      8  C   UNL     1      47.911   5.984  14.891  0.00  0.00    +0.000 A 
ATOM      9  C   UNL     1      47.469   4.927  15.695  0.00  0.00    +0.000 A 
BRANCH   4  11
ATOM     10  N   UNL     1      48.306   3.273  18.899  0.00  0.00    +0.000 N 
ATOM     11  C   UNL     1      47.618   3.530  17.745  0.00  0.00    +0.000 C 
ATOM     12  O   UNL     1      46.622   2.885  17.444  0.00  0.00    +0.000 OA
ATOM     13  H   UNL     1      47.908   2.575  19.514  0.00  0.00    +0.000 HD
ATOM     14  H   UNL     1      48.956   3.934  19.298  0.00  0.00    +0.000 HD
ENDBRANCH   4  11
ENDBRANCH   2   7
ENDBRANCH   1   2
BRANCH   1  15
ATOM     15  C   UNL     1      49.013   8.259  12.007  0.00  0.00    +0.000 C 
BRANCH  15  16
ATOM     16  C   UNL     1      47.557   7.878  11.994  0.00  0.00    +0.000 A 
ATOM     17  C   UNL     1      46.565   8.822  12.229  0.00  0.00    +0.000 A 
ATOM     18  N   UNL     1      45.247   8.534  12.276  0.00  0.00    +0.000 NA
ATOM     19  C   UNL     1      44.895   7.244  12.079  0.00  0.00    +0.000 A 
ATOM     20  C   UNL     1      45.797   6.211  11.841  0.00  0.00    +0.000 A 
ATOM     21  C   UNL     1      47.155   6.552  11.805  0.00  0.00    +0.000 A 
BRANCH  20  22
ATOM     22  C   UNL     1      45.312   4.795  11.621  0.00  0.00    +0.000 C 
ATOM     23  C   UNL     1      44.791   4.573  10.192  0.00  0.00    +0.000 C 
ATOM     24  C   UNL     1      44.197   3.178  10.044  0.00  0.00    +0.000 C 
ATOM     25  O   UNL     1      43.180   2.960  11.020  0.00  0.00    +0.000 OA
ATOM     26  C   UNL     1      43.688   3.015  12.351  0.00  0.00    +0.000 C 
ATOM     27  C   UNL     1      44.244   4.399  12.653  0.00  0.00    +0.000 C 
ENDBRANCH  20  22
ENDBRANCH  15  16
ENDBRANCH   1  15
TORSDOF 6
ENDMDL
MODEL 7
REMARK VINA RESULT:    -6.425      4.596      7.988
REMARK INTER + INTRA:          -9.625
REMARK INTER:                  -8.810
REMARK INTRA:                  -0.815
REMARK UNBOUND:                -0.947
REMARK  Name = 
REMARK  6 active torsions:
REMARK  status: ('A' for Active; 'I' for Inactive)
REMARK    1  A    between atoms: C_2  and  C_4
REMARK    2  A    between atoms: C_7  and  N_8
REMARK    3  A    between atoms: N_8  and  C_9
REMARK    4  A    between atoms: C_9  and  C_10
REMARK    5  A    between atoms: C_10  and  C_11
REMARK    6  A    between atoms: C_15  and  C_16
REMARK                            x       y       z     vdW  Elec       q    Type
REMARK                         _______ _______ _______ _____ _____    ______ ____
ROOT
ATOM      1  C   UNL     1      48.673   7.451  16.181  0.00  0.00    +0.000 C 
ENDROOT
BRANCH   1   2
ATOM      2  N   UNL     1      48.146   6.269  16.857  0.00  0.00    +0.000 N 
ATOM      3  H   UNL     1      47.603   6.462  17.696  0.00  0.00    +0.000 HD
BRANCH   2   7
ATOM      4  C   UNL     1      50.672   2.946  17.517  0.00  0.00    +0.000 A 
ATOM      5  C   UNL     1      49.341   2.736  17.152  0.00  0.00    +0.000 A 
ATOM      6  C   UNL     1      48.498   3.828  16.921  0.00  0.00    +0.000 A 
ATOM      7  C   UNL     1      48.963   5.146  17.016  0.00  0.00    +0.000 A 
ATOM      8  C   UNL     1      50.295   5.338  17.414  0.00  0.00    +0.000 A 
ATOM      9  C   UNL     1      51.142   4.252  17.666  0.00  0.00    +0.000 A 
BRANCH   4  11
ATOM     10  N   UNL     1      52.697   2.074  18.545  0.00  0.00    +0.000 N 
ATOM     11  C   UNL     1      51.591   1.811  17.784  0.00  0.00    +0.000 C 
ATOM     12  O   UNL     1      51.356   0.680  17.377  0.00  0.00    +0.000 OA
ATOM     13  H   UNL     1      53.263   1.276  18.806  0.00  0.00    +0.000 HD
ATOM     14  H   UNL     1      52.783   2.913  19.099  0.00  0.00    +0.000 HD
ENDBRANCH   4  11
ENDBRANCH   2   7
ENDBRANCH   1   2
BRANCH   1  15
ATOM     15  C   UNL     1      49.003   7.147  14.718  0.00  0.00    +0.000 C 
BRANCH  15  16
ATOM     16  C   UNL     1      47.752   7.133  13.881  0.00  0.00    +0.000 A 
ATOM     17  C   UNL     1      47.062   8.305  13.599  0.00  0.00    +0.000 A 
ATOM     18  N   UNL     1      45.912   8.353  12.894  0.00  0.00    +0.000 NA
ATOM     19  C   UNL     1      45.421   7.176  12.446  0.00  0.00    +0.000 A 
ATOM     20  C   UNL     1      46.018   5.939  12.669  0.00  0.00    +0.000 A 
ATOM     21  C   UNL     1      47.208   5.935  13.408  0.00  0.00    +0.000 A 
BRANCH  20  22
ATOM     22  C   UNL     1      45.402   4.671  12.119  0.00  0.00    +0.000 C 
ATOM     23  C   UNL     1      44.981   4.819  10.648  0.00  0.00    +0.000 C 
ATOM     24  C   UNL     1      44.254   3.570  10.166  0.00  0.00    +0.000 C 
ATOM     25  O   UNL     1      43.141   3.281  11.010  0.00  0.00    +0.000 OA
ATOM     26  C   UNL     1      43.539   2.994  12.348  0.00  0.00    +0.000 C 
ATOM     27  C   UNL     1      44.215   4.204  12.976  0.00  0.00    +0.000 C 
ENDBRANCH  20  22
ENDBRANCH  15  16
ENDBRANCH   1  15
TORSDOF 6
ENDMDL
MODEL 8
REMARK VINA RESULT:    -6.253      4.434      7.037
REMARK INTER + INTRA:          -9.393
REMARK INTER:                  -8.055
REMARK INTRA:                  -1.338
REMARK UNBOUND:                -0.947
REMARK  Name = 
REMARK  6 active torsions:
REMARK  status: ('A' for Active; 'I' for Inactive)
REMARK    1  A    between atoms: C_2  and  C_4
REMARK    2  A    between atoms: C_7  and  N_8
REMARK    3  A    between atoms: N_8  and  C_9
REMARK    4  A    between atoms: C_9  and  C_10
REMARK    5  A    between atoms: C_10  and  C_11
REMARK    6  A    between atoms: C_15  and  C_16
REMARK                            x       y       z     vdW  Elec       q    Type
REMARK                         _______ _______ _______ _____ _____    ______ ____
ROOT
ATOM      1  C   UNL     1      49.443   7.798  13.887  0.00  0.00    +0.000 C 
ENDROOT
BRANCH   1   2
ATOM      2  N   UNL     1      48.373   7.880  12.897  0.00  0.00    +0.000 N 
ATOM      3  H   UNL     1      48.098   8.827  12.640  0.00  0.00    +0.000 HD
BRANCH   2   7
ATOM      4  C   UNL     1      44.977   5.368  13.039  0.00  0.00    +0.000 A 
ATOM      5  C   UNL     1      46.227   4.855  13.390  0.00  0.00    +0.000 A 
ATOM      6  C   UNL     1      47.358   5.680  13.357  0.00  0.00    +0.000 A 
ATOM      7  C   UNL     1      47.267   7.032  13.007  0.00  0.00    +0.000 A 
ATOM      8  C   UNL     1      46.007   7.523  12.627  0.00  0.00    +0.000 A 
ATOM      9  C   UNL     1      44.874   6.702  12.638  0.00  0.00    +0.000 A 
BRANCH   4  11
ATOM     10  N   UNL     1      43.944   3.170  12.904  0.00  0.00    +0.000 N 
ATOM     11  C   UNL     1      43.760   4.518  13.049  0.00  0.00    +0.000 C 
ATOM     12  O   UNL     1      42.644   4.991  13.217  0.00  0.00    +0.000 OA
ATOM     13  H   UNL     1      43.122   2.590  13.013  0.00  0.00    +0.000 HD
ATOM     14  H   UNL     1      44.847   2.734  13.022  0.00  0.00    +0.000 HD
ENDBRANCH   4  11
ENDBRANCH   2   7
ENDBRANCH   1   2
BRANCH   1  15
ATOM     15  C   UNL     1      49.143   8.688  15.096  0.00  0.00    +0.000 C 
BRANCH  15  16
ATOM     16  C   UNL     1      48.873   7.853  16.319  0.00  0.00    +0.000 A 
ATOM     17  C   UNL     1      48.476   8.438  17.515  0.00  0.00    +0.000 A 
ATOM     18  N   UNL     1      48.263   7.750  18.657  0.00  0.00    +0.000 NA
ATOM     19  C   UNL     1      48.455   6.413  18.610  0.00  0.00    +0.000 A 
ATOM     20  C   UNL     1      48.858   5.716  17.474  0.00  0.00    +0.000 A 
ATOM     21  C   UNL     1      49.071   6.469  16.312  0.00  0.00    +0.000 A 
BRANCH  20  22
ATOM     22  C   UNL     1      49.038   4.215  17.511  0.00  0.00    +0.000 C 
ATOM     23  C   UNL     1      50.514   3.802  17.392  0.00  0.00    +0.000 C 
ATOM     24  C   UNL     1      50.646   2.287  17.307  0.00  0.00    +0.000 C 
ATOM     25  O   UNL     1      49.864   1.775  16.230  0.00  0.00    +0.000 OA
ATOM     26  C   UNL     1      48.471   2.024  16.409  0.00  0.00    +0.000 C 
ATOM     27  C   UNL     1      48.195   3.520  16.430  0.00  0.00    +0.000 C 
ENDBRANCH  20  22
ENDBRANCH  15  16
ENDBRANCH   1  15
TORSDOF 6
ENDMDL
MODEL 9
REMARK VINA RESULT:    -6.157      4.421      6.589
REMARK INTER + INTRA:          -9.263
REMARK INTER:                  -8.365
REMARK INTRA:                  -0.898
REMARK UNBOUND:                -0.947
REMARK  Name = 
REMARK  6 active torsions:
REMARK  status: ('A' for Active; 'I' for Inactive)
REMARK    1  A    between atoms: C_2  and  C_4
REMARK    2  A    between atoms: C_7  and  N_8
REMARK    3  A    between atoms: N_8  and  C_9
REMARK    4  A    between atoms: C_9  and  C_10
REMARK    5  A    between atoms: C_10  and  C_11
REMARK    6  A    between atoms: C_15  and  C_16
REMARK                            x       y       z     vdW  Elec       q    Type
REMARK                         _______ _______ _______ _____ _____    ______ ____
ROOT
ATOM      1  C   UNL     1      48.144   7.728  14.078  0.00  0.00    +0.000 C 
ENDROOT
BRANCH   1   2
ATOM      2  N   UNL     1      46.841   7.902  13.444  0.00  0.00    +0.000 N 
ATOM      3  H   UNL     1      46.167   8.438  13.988  0.00  0.00    +0.000 HD
BRANCH   2   7
ATOM      4  C   UNL     1      44.918   4.586  11.665  0.00  0.00    +0.000 A 
ATOM      5  C   UNL     1      44.908   5.818  11.010  0.00  0.00    +0.000 A 
ATOM      6  C   UNL     1      45.551   6.922  11.584  0.00  0.00    +0.000 A 
ATOM      7  C   UNL     1      46.239   6.817  12.799  0.00  0.00    +0.000 A 
ATOM      8  C   UNL     1      46.211   5.578  13.458  0.00  0.00    +0.000 A 
ATOM      9  C   UNL     1      45.555   4.473  12.902  0.00  0.00    +0.000 A 
BRANCH   4  11
ATOM     10  N   UNL     1      44.990   2.562  10.316  0.00  0.00    +0.000 N 
ATOM     11  C   UNL     1      44.234   3.399  11.092  0.00  0.00    +0.000 C 
ATOM     12  O   UNL     1      43.059   3.153  11.329  0.00  0.00    +0.000 OA
ATOM     13  H   UNL     1      44.545   1.706  10.013  0.00  0.00    +0.000 HD
ATOM     14  H   UNL     1      45.999   2.594  10.315  0.00  0.00    +0.000 HD
ENDBRANCH   4  11
ENDBRANCH   2   7
ENDBRANCH   1   2
BRANCH   1  15
ATOM     15  C   UNL     1      48.275   8.615  15.318  0.00  0.00    +0.000 C 
BRANCH  15  16
ATOM     16  C   UNL     1      48.805   7.826  16.485  0.00  0.00    +0.000 A 
ATOM     17  C   UNL     1      49.334   8.462  17.601  0.00  0.00    +0.000 A 
ATOM     18  N   UNL     1      49.866   7.812  18.658  0.00  0.00    +0.000 NA
ATOM     19  C   UNL     1      49.871   6.461  18.605  0.00  0.00    +0.000 A 
ATOM     20  C   UNL     1      49.376   5.714  17.540  0.00  0.00    +0.000 A 
ATOM     21  C   UNL     1      48.837   6.429  16.463  0.00  0.00    +0.000 A 
BRANCH  20  22
ATOM     22  C   UNL     1      49.414   4.202  17.571  0.00  0.00    +0.000 C 
ATOM     23  C   UNL     1      50.834   3.651  17.361  0.00  0.00    +0.000 C 
ATOM     24  C   UNL     1      50.815   2.130  17.274  0.00  0.00    +0.000 C 
ATOM     25  O   UNL     1      49.921   1.697  16.250  0.00  0.00    +0.000 OA
ATOM     26  C   UNL     1      48.573   2.077  16.516  0.00  0.00    +0.000 C 
ATOM     27  C   UNL     1      48.442   3.593  16.549  0.00  0.00    +0.000 C 
ENDBRANCH  20  22
ENDBRANCH  15  16
ENDBRANCH   1  15
TORSDOF 6
ENDMDL
