MODEL 1
REMARK VINA RESULT:    -8.003      0.000      0.000
REMARK INTER + INTRA:         -10.266
REMARK INTER:                  -9.874
REMARK INTRA:                  -0.391
REMARK UNBOUND:                -0.391
REMARK  Name = 
REMARK  4 active torsions:
REMARK  status: ('A' for Active; 'I' for Inactive)
REMARK    1  A    between atoms: C_2  and  C_4
REMARK    2  A    between atoms: C_7  and  N_8
REMARK    3  A    between atoms: N_8  and  C_9
REMARK    4  A    between atoms: C_9  and  C_10
REMARK                            x       y       z     vdW  Elec       q    Type
REMARK                         _______ _______ _______ _____ _____    ______ ____
ROOT
ATOM      1  C   UNL     1      46.514   4.552  13.620  0.00  0.00    +0.000 A 
ATOM      2  C   UNL     1      46.764   5.670  12.845  0.00  0.00    +0.000 A 
ATOM      3  N   UNL     1      46.172   5.862  11.637  0.00  0.00    +0.000 NA
ATOM      4  C   UNL     1      45.349   4.886  11.196  0.00  0.00    +0.000 A 
ATOM      5  C   UNL     1      45.077   3.788  12.020  0.00  0.00    +0.000 A 
ATOM      6  N   UNL     1      45.647   3.578  13.234  0.00  0.00    +0.000 NA
ENDROOT
BRANCH   1   8
ATOM      7  N   UNL     1      47.472   5.518  15.613  0.00  0.00    +0.000 N 
ATOM      8  C   UNL     1      47.211   4.366  14.920  0.00  0.00    +0.000 C 
ATOM      9  O   UNL     1      47.521   3.265  15.349  0.00  0.00    +0.000 OA
ATOM     10  H   UNL     1      47.931   5.469  16.511  0.00  0.00    +0.000 HD
ATOM     11  H   UNL     1      47.181   6.411  15.233  0.00  0.00    +0.000 HD
ENDBRANCH   1   8
BRANCH   4  12
ATOM     12  N   UNL     1      44.785   5.085   9.943  0.00  0.00    +0.000 N 
ATOM     13  H   UNL     1      44.143   5.872   9.990  0.00  0.00    +0.000 HD
BRANCH  12  14
ATOM     14  C   UNL     1      44.200   3.932   9.281  0.00  0.00    +0.000 C 
BRANCH  14  15
ATOM     15  C   UNL     1      45.250   3.211   8.477  0.00  0.00    +0.000 A 
ATOM     16  C   UNL     1      46.114   3.929   7.631  0.00  0.00    +0.000 A 
ATOM     17  C   UNL     1      47.129   3.278   6.926  0.00  0.00    +0.000 A 
ATOM     18  C   UNL     1      47.292   1.902   7.060  0.00  0.00    +0.000 A 
ATOM     19  C   UNL     1      46.439   1.189   7.896  0.00  0.00    +0.000 A 
ATOM     20  F   UNL     1      46.601  -0.133   8.032  0.00  0.00    +0.000 F 
ATOM     21  C   UNL     1      45.425   1.827   8.605  0.00  0.00    +0.000 A 
ENDBRANCH  14  15
ENDBRANCH  12  14
ENDBRANCH   4  12
TORSDOF 4
ENDMDL
MODEL 2
REMARK VINA RESULT:    -7.916      3.520      5.929
REMARK INTER + INTRA:         -10.158
REMARK INTER:                  -9.737
REMARK INTRA:                  -0.422
REMARK UNBOUND:                -0.391
REMARK  Name = 
REMARK  4 active torsions:
REMARK  status: ('A' for Active; 'I' for Inactive)
REMARK    1  A    between atoms: C_2  and  C_4
REMARK    2  A    between atoms: C_7  and  N_8
REMARK    3  A    between atoms: N_8  and  C_9
REMARK    4  A    between atoms: C_9  and  C_10
REMARK                            x       y       z     vdW  Elec       q    Type
REMARK                         _______ _______ _______ _____ _____    ______ ____
ROOT
ATOM      1  C   UNL     1      46.437   2.550   7.711  0.00  0.00    +0.000 A 
ATOM      2  C   UNL     1      46.345   3.926   7.600  0.00  0.00    +0.000 A 
ATOM      3  N   UNL     1      45.456   4.653   8.327  0.00  0.00    +0.000 NA
ATOM      4  C   UNL     1      44.626   3.968   9.143  0.00  0.00    +0.000 A 
ATOM      5  C   UNL     1      44.773   2.581   9.272  0.00  0.00    +0.000 A 
ATOM      6  N   UNL     1      45.658   1.834   8.566  0.00  0.00    +0.000 NA
ENDROOT
BRANCH   1   8
ATOM      7  N   UNL     1      48.499   2.497   6.458  0.00  0.00    +0.000 N 
ATOM      8  C   UNL     1      47.401   1.791   6.871  0.00  0.00    +0.000 C 
ATOM      9  O   UNL     1      47.234   0.617   6.575  0.00  0.00    +0.000 OA
ATOM     10  H   UNL     1      49.204   2.043   5.895  0.00  0.00    +0.000 HD
ATOM     11  H   UNL     1      48.612   3.464   6.741  0.00  0.00    +0.000 HD
ENDBRANCH   1   8
BRANCH   4  12
ATOM     12  N   UNL     1      43.701   4.726   9.848  0.00  0.00    +0.000 N 
ATOM     13  H   UNL     1      43.880   5.713   9.675  0.00  0.00    +0.000 HD
BRANCH  12  14
ATOM     14  C   UNL     1      43.531   4.435  11.260  0.00  0.00    +0.000 C 
BRANCH  14  15
ATOM     15  C   UNL     1      44.774   4.821  12.020  0.00  0.00    +0.000 A 
ATOM     16  C   UNL     1      45.216   6.155  12.026  0.00  0.00    +0.000 A 
ATOM     17  C   UNL     1      46.333   6.535  12.774  0.00  0.00    +0.000 A 
ATOM     18  C   UNL     1      47.019   5.585  13.524  0.00  0.00    +0.000 A 
ATOM     19  C   UNL     1      46.584   4.264  13.520  0.00  0.00    +0.000 A 
ATOM     20  F   UNL     1      47.239   3.351  14.249  0.00  0.00    +0.000 F 
ATOM     21  C   UNL     1      45.472   3.874  12.780  0.00  0.00    +0.000 A 
ENDBRANCH  14  15
ENDBRANCH  12  14
ENDBRANCH   4  12
TORSDOF 4
ENDMDL
MODEL 3
REMARK VINA RESULT:    -7.701      1.222      1.663
REMARK INTER + INTRA:          -9.893
REMARK INTER:                  -9.502
REMARK INTRA:                  -0.391
REMARK UNBOUND:                -0.391
REMARK  Name = 
REMARK  4 active torsions:
REMARK  status: ('A' for Active; 'I' for Inactive)
REMARK    1  A    between atoms: C_2  and  C_4
REMARK    2  A    between atoms: C_7  and  N_8
REMARK    3  A    between atoms: N_8  and  C_9
REMARK    4  A    between atoms: C_9  and  C_10
REMARK                            x       y       z     vdW  Elec       q    Type
REMARK                         _______ _______ _______ _____ _____    ______ ____
ROOT
ATOM      1  C   UNL     1      46.975   5.263  13.583  0.00  0.00    +0.000 A 
ATOM      2  C   UNL     1      46.866   3.903  13.815  0.00  0.00    +0.000 A 
ATOM      3  N   UNL     1      46.099   3.095  13.037  0.00  0.00    +0.000 NA
ATOM      4  C   UNL     1      45.404   3.684  12.039  0.00  0.00    +0.000 A 
ATOM      5  C   UNL     1      45.570   5.053  11.796  0.00  0.00    +0.000 A 
ATOM      6  N   UNL     1      46.337   5.880  12.552  0.00  0.00    +0.000 NA
ENDROOT
BRANCH   1   8
ATOM      7  N   UNL     1      47.616   7.465  14.334  0.00  0.00    +0.000 N 
ATOM      8  C   UNL     1      47.799   6.116  14.481  0.00  0.00    +0.000 C 
ATOM      9  O   UNL     1      48.576   5.650  15.299  0.00  0.00    +0.000 OA
ATOM     10  H   UNL     1      48.133   8.107  14.918  0.00  0.00    +0.000 HD
ATOM     11  H   UNL     1      46.947   7.812  13.656  0.00  0.00    +0.000 HD
ENDBRANCH   1   8
BRANCH   4  12
ATOM     12  N   UNL     1      44.598   2.846  11.281  0.00  0.00    +0.000 N 
ATOM     13  H   UNL     1      45.040   1.932  11.213  0.00  0.00    +0.000 HD
BRANCH  12  14
ATOM     14  C   UNL     1      44.146   3.338   9.991  0.00  0.00    +0.000 C 
BRANCH  14  15
ATOM     15  C   UNL     1      45.116   2.929   8.914  0.00  0.00    +0.000 A 
ATOM     16  C   UNL     1      45.649   3.890   8.036  0.00  0.00    +0.000 A 
ATOM     17  C   UNL     1      46.593   3.532   7.071  0.00  0.00    +0.000 A 
ATOM     18  C   UNL     1      47.016   2.210   6.974  0.00  0.00    +0.000 A 
ATOM     19  C   UNL     1      46.492   1.257   7.841  0.00  0.00    +0.000 A 
ATOM     20  F   UNL     1      46.905  -0.014   7.753  0.00  0.00    +0.000 F 
ATOM     21  C   UNL     1      45.551   1.602   8.807  0.00  0.00    +0.000 A 
ENDBRANCH  14  15
ENDBRANCH  12  14
ENDBRANCH   4  12
TORSDOF 4
ENDMDL
MODEL 4
REMARK VINA RESULT:    -6.851      2.292      2.560
REMARK INTER + INTRA:          -8.844
REMARK INTER:                  -8.486
REMARK INTRA:                  -0.358
REMARK UNBOUND:                -0.391
REMARK  Name = 
REMARK  4 active torsions:
REMARK  status: ('A' for Active; 'I' for Inactive)
REMARK    1  A    between atoms: C_2  and  C_4
REMARK    2  A    between atoms: C_7  and  N_8
REMARK    3  A    between atoms: N_8  and  C_9
REMARK    4  A    between atoms: C_9  and  C_10
REMARK                            x       y       z     vdW  Elec       q    Type
REMARK                         _______ _______ _______ _____ _____    ______ ____
ROOT
ATOM      1  C   UNL     1      45.976   6.540  12.383  0.00  0.00    +0.000 A 
ATOM      2  C   UNL     1      46.519   6.430  11.115  0.00  0.00    +0.000 A 
ATOM      3  N   UNL     1      45.911   5.724  10.125  0.00  0.00    +0.000 NA
ATOM      4  C   UNL     1      44.760   5.091  10.442  0.00  0.00    +0.000 A 
ATOM      5  C   UNL     1      44.208   5.259  11.718  0.00  0.00    +0.000 A 
ATOM      6  N   UNL     1      44.790   5.965  12.720  0.00  0.00    +0.000 NA
ENDROOT
BRANCH   1   8
ATOM      7  N   UNL     1      47.315   6.522  14.391  0.00  0.00    +0.000 N 
ATOM      8  C   UNL     1      46.693   7.294  13.446  0.00  0.00    +0.000 C 
ATOM      9  O   UNL     1      46.735   8.514  13.472  0.00  0.00    +0.000 OA
ATOM     10  H   UNL     1      47.832   6.964  15.137  0.00  0.00    +0.000 HD
ATOM     11  H   UNL     1      47.273   5.511  14.323  0.00  0.00    +0.000 HD
ENDBRANCH   1   8
BRANCH   4  12
ATOM     12  N   UNL     1      44.176   4.346   9.427  0.00  0.00    +0.000 N 
ATOM     13  H   UNL     1      43.189   4.586   9.365  0.00  0.00    +0.000 HD
BRANCH  12  14
ATOM     14  C   UNL     1      44.395   2.910   9.438  0.00  0.00    +0.000 C 
BRANCH  14  15
ATOM     15  C   UNL     1      45.400   2.534   8.380  0.00  0.00    +0.000 A 
ATOM     16  C   UNL     1      46.020   1.273   8.407  0.00  0.00    +0.000 A 
ATOM     17  C   UNL     1      46.910   0.891   7.399  0.00  0.00    +0.000 A 
ATOM     18  C   UNL     1      47.188   1.767   6.353  0.00  0.00    +0.000 A 
ATOM     19  C   UNL     1      46.575   3.015   6.324  0.00  0.00    +0.000 A 
ATOM     20  F   UNL     1      46.835   3.855   5.314  0.00  0.00    +0.000 F 
ATOM     21  C   UNL     1      45.687   3.406   7.322  0.00  0.00    +0.000 A 
ENDBRANCH  14  15
ENDBRANCH  12  14
ENDBRANCH   4  12
TORSDOF 4
ENDMDL
MODEL 5
REMARK VINA RESULT:    -6.108      1.694      2.865
REMARK INTER + INTRA:          -7.928
REMARK INTER:                  -7.591
REMARK INTRA:                  -0.337
REMARK UNBOUND:                -0.391
REMARK  Name = 
REMARK  4 active torsions:
REMARK  status: ('A' for Active; 'I' for Inactive)
REMARK    1  A    between atoms: C_2  and  C_4
REMARK    2  A    between atoms: C_7  and  N_8
REMARK    3  A    between atoms: N_8  and  C_9
REMARK    4  A    between atoms: C_9  and  C_10
REMARK                            x       y       z     vdW  Elec       q    Type
REMARK                         _______ _______ _______ _____ _____    ______ ____
ROOT
ATOM      1  C   UNL     1      47.889   4.722  15.882  0.00  0.00    +0.000 A 
ATOM      2  C   UNL     1      46.969   3.902  15.253  0.00  0.00    +0.000 A 
ATOM      3  N   UNL     1      46.463   4.188  14.025  0.00  0.00    +0.000 NA
ATOM      4  C   UNL     1      46.868   5.341  13.449  0.00  0.00    +0.000 A 
ATOM      5  C   UNL     1      47.836   6.128  14.085  0.00  0.00    +0.000 A 
ATOM      6  N   UNL     1      48.363   5.860  15.307  0.00  0.00    +0.000 NA
ENDROOT
BRANCH   1   8
ATOM      7  N   UNL     1      47.428   4.015  18.143  0.00  0.00    +0.000 N 
ATOM      8  C   UNL     1      48.389   4.387  17.242  0.00  0.00    +0.000 C 
ATOM      9  O   UNL     1      49.574   4.431  17.535  0.00  0.00    +0.000 OA
ATOM     10  H   UNL     1      47.695   3.761  19.083  0.00  0.00    +0.000 HD
ATOM     11  H   UNL     1      46.457   3.972  17.855  0.00  0.00    +0.000 HD
ENDBRANCH   1   8
BRANCH   4  12
ATOM     12  N   UNL     1      46.311   5.632  12.212  0.00  0.00    +0.000 N 
ATOM     13  H   UNL     1      46.302   6.641  12.081  0.00  0.00    +0.000 HD
BRANCH  12  14
ATOM     14  C   UNL     1      45.033   5.022  11.891  0.00  0.00    +0.000 C 
BRANCH  14  15
ATOM     15  C   UNL     1      45.104   4.354  10.542  0.00  0.00    +0.000 A 
ATOM     16  C   UNL     1      45.631   5.043   9.436  0.00  0.00    +0.000 A 
ATOM     17  C   UNL     1      45.756   4.415   8.195  0.00  0.00    +0.000 A 
ATOM     18  C   UNL     1      45.356   3.090   8.047  0.00  0.00    +0.000 A 
ATOM     19  C   UNL     1      44.835   2.406   9.139  0.00  0.00    +0.000 A 
ATOM     20  F   UNL     1      44.458   1.128   8.999  0.00  0.00    +0.000 F 
ATOM     21  C   UNL     1      44.707   3.021  10.381  0.00  0.00    +0.000 A 
ENDBRANCH  14  15
ENDBRANCH  12  14
ENDBRANCH   4  12
TORSDOF 4
ENDMDL
MODEL 6
REMARK VINA RESULT:    -5.846      3.508      7.272
REMARK INTER + INTRA:          -7.605
REMARK INTER:                  -7.270
REMARK INTRA:                  -0.335
REMARK UNBOUND:                -0.391
REMARK  Name = 
REMARK  4 active torsions:
REMARK  status: ('A' for Active; 'I' for Inactive)
REMARK    1  A    between atoms: C_2  and  C_4
REMARK    2  A    between atoms: C_7  and  N_8
REMARK    3  A    between atoms: N_8  and  C_9
REMARK    4  A    between atoms: C_9  and  C_10
REMARK                            x       y       z     vdW  Elec       q    Type
REMARK                         _______ _______ _______ _____ _____    ______ ____
ROOT
ATOM      1  C   UNL     1      44.895   4.261  10.879  0.00  0.00    +0.000 A 
ATOM      2  C   UNL     1      45.033   3.642  12.108  0.00  0.00    +0.000 A 
ATOM      3  N   UNL     1      45.583   4.272  13.179  0.00  0.00    +0.000 NA
ATOM      4  C   UNL     1      46.033   5.531  12.985  0.00  0.00    +0.000 A 
ATOM      5  C   UNL     1      45.837   6.151  11.746  0.00  0.00    +0.000 A 
ATOM      6  N   UNL     1      45.283   5.547  10.664  0.00  0.00    +0.000 NA
ENDROOT
BRANCH   1   8
ATOM      7  N   UNL     1      44.157   4.259   8.581  0.00  0.00    +0.000 N 
ATOM      8  C   UNL     1      44.319   3.523   9.724  0.00  0.00    +0.000 C 
ATOM      9  O   UNL     1      44.020   2.340   9.783  0.00  0.00    +0.000 OA
ATOM     10  H   UNL     1      43.783   3.822   7.752  0.00  0.00    +0.000 HD
ATOM     11  H   UNL     1      44.436   5.234   8.566  0.00  0.00    +0.000 HD
ENDBRANCH   1   8
BRANCH   4  12
ATOM     12  N   UNL     1      46.624   6.142  14.082  0.00  0.00    +0.000 N 
ATOM     13  H   UNL     1      46.519   7.150  13.997  0.00  0.00    +0.000 HD
BRANCH  12  14
ATOM     14  C   UNL     1      47.984   5.753  14.415  0.00  0.00    +0.000 C 
BRANCH  14  15
ATOM     15  C   UNL     1      48.041   5.235  15.828  0.00  0.00    +0.000 A 
ATOM     16  C   UNL     1      48.667   5.990  16.836  0.00  0.00    +0.000 A 
ATOM     17  C   UNL     1      48.676   5.547  18.160  0.00  0.00    +0.000 A 
ATOM     18  C   UNL     1      48.057   4.345  18.492  0.00  0.00    +0.000 A 
ATOM     19  C   UNL     1      47.436   3.597  17.498  0.00  0.00    +0.000 A 
ATOM     20  F   UNL     1      46.833   2.445  17.818  0.00  0.00    +0.000 F 
ATOM     21  C   UNL     1      47.421   4.028  16.175  0.00  0.00    +0.000 A 
ENDBRANCH  14  15
ENDBRANCH  12  14
ENDBRANCH   4  12
TORSDOF 4
ENDMDL
MODEL 7
REMARK VINA RESULT:    -5.735      3.659      5.350
REMARK INTER + INTRA:          -7.467
REMARK INTER:                  -7.195
REMARK INTRA:                  -0.272
REMARK UNBOUND:                -0.391
REMARK  Name = 
REMARK  4 active torsions:
REMARK  status: ('A' for Active; 'I' for Inactive)
REMARK    1  A    between atoms: C_2  and  C_4
REMARK    2  A    between atoms: C_7  and  N_8
REMARK    3  A    between atoms: N_8  and  C_9
REMARK    4  A    between atoms: C_9  and  C_10
REMARK                            x       y       z     vdW  Elec       q    Type
REMARK                         _______ _______ _______ _____ _____    ______ ____
ROOT
ATOM      1  C   UNL     1      48.688   4.211  18.077  0.00  0.00    +0.000 A 
ATOM      2  C   UNL     1      48.774   2.987  17.439  0.00  0.00    +0.000 A 
ATOM      3  N   UNL     1      48.258   2.778  16.199  0.00  0.00    +0.000 NA
ATOM      4  C   UNL     1      47.614   3.815  15.621  0.00  0.00    +0.000 A 
ATOM      5  C   UNL     1      47.584   5.057  16.267  0.00  0.00    +0.000 A 
ATOM      6  N   UNL     1      48.099   5.293  17.501  0.00  0.00    +0.000 NA
ENDROOT
BRANCH   1   8
ATOM      7  N   UNL     1      48.543   3.743  20.440  0.00  0.00    +0.000 N 
ATOM      8  C   UNL     1      49.235   4.385  19.449  0.00  0.00    +0.000 C 
ATOM      9  O   UNL     1      50.237   5.045  19.678  0.00  0.00    +0.000 OA
ATOM     10  H   UNL     1      48.863   3.805  21.396  0.00  0.00    +0.000 HD
ATOM     11  H   UNL     1      47.727   3.188  20.207  0.00  0.00    +0.000 HD
ENDBRANCH   1   8
BRANCH   4  12
ATOM     12  N   UNL     1      47.064   3.569  14.371  0.00  0.00    +0.000 N 
ATOM     13  H   UNL     1      47.632   2.878  13.888  0.00  0.00    +0.000 HD
BRANCH  12  14
ATOM     14  C   UNL     1      46.760   4.717  13.534  0.00  0.00    +0.000 C 
BRANCH  14  15
ATOM     15  C   UNL     1      45.410   4.543  12.889  0.00  0.00    +0.000 A 
ATOM     16  C   UNL     1      44.435   5.549  13.001  0.00  0.00    +0.000 A 
ATOM     17  C   UNL     1      43.201   5.424  12.358  0.00  0.00    +0.000 A 
ATOM     18  C   UNL     1      42.929   4.291  11.596  0.00  0.00    +0.000 A 
ATOM     19  C   UNL     1      43.892   3.295  11.483  0.00  0.00    +0.000 A 
ATOM     20  F   UNL     1      43.635   2.209  10.742  0.00  0.00    +0.000 F 
ATOM     21  C   UNL     1      45.125   3.409  12.118  0.00  0.00    +0.000 A 
ENDBRANCH  14  15
ENDBRANCH  12  14
ENDBRANCH   4  12
TORSDOF 4
ENDMDL
MODEL 8
REMARK VINA RESULT:    -5.734      3.886      7.498
REMARK INTER + INTRA:          -7.467
REMARK INTER:                  -7.169
REMARK INTRA:                  -0.297
REMARK UNBOUND:                -0.391
REMARK  Name = 
REMARK  4 active torsions:
REMARK  status: ('A' for Active; 'I' for Inactive)
REMARK    1  A    between atoms: C_2  and  C_4
REMARK    2  A    between atoms: C_7  and  N_8
REMARK    3  A    between atoms: N_8  and  C_9
REMARK    4  A    between atoms: C_9  and  C_10
REMARK                            x       y       z     vdW  Elec       q    Type
REMARK                         _______ _______ _______ _____ _____    ______ ____
ROOT
ATOM      1  C   UNL     1      45.424   5.129  11.873  0.00  0.00    +0.000 A 
ATOM      2  C   UNL     1      45.273   4.122  12.809  0.00  0.00    +0.000 A 
ATOM      3  N   UNL     1      45.924   4.138  14.002  0.00  0.00    +0.000 NA
ATOM      4  C   UNL     1      46.768   5.169  14.226  0.00  0.00    +0.000 A 
ATOM      5  C   UNL     1      46.865   6.199  13.282  0.00  0.00    +0.000 A 
ATOM      6  N   UNL     1      46.219   6.211  12.089  0.00  0.00    +0.000 NA
ENDROOT
BRANCH   1   8
ATOM      7  N   UNL     1      45.503   5.269   9.465  0.00  0.00    +0.000 N 
ATOM      8  C   UNL     1      44.718   5.053  10.566  0.00  0.00    +0.000 C 
ATOM      9  O   UNL     1      43.526   4.806  10.476  0.00  0.00    +0.000 OA
ATOM     10  H   UNL     1      45.096   5.221   8.542  0.00  0.00    +0.000 HD
ATOM     11  H   UNL     1      46.493   5.452   9.581  0.00  0.00    +0.000 HD
ENDBRANCH   1   8
BRANCH   4  12
ATOM     12  N   UNL     1      47.451   5.147  15.434  0.00  0.00    +0.000 N 
ATOM     13  H   UNL     1      48.387   5.520  15.293  0.00  0.00    +0.000 HD
BRANCH  12  14
ATOM     14  C   UNL     1      47.459   3.899  16.176  0.00  0.00    +0.000 C 
BRANCH  14  15
ATOM     15  C   UNL     1      48.830   3.646  16.746  0.00  0.00    +0.000 A 
ATOM     16  C   UNL     1      49.582   4.705  17.285  0.00  0.00    +0.000 A 
ATOM     17  C   UNL     1      50.830   4.473  17.867  0.00  0.00    +0.000 A 
ATOM     18  C   UNL     1      51.340   3.178  17.919  0.00  0.00    +0.000 A 
ATOM     19  C   UNL     1      50.598   2.129  17.388  0.00  0.00    +0.000 A 
ATOM     20  F   UNL     1      51.084   0.882  17.445  0.00  0.00    +0.000 F 
ATOM     21  C   UNL     1      49.353   2.348  16.805  0.00  0.00    +0.000 A 
ENDBRANCH  14  15
ENDBRANCH  12  14
ENDBRANCH   4  12
TORSDOF 4
ENDMDL
MODEL 9
REMARK VINA RESULT:    -5.519      4.279      6.574
REMARK INTER + INTRA:          -7.200
REMARK INTER:                  -6.879
REMARK INTRA:                  -0.322
REMARK UNBOUND:                -0.391
REMARK  Name = 
REMARK  4 active torsions:
REMARK  status: ('A' for Active; 'I' for Inactive)
REMARK    1  A    between atoms: C_2  and  C_4
REMARK    2  A    between atoms: C_7  and  N_8
REMARK    3  A    between atoms: N_8  and  C_9
REMARK    4  A    between atoms: C_9  and  C_10
REMARK                            x       y       z     vdW  Elec       q    Type
REMARK                         _______ _______ _______ _____ _____    ______ ____
ROOT
ATOM      1  C   UNL     1      44.528   4.113  11.645  0.00  0.00    +0.000 A 
ATOM      2  C   UNL     1      45.010   4.114  12.942  0.00  0.00    +0.000 A 
ATOM      3  N   UNL     1      45.553   5.222  13.513  0.00  0.00    +0.000 NA
ATOM      4  C   UNL     1      45.643   6.327  12.741  0.00  0.00    +0.000 A 
ATOM      5  C   UNL     1      45.104   6.313  11.449  0.00  0.00    +0.000 A 
ATOM      6  N   UNL     1      44.549   5.224  10.860  0.00  0.00    +0.000 NA
ENDROOT
BRANCH   1   8
ATOM      7  N   UNL     1      44.694   2.350  10.006  0.00  0.00    +0.000 N 
ATOM      8  C   UNL     1      43.974   2.869  11.049  0.00  0.00    +0.000 C 
ATOM      9  O   UNL     1      42.955   2.339  11.463  0.00  0.00    +0.000 OA
ATOM     10  H   UNL     1      44.385   1.499   9.559  0.00  0.00    +0.000 HD
ATOM     11  H   UNL     1      45.546   2.809   9.704  0.00  0.00    +0.000 HD
ENDBRANCH   1   8
BRANCH   4  12
ATOM     12  N   UNL     1      46.234   7.435  13.332  0.00  0.00    +0.000 N 
ATOM     13  H   UNL     1      46.178   7.343  14.343  0.00  0.00    +0.000 HD
BRANCH  12  14
ATOM     14  C   UNL     1      45.811   8.746  12.872  0.00  0.00    +0.000 C 
BRANCH  14  15
ATOM     15  C   UNL     1      46.953   9.445  12.181  0.00  0.00    +0.000 A 
ATOM     16  C   UNL     1      46.801  10.761  11.712  0.00  0.00    +0.000 A 
ATOM     17  C   UNL     1      47.871  11.439  11.122  0.00  0.00    +0.000 A 
ATOM     18  C   UNL     1      49.105  10.807  10.996  0.00  0.00    +0.000 A 
ATOM     19  C   UNL     1      49.258   9.505  11.459  0.00  0.00    +0.000 A 
ATOM     20  F   UNL     1      50.448   8.900  11.346  0.00  0.00    +0.000 F 
ATOM     21  C   UNL     1      48.200   8.820  12.049  0.00  0.00    +0.000 A 
ENDBRANCH  14  15
ENDBRANCH  12  14
ENDBRANCH   4  12
TORSDOF 4
ENDMDL
