MODEL 1
REMARK VINA RESULT:    -7.959      0.000      0.000
REMARK INTER + INTRA:         -11.005
REMARK INTER:                 -10.286
REMARK INTRA:                  -0.719
REMARK UNBOUND:                -0.719
REMARK  Name = 
REMARK  5 active torsions:
REMARK  status: ('A' for Active; 'I' for Inactive)
REMARK    1  A    between atoms: C_2  and  C_3
REMARK    2  A    between atoms: C_6  and  N_7
REMARK    3  A    between atoms: N_7  and  C_8
REMARK    4  A    between atoms: C_8  and  C_9
REMARK    5  A    between atoms: C_13  and  C_14
REMARK                            x       y       z     vdW  Elec       q    Type
REMARK                         _______ _______ _______ _____ _____    ______ ____
ROOT
ATOM      1  C   UNL     1      43.888   5.127  11.048  0.00  0.00    +0.000 A 
ATOM      2  C   UNL     1      43.139   4.178  11.729  0.00  0.00    +0.000 A 
ATOM      3  N   UNL     1      43.137   2.862  11.434  0.00  0.00    +0.000 NA
ATOM      4  C   UNL     1      43.929   2.463  10.406  0.00  0.00    +0.000 A 
ATOM      5  C   UNL     1      44.751   3.303   9.653  0.00  0.00    +0.000 A 
ATOM      6  C   UNL     1      44.719   4.658  10.018  0.00  0.00    +0.000 A 
ENDROOT
BRANCH   5   7
ATOM      7  C   UNL     1      45.603   2.812   8.546  0.00  0.00    +0.000 A 
ATOM      8  C   UNL     1      46.085   3.671   7.540  0.00  0.00    +0.000 A 
ATOM      9  C   UNL     1      46.879   3.197   6.487  0.00  0.00    +0.000 A 
ATOM     10  C   UNL     1      47.199   1.846   6.412  0.00  0.00    +0.000 A 
ATOM     11  C   UNL     1      46.736   0.986   7.394  0.00  0.00    +0.000 A 
ATOM     12  F   UNL     1      47.036  -0.318   7.328  0.00  0.00    +0.000 F 
ATOM     13  C   UNL     1      45.958   1.454   8.452  0.00  0.00    +0.000 A 
ENDBRANCH   5   7
BRANCH   1  14
ATOM     14  C   UNL     1      43.873   6.570  11.484  0.00  0.00    +0.000 C 
BRANCH  14  15
ATOM     15  N   UNL     1      44.596   6.738  12.735  0.00  0.00    +0.000 N 
ATOM     16  H   UNL     1      44.408   6.013  13.427  0.00  0.00    +0.000 HD
BRANCH  15  20
ATOM     17  C   UNL     1      48.614   7.503  12.552  0.00  0.00    +0.000 A 
ATOM     18  C   UNL     1      47.662   8.441  12.196  0.00  0.00    +0.000 A 
ATOM     19  N   UNL     1      46.324   8.202  12.287  0.00  0.00    +0.000 NA
ATOM     20  C   UNL     1      45.954   6.985  12.736  0.00  0.00    +0.000 A 
ATOM     21  C   UNL     1      46.932   6.044  13.071  0.00  0.00    +0.000 A 
ATOM     22  N   UNL     1      48.269   6.277  13.007  0.00  0.00    +0.000 NA
BRANCH  17  24
ATOM     23  N   UNL     1      51.139   8.065  12.352  0.00  0.00    +0.000 NA
ATOM     24  C   UNL     1      50.014   7.793  12.452  0.00  0.00    +0.000 C 
ENDBRANCH  17  24
ENDBRANCH  15  20
ENDBRANCH  14  15
ENDBRANCH   1  14
TORSDOF 5
ENDMDL
MODEL 2
REMARK VINA RESULT:    -7.871      3.257      6.570
REMARK INTER + INTRA:         -10.891
REMARK INTER:                 -10.288
REMARK INTRA:                  -0.604
REMARK UNBOUND:                -0.719
REMARK  Name = 
REMARK  5 active torsions:
REMARK  status: ('A' for Active; 'I' for Inactive)
REMARK    1  A    between atoms: C_2  and  C_3
REMARK    2  A    between atoms: C_6  and  N_7
REMARK    3  A    between atoms: N_7  and  C_8
REMARK    4  A    between atoms: C_8  and  C_9
REMARK    5  A    between atoms: C_13  and  C_14
REMARK                            x       y       z     vdW  Elec       q    Type
REMARK                         _______ _______ _______ _____ _____    ______ ____
ROOT
ATOM      1  C   UNL     1      44.766   4.840  11.933  0.00  0.00    +0.000 A 
ATOM      2  C   UNL     1      45.105   4.111  13.064  0.00  0.00    +0.000 A 
ATOM      3  N   UNL     1      46.124   4.427  13.891  0.00  0.00    +0.000 NA
ATOM      4  C   UNL     1      46.846   5.534  13.579  0.00  0.00    +0.000 A 
ATOM      5  C   UNL     1      46.601   6.372  12.489  0.00  0.00    +0.000 A 
ATOM      6  C   UNL     1      45.519   5.998  11.677  0.00  0.00    +0.000 A 
ENDROOT
BRANCH   5   7
ATOM      7  C   UNL     1      47.415   7.574  12.202  0.00  0.00    +0.000 A 
ATOM      8  C   UNL     1      46.874   8.873  12.268  0.00  0.00    +0.000 A 
ATOM      9  C   UNL     1      47.647  10.006  11.978  0.00  0.00    +0.000 A 
ATOM     10  C   UNL     1      48.979   9.863  11.606  0.00  0.00    +0.000 A 
ATOM     11  C   UNL     1      49.528   8.593  11.538  0.00  0.00    +0.000 A 
ATOM     12  F   UNL     1      50.809   8.444  11.176  0.00  0.00    +0.000 F 
ATOM     13  C   UNL     1      48.769   7.463  11.838  0.00  0.00    +0.000 A 
ENDBRANCH   5   7
BRANCH   1  14
ATOM     14  C   UNL     1      43.574   4.447  11.099  0.00  0.00    +0.000 C 
BRANCH  14  15
ATOM     15  N   UNL     1      43.819   4.716   9.691  0.00  0.00    +0.000 N 
ATOM     16  H   UNL     1      43.918   5.705   9.464  0.00  0.00    +0.000 HD
BRANCH  15  20
ATOM     17  C   UNL     1      46.635   2.726   7.481  0.00  0.00    +0.000 A 
ATOM     18  C   UNL     1      46.506   4.103   7.456  0.00  0.00    +0.000 A 
ATOM     19  N   UNL     1      45.594   4.771   8.214  0.00  0.00    +0.000 NA
ATOM     20  C   UNL     1      44.793   4.023   9.000  0.00  0.00    +0.000 A 
ATOM     21  C   UNL     1      44.925   2.631   8.996  0.00  0.00    +0.000 A 
ATOM     22  N   UNL     1      45.846   1.953   8.262  0.00  0.00    +0.000 NA
BRANCH  17  24
ATOM     23  N   UNL     1      48.388   1.532   5.988  0.00  0.00    +0.000 NA
ATOM     24  C   UNL     1      47.613   2.057   6.675  0.00  0.00    +0.000 C 
ENDBRANCH  17  24
ENDBRANCH  15  20
ENDBRANCH  14  15
ENDBRANCH   1  14
TORSDOF 5
ENDMDL
MODEL 3
REMARK VINA RESULT:    -7.866      2.173      3.072
REMARK INTER + INTRA:         -10.884
REMARK INTER:                 -10.414
REMARK INTRA:                  -0.470
REMARK UNBOUND:                -0.719
REMARK  Name = 
REMARK  5 active torsions:
REMARK  status: ('A' for Active; 'I' for Inactive)
REMARK    1  A    between atoms: C_2  and  C_3
REMARK    2  A    between atoms: C_6  and  N_7
REMARK    3  A    between atoms: N_7  and  C_8
REMARK    4  A    between atoms: C_8  and  C_9
REMARK    5  A    between atoms: C_13  and  C_14
REMARK                            x       y       z     vdW  Elec       q    Type
REMARK                         _______ _______ _______ _____ _____    ______ ____
ROOT
ATOM      1  C   UNL     1      45.261   6.061  10.976  0.00  0.00    +0.000 A 
ATOM      2  C   UNL     1      43.904   5.861  11.185  0.00  0.00    +0.000 A 
ATOM      3  N   UNL     1      43.167   4.934  10.538  0.00  0.00    +0.000 NA
ATOM      4  C   UNL     1      43.816   4.158   9.633  0.00  0.00    +0.000 A 
ATOM      5  C   UNL     1      45.179   4.232   9.342  0.00  0.00    +0.000 A 
ATOM      6  C   UNL     1      45.893   5.205  10.058  0.00  0.00    +0.000 A 
ENDROOT
BRANCH   5   7
ATOM      7  C   UNL     1      45.838   3.352   8.350  0.00  0.00    +0.000 A 
ATOM      8  C   UNL     1      46.371   3.853   7.147  0.00  0.00    +0.000 A 
ATOM      9  C   UNL     1      46.979   3.011   6.207  0.00  0.00    +0.000 A 
ATOM     10  C   UNL     1      47.058   1.643   6.445  0.00  0.00    +0.000 A 
ATOM     11  C   UNL     1      46.540   1.133   7.625  0.00  0.00    +0.000 A 
ATOM     12  F   UNL     1      46.607  -0.184   7.862  0.00  0.00    +0.000 F 
ATOM     13  C   UNL     1      45.946   1.967   8.571  0.00  0.00    +0.000 A 
ENDBRANCH   5   7
BRANCH   1  14
ATOM     14  C   UNL     1      46.019   7.081  11.787  0.00  0.00    +0.000 C 
BRANCH  14  15
ATOM     15  N   UNL     1      47.261   6.518  12.292  0.00  0.00    +0.000 N 
ATOM     16  H   UNL     1      48.033   7.183  12.339  0.00  0.00    +0.000 HD
BRANCH  15  20
ATOM     17  C   UNL     1      47.490   4.275  15.710  0.00  0.00    +0.000 A 
ATOM     18  C   UNL     1      48.150   5.482  15.567  0.00  0.00    +0.000 A 
ATOM     19  N   UNL     1      48.050   6.247  14.445  0.00  0.00    +0.000 NA
ATOM     20  C   UNL     1      47.275   5.768  13.451  0.00  0.00    +0.000 A 
ATOM     21  C   UNL     1      46.632   4.537  13.607  0.00  0.00    +0.000 A 
ATOM     22  N   UNL     1      46.705   3.774  14.730  0.00  0.00    +0.000 NA
BRANCH  17  24
ATOM     23  N   UNL     1      47.697   2.840  17.861  0.00  0.00    +0.000 NA
ATOM     24  C   UNL     1      47.612   3.501  16.910  0.00  0.00    +0.000 C 
ENDBRANCH  17  24
ENDBRANCH  15  20
ENDBRANCH  14  15
ENDBRANCH   1  14
TORSDOF 5
ENDMDL
MODEL 4
REMARK VINA RESULT:    -6.850      3.817      7.400
REMARK INTER + INTRA:          -9.572
REMARK INTER:                  -9.160
REMARK INTRA:                  -0.412
REMARK UNBOUND:                -0.719
REMARK  Name = 
REMARK  5 active torsions:
REMARK  status: ('A' for Active; 'I' for Inactive)
REMARK    1  A    between atoms: C_2  and  C_3
REMARK    2  A    between atoms: C_6  and  N_7
REMARK    3  A    between atoms: N_7  and  C_8
REMARK    4  A    between atoms: C_8  and  C_9
REMARK    5  A    between atoms: C_13  and  C_14
REMARK                            x       y       z     vdW  Elec       q    Type
REMARK                         _______ _______ _______ _____ _____    ______ ____
ROOT
ATOM      1  C   UNL     1      45.552   5.579  12.340  0.00  0.00    +0.000 A 
ATOM      2  C   UNL     1      46.428   6.422  11.671  0.00  0.00    +0.000 A 
ATOM      3  N   UNL     1      47.616   6.826  12.167  0.00  0.00    +0.000 NA
ATOM      4  C   UNL     1      47.957   6.364  13.397  0.00  0.00    +0.000 A 
ATOM      5  C   UNL     1      47.185   5.493  14.169  0.00  0.00    +0.000 A 
ATOM      6  C   UNL     1      45.969   5.098  13.591  0.00  0.00    +0.000 A 
ENDROOT
BRANCH   5   7
ATOM      7  C   UNL     1      47.611   5.011  15.502  0.00  0.00    +0.000 A 
ATOM      8  C   UNL     1      48.609   5.667  16.248  0.00  0.00    +0.000 A 
ATOM      9  C   UNL     1      49.018   5.196  17.502  0.00  0.00    +0.000 A 
ATOM     10  C   UNL     1      48.442   4.048  18.036  0.00  0.00    +0.000 A 
ATOM     11  C   UNL     1      47.457   3.391  17.317  0.00  0.00    +0.000 A 
ATOM     12  F   UNL     1      46.899   2.282  17.821  0.00  0.00    +0.000 F 
ATOM     13  C   UNL     1      47.036   3.862  16.075  0.00  0.00    +0.000 A 
ENDBRANCH   5   7
BRANCH   1  14
ATOM     14  C   UNL     1      44.271   5.132  11.684  0.00  0.00    +0.000 C 
BRANCH  14  15
ATOM     15  N   UNL     1      44.410   3.789  11.143  0.00  0.00    +0.000 N 
ATOM     16  H   UNL     1      43.573   3.214  11.231  0.00  0.00    +0.000 HD
BRANCH  15  20
ATOM     17  C   UNL     1      46.116   3.120   7.481  0.00  0.00    +0.000 A 
ATOM     18  C   UNL     1      45.833   2.097   8.368  0.00  0.00    +0.000 A 
ATOM     19  N   UNL     1      45.236   2.312   9.572  0.00  0.00    +0.000 NA
ATOM     20  C   UNL     1      44.933   3.589   9.881  0.00  0.00    +0.000 A 
ATOM     21  C   UNL     1      45.245   4.611   8.980  0.00  0.00    +0.000 A 
ATOM     22  N   UNL     1      45.821   4.409   7.766  0.00  0.00    +0.000 NA
BRANCH  17  24
ATOM     23  N   UNL     1      47.269   2.616   5.213  0.00  0.00    +0.000 NA
ATOM     24  C   UNL     1      46.737   2.856   6.217  0.00  0.00    +0.000 C 
ENDBRANCH  17  24
ENDBRANCH  15  20
ENDBRANCH  14  15
ENDBRANCH   1  14
TORSDOF 5
ENDMDL
MODEL 5
REMARK VINA RESULT:    -6.844      1.662      2.107
REMARK INTER + INTRA:          -9.563
REMARK INTER:                  -9.134
REMARK INTRA:                  -0.429
REMARK UNBOUND:                -0.719
REMARK  Name = 
REMARK  5 active torsions:
REMARK  status: ('A' for Active; 'I' for Inactive)
REMARK    1  A    between atoms: C_2  and  C_3
REMARK    2  A    between atoms: C_6  and  N_7
REMARK    3  A    between atoms: N_7  and  C_8
REMARK    4  A    between atoms: C_8  and  C_9
REMARK    5  A    between atoms: C_13  and  C_14
REMARK                            x       y       z     vdW  Elec       q    Type
REMARK                         _______ _______ _______ _____ _____    ______ ____
ROOT
ATOM      1  C   UNL     1      44.662   4.117  11.722  0.00  0.00    +0.000 A 
ATOM      2  C   UNL     1      43.647   4.932  11.241  0.00  0.00    +0.000 A 
ATOM      3  N   UNL     1      43.354   5.082   9.932  0.00  0.00    +0.000 NA
ATOM      4  C   UNL     1      44.109   4.380   9.050  0.00  0.00    +0.000 A 
ATOM      5  C   UNL     1      45.142   3.506   9.395  0.00  0.00    +0.000 A 
ATOM      6  C   UNL     1      45.388   3.382  10.771  0.00  0.00    +0.000 A 
ENDROOT
BRANCH   5   7
ATOM      7  C   UNL     1      45.929   2.756   8.389  0.00  0.00    +0.000 A 
ATOM      8  C   UNL     1      46.604   3.404   7.337  0.00  0.00    +0.000 A 
ATOM      9  C   UNL     1      47.333   2.686   6.380  0.00  0.00    +0.000 A 
ATOM     10  C   UNL     1      47.395   1.299   6.450  0.00  0.00    +0.000 A 
ATOM     11  C   UNL     1      46.738   0.645   7.479  0.00  0.00    +0.000 A 
ATOM     12  F   UNL     1      46.788  -0.692   7.552  0.00  0.00    +0.000 F 
ATOM     13  C   UNL     1      46.023   1.354   8.443  0.00  0.00    +0.000 A 
ENDBRANCH   5   7
BRANCH   1  14
ATOM     14  C   UNL     1      44.881   3.964  13.205  0.00  0.00    +0.000 C 
BRANCH  14  15
ATOM     15  N   UNL     1      46.302   3.938  13.517  0.00  0.00    +0.000 N 
ATOM     16  H   UNL     1      46.855   3.346  12.897  0.00  0.00    +0.000 HD
BRANCH  15  20
ATOM     17  C   UNL     1      48.288   7.435  14.285  0.00  0.00    +0.000 A 
ATOM     18  C   UNL     1      48.405   6.319  15.095  0.00  0.00    +0.000 A 
ATOM     19  N   UNL     1      47.773   5.144  14.825  0.00  0.00    +0.000 NA
ATOM     20  C   UNL     1      47.000   5.110  13.719  0.00  0.00    +0.000 A 
ATOM     21  C   UNL     1      46.879   6.254  12.925  0.00  0.00    +0.000 A 
ATOM     22  N   UNL     1      47.522   7.426  13.170  0.00  0.00    +0.000 NA
BRANCH  17  24
ATOM     23  N   UNL     1      49.557   9.634  14.814  0.00  0.00    +0.000 NA
ATOM     24  C   UNL     1      48.976   8.653  14.596  0.00  0.00    +0.000 C 
ENDBRANCH  17  24
ENDBRANCH  15  20
ENDBRANCH  14  15
ENDBRANCH   1  14
TORSDOF 5
ENDMDL
MODEL 6
REMARK VINA RESULT:    -6.839      3.278      4.025
REMARK INTER + INTRA:          -9.557
REMARK INTER:                  -9.107
REMARK INTRA:                  -0.450
REMARK UNBOUND:                -0.719
REMARK  Name = 
REMARK  5 active torsions:
REMARK  status: ('A' for Active; 'I' for Inactive)
REMARK    1  A    between atoms: C_2  and  C_3
REMARK    2  A    between atoms: C_6  and  N_7
REMARK    3  A    between atoms: N_7  and  C_8
REMARK    4  A    between atoms: C_8  and  C_9
REMARK    5  A    between atoms: C_13  and  C_14
REMARK                            x       y       z     vdW  Elec       q    Type
REMARK                         _______ _______ _______ _____ _____    ______ ____
ROOT
ATOM      1  C   UNL     1      44.980   5.160  12.392  0.00  0.00    +0.000 A 
ATOM      2  C   UNL     1      43.635   5.480  12.275  0.00  0.00    +0.000 A 
ATOM      3  N   UNL     1      42.876   5.178  11.201  0.00  0.00    +0.000 NA
ATOM      4  C   UNL     1      43.487   4.514  10.186  0.00  0.00    +0.000 A 
ATOM      5  C   UNL     1      44.822   4.108  10.181  0.00  0.00    +0.000 A 
ATOM      6  C   UNL     1      45.554   4.439  11.332  0.00  0.00    +0.000 A 
ENDROOT
BRANCH   5   7
ATOM      7  C   UNL     1      45.435   3.377   9.049  0.00  0.00    +0.000 A 
ATOM      8  C   UNL     1      45.626   1.982   9.080  0.00  0.00    +0.000 A 
ATOM      9  C   UNL     1      46.222   1.298   8.012  0.00  0.00    +0.000 A 
ATOM     10  C   UNL     1      46.650   1.999   6.890  0.00  0.00    +0.000 A 
ATOM     11  C   UNL     1      46.468   3.371   6.842  0.00  0.00    +0.000 A 
ATOM     12  F   UNL     1      46.882   4.056   5.766  0.00  0.00    +0.000 F 
ATOM     13  C   UNL     1      45.864   4.055   7.895  0.00  0.00    +0.000 A 
ENDBRANCH   5   7
BRANCH   1  14
ATOM     14  C   UNL     1      45.736   5.485  13.655  0.00  0.00    +0.000 C 
BRANCH  14  15
ATOM     15  N   UNL     1      46.391   4.300  14.184  0.00  0.00    +0.000 N 
ATOM     16  H   UNL     1      46.911   3.764  13.489  0.00  0.00    +0.000 HD
BRANCH  15  20
ATOM     17  C   UNL     1      48.513   4.553  17.677  0.00  0.00    +0.000 A 
ATOM     18  C   UNL     1      47.475   3.655  17.500  0.00  0.00    +0.000 A 
ATOM     19  N   UNL     1      46.789   3.545  16.329  0.00  0.00    +0.000 NA
ATOM     20  C   UNL     1      47.159   4.370  15.329  0.00  0.00    +0.000 A 
ATOM     21  C   UNL     1      48.197   5.283  15.533  0.00  0.00    +0.000 A 
ATOM     22  N   UNL     1      48.905   5.389  16.689  0.00  0.00    +0.000 NA
BRANCH  17  24
ATOM     23  N   UNL     1      49.754   4.707  19.949  0.00  0.00    +0.000 NA
ATOM     24  C   UNL     1      49.219   4.635  18.921  0.00  0.00    +0.000 C 
ENDBRANCH  17  24
ENDBRANCH  15  20
ENDBRANCH  14  15
ENDBRANCH   1  14
TORSDOF 5
ENDMDL
MODEL 7
REMARK VINA RESULT:    -6.790      1.724      2.177
REMARK INTER + INTRA:          -9.493
REMARK INTER:                  -8.985
REMARK INTRA:                  -0.509
REMARK UNBOUND:                -0.719
REMARK  Name = 
REMARK  5 active torsions:
REMARK  status: ('A' for Active; 'I' for Inactive)
REMARK    1  A    between atoms: C_2  and  C_3
REMARK    2  A    between atoms: C_6  and  N_7
REMARK    3  A    between atoms: N_7  and  C_8
REMARK    4  A    between atoms: C_8  and  C_9
REMARK    5  A    between atoms: C_13  and  C_14
REMARK                            x       y       z     vdW  Elec       q    Type
REMARK                         _______ _______ _______ _____ _____    ______ ____
ROOT
ATOM      1  C   UNL     1      45.004   6.309  11.272  0.00  0.00    +0.000 A 
ATOM      2  C   UNL     1      43.706   6.013  11.664  0.00  0.00    +0.000 A 
ATOM      3  N   UNL     1      42.984   4.985  11.173  0.00  0.00    +0.000 NA
ATOM      4  C   UNL     1      43.586   4.202  10.242  0.00  0.00    +0.000 A 
ATOM      5  C   UNL     1      44.891   4.369   9.776  0.00  0.00    +0.000 A 
ATOM      6  C   UNL     1      45.595   5.446  10.336  0.00  0.00    +0.000 A 
ENDROOT
BRANCH   5   7
ATOM      7  C   UNL     1      45.503   3.477   8.764  0.00  0.00    +0.000 A 
ATOM      8  C   UNL     1      45.668   2.097   8.990  0.00  0.00    +0.000 A 
ATOM      9  C   UNL     1      46.263   1.262   8.035  0.00  0.00    +0.000 A 
ATOM     10  C   UNL     1      46.715   1.793   6.832  0.00  0.00    +0.000 A 
ATOM     11  C   UNL     1      46.559   3.148   6.592  0.00  0.00    +0.000 A 
ATOM     12  F   UNL     1      46.996   3.670   5.437  0.00  0.00    +0.000 F 
ATOM     13  C   UNL     1      45.956   3.982   7.532  0.00  0.00    +0.000 A 
ENDBRANCH   5   7
BRANCH   1  14
ATOM     14  C   UNL     1      45.758   7.444  11.917  0.00  0.00    +0.000 C 
BRANCH  14  15
ATOM     15  N   UNL     1      46.257   7.053  13.226  0.00  0.00    +0.000 N 
ATOM     16  H   UNL     1      46.053   6.087  13.480  0.00  0.00    +0.000 HD
BRANCH  15  20
ATOM     17  C   UNL     1      50.176   7.815  14.136  0.00  0.00    +0.000 A 
ATOM     18  C   UNL     1      49.480   8.535  13.181  0.00  0.00    +0.000 A 
ATOM     19  N   UNL     1      48.168   8.307  12.899  0.00  0.00    +0.000 NA
ATOM     20  C   UNL     1      47.560   7.323  13.592  0.00  0.00    +0.000 A 
ATOM     21  C   UNL     1      48.286   6.593  14.538  0.00  0.00    +0.000 A 
ATOM     22  N   UNL     1      49.589   6.825  14.846  0.00  0.00    +0.000 NA
BRANCH  17  24
ATOM     23  N   UNL     1      52.662   8.328  14.672  0.00  0.00    +0.000 NA
ATOM     24  C   UNL     1      51.555   8.090  14.412  0.00  0.00    +0.000 C 
ENDBRANCH  17  24
ENDBRANCH  15  20
ENDBRANCH  14  15
ENDBRANCH   1  14
TORSDOF 5
ENDMDL
MODEL 8
REMARK VINA RESULT:    -6.306      4.234      6.288
REMARK INTER + INTRA:          -8.869
REMARK INTER:                  -8.231
REMARK INTRA:                  -0.638
REMARK UNBOUND:                -0.719
REMARK  Name = 
REMARK  5 active torsions:
REMARK  status: ('A' for Active; 'I' for Inactive)
REMARK    1  A    between atoms: C_2  and  C_3
REMARK    2  A    between atoms: C_6  and  N_7
REMARK    3  A    between atoms: N_7  and  C_8
REMARK    4  A    between atoms: C_8  and  C_9
REMARK    5  A    between atoms: C_13  and  C_14
REMARK                            x       y       z     vdW  Elec       q    Type
REMARK                         _______ _______ _______ _____ _____    ______ ____
ROOT
ATOM      1  C   UNL     1      48.242   6.625  14.301  0.00  0.00    +0.000 A 
ATOM      2  C   UNL     1      48.830   7.491  13.390  0.00  0.00    +0.000 A 
ATOM      3  N   UNL     1      48.431   7.626  12.109  0.00  0.00    +0.000 NA
ATOM      4  C   UNL     1      47.384   6.860  11.709  0.00  0.00    +0.000 A 
ATOM      5  C   UNL     1      46.684   5.968  12.523  0.00  0.00    +0.000 A 
ATOM      6  C   UNL     1      47.138   5.884  13.849  0.00  0.00    +0.000 A 
ENDROOT
BRANCH   5   7
ATOM      7  C   UNL     1      45.541   5.164  12.036  0.00  0.00    +0.000 A 
ATOM      8  C   UNL     1      44.735   4.409  12.911  0.00  0.00    +0.000 A 
ATOM      9  C   UNL     1      43.664   3.637  12.441  0.00  0.00    +0.000 A 
ATOM     10  C   UNL     1      43.381   3.596  11.080  0.00  0.00    +0.000 A 
ATOM     11  C   UNL     1      44.161   4.334  10.206  0.00  0.00    +0.000 A 
ATOM     12  F   UNL     1      43.899   4.297   8.892  0.00  0.00    +0.000 F 
ATOM     13  C   UNL     1      45.220   5.115  10.668  0.00  0.00    +0.000 A 
ENDBRANCH   5   7
BRANCH   1  14
ATOM     14  C   UNL     1      48.716   6.582  15.732  0.00  0.00    +0.000 C 
BRANCH  14  15
ATOM     15  N   UNL     1      48.159   5.431  16.425  0.00  0.00    +0.000 N 
ATOM     16  H   UNL     1      47.312   5.056  15.999  0.00  0.00    +0.000 HD
BRANCH  15  20
ATOM     17  C   UNL     1      50.675   2.344  17.376  0.00  0.00    +0.000 A 
ATOM     18  C   UNL     1      50.993   3.667  17.625  0.00  0.00    +0.000 A 
ATOM     19  N   UNL     1      50.145   4.694  17.341  0.00  0.00    +0.000 NA
ATOM     20  C   UNL     1      48.962   4.367  16.784  0.00  0.00    +0.000 A 
ATOM     21  C   UNL     1      48.667   3.027  16.521  0.00  0.00    +0.000 A 
ATOM     22  N   UNL     1      49.494   1.990  16.819  0.00  0.00    +0.000 NA
BRANCH  17  24
ATOM     23  N   UNL     1      52.341   0.453  17.991  0.00  0.00    +0.000 NA
ATOM     24  C   UNL     1      51.590   1.288  17.696  0.00  0.00    +0.000 C 
ENDBRANCH  17  24
ENDBRANCH  15  20
ENDBRANCH  14  15
ENDBRANCH   1  14
TORSDOF 5
ENDMDL
MODEL 9
REMARK VINA RESULT:    -6.223      3.384      4.870
REMARK INTER + INTRA:          -8.762
REMARK INTER:                  -8.287
REMARK INTRA:                  -0.474
REMARK UNBOUND:                -0.719
REMARK  Name = 
REMARK  5 active torsions:
REMARK  status: ('A' for Active; 'I' for Inactive)
REMARK    1  A    between atoms: C_2  and  C_3
REMARK    2  A    between atoms: C_6  and  N_7
REMARK    3  A    between atoms: N_7  and  C_8
REMARK    4  A    between atoms: C_8  and  C_9
REMARK    5  A    between atoms: C_13  and  C_14
REMARK                            x       y       z     vdW  Elec       q    Type
REMARK                         _______ _______ _______ _____ _____    ______ ____
ROOT
ATOM      1  C   UNL     1      47.141   7.386  12.853  0.00  0.00    +0.000 A 
ATOM      2  C   UNL     1      46.251   8.451  12.857  0.00  0.00    +0.000 A 
ATOM      3  N   UNL     1      45.106   8.483  12.144  0.00  0.00    +0.000 NA
ATOM      4  C   UNL     1      44.825   7.392  11.386  0.00  0.00    +0.000 A 
ATOM      5  C   UNL     1      45.616   6.244  11.308  0.00  0.00    +0.000 A 
ATOM      6  C   UNL     1      46.785   6.267  12.084  0.00  0.00    +0.000 A 
ENDROOT
BRANCH   5   7
ATOM      7  C   UNL     1      45.256   5.076  10.472  0.00  0.00    +0.000 A 
ATOM      8  C   UNL     1      44.505   3.999  10.981  0.00  0.00    +0.000 A 
ATOM      9  C   UNL     1      44.182   2.889  10.188  0.00  0.00    +0.000 A 
ATOM     10  C   UNL     1      44.613   2.829   8.868  0.00  0.00    +0.000 A 
ATOM     11  C   UNL     1      45.350   3.881   8.350  0.00  0.00    +0.000 A 
ATOM     12  F   UNL     1      45.773   3.830   7.079  0.00  0.00    +0.000 F 
ATOM     13  C   UNL     1      45.663   4.994   9.128  0.00  0.00    +0.000 A 
ENDBRANCH   5   7
BRANCH   1  14
ATOM     14  C   UNL     1      48.369   7.413  13.727  0.00  0.00    +0.000 C 
BRANCH  14  15
ATOM     15  N   UNL     1      48.026   7.102  15.106  0.00  0.00    +0.000 N 
ATOM     16  H   UNL     1      47.086   6.728  15.230  0.00  0.00    +0.000 HD
BRANCH  15  20
ATOM     17  C   UNL     1      50.689   4.898  17.302  0.00  0.00    +0.000 A 
ATOM     18  C   UNL     1      51.023   6.112  16.727  0.00  0.00    +0.000 A 
ATOM     19  N   UNL     1      50.131   6.863  16.025  0.00  0.00    +0.000 NA
ATOM     20  C   UNL     1      48.885   6.364  15.896  0.00  0.00    +0.000 A 
ATOM     21  C   UNL     1      48.573   5.127  16.466  0.00  0.00    +0.000 A 
ATOM     22  N   UNL     1      49.446   4.377  17.189  0.00  0.00    +0.000 NA
BRANCH  17  24
ATOM     23  N   UNL     1      52.404   3.517  18.673  0.00  0.00    +0.000 NA
ATOM     24  C   UNL     1      51.652   4.138  18.042  0.00  0.00    +0.000 C 
ENDBRANCH  17  24
ENDBRANCH  15  20
ENDBRANCH  14  15
ENDBRANCH   1  14
TORSDOF 5
ENDMDL
