MODEL 1
REMARK VINA RESULT:    -8.068      0.000      0.000
REMARK INTER + INTRA:         -10.537
REMARK INTER:                  -9.955
REMARK INTRA:                  -0.582
REMARK UNBOUND:                -0.582
REMARK  Name = 
REMARK  4 active torsions:
REMARK  status: ('A' for Active; 'I' for Inactive)
REMARK    1  A    between atoms: C_2  and  C_4
REMARK    2  A    between atoms: C_7  and  O_8
REMARK    3  A    between atoms: O_8  and  C_9
REMARK    4  A    between atoms: C_9  and  C_10
REMARK                            x       y       z     vdW  Elec       q    Type
REMARK                         _______ _______ _______ _____ _____    ______ ____
ROOT
ATOM      1  C   UNL     1      46.536   2.740   7.563  0.00  0.00    +0.000 A 
ATOM      2  C   UNL     1      46.176   4.083   7.748  0.00  0.00    +0.000 A 
ATOM      3  C   UNL     1      45.259   4.435   8.745  0.00  0.00    +0.000 A 
ATOM      4  C   UNL     1      44.680   3.441   9.530  0.00  0.00    +0.000 A 
ATOM      5  C   UNL     1      45.066   2.108   9.378  0.00  0.00    +0.000 A 
ATOM      6  C   UNL     1      45.982   1.754   8.390  0.00  0.00    +0.000 A 
ENDROOT
BRANCH   1   8
ATOM      7  N   UNL     1      47.409   3.005   5.304  0.00  0.00    +0.000 N 
ATOM      8  C   UNL     1      47.462   2.313   6.482  0.00  0.00    +0.000 C 
ATOM      9  O   UNL     1      48.265   1.400   6.641  0.00  0.00    +0.000 OA
ATOM     10  H   UNL     1      48.103   2.762   4.610  0.00  0.00    +0.000 HD
ATOM     11  H   UNL     1      46.959   3.906   5.227  0.00  0.00    +0.000 HD
ENDBRANCH   1   8
BRANCH   4  12
ATOM     12  O   UNL     1      43.727   3.670  10.485  0.00  0.00    +0.000 OA
BRANCH  12  13
ATOM     13  C   UNL     1      43.858   4.845  11.331  0.00  0.00    +0.000 C 
ATOM     14  C   UNL     1      42.541   5.155  12.042  0.00  0.00    +0.000 C 
ATOM     15  C   UNL     1      43.077   6.117  11.037  0.00  0.00    +0.000 C 
BRANCH  13  16
ATOM     16  C   UNL     1      45.143   4.928  12.147  0.00  0.00    +0.000 A 
ATOM     17  C   UNL     1      45.955   6.065  12.061  0.00  0.00    +0.000 A 
ATOM     18  C   UNL     1      47.133   6.140  12.799  0.00  0.00    +0.000 A 
ATOM     19  C   UNL     1      47.485   5.079  13.618  0.00  0.00    +0.000 A 
ATOM     20  C   UNL     1      46.639   3.986  13.662  0.00  0.00    +0.000 A 
ATOM     21  N   UNL     1      45.488   3.890  12.957  0.00  0.00    +0.000 NA
ENDBRANCH  13  16
ENDBRANCH  12  13
ENDBRANCH   4  12
TORSDOF 4
ENDMDL
MODEL 2
REMARK VINA RESULT:    -7.397      0.951      1.549
REMARK INTER + INTRA:          -9.709
REMARK INTER:                 -10.255
REMARK INTRA:                   0.546
REMARK UNBOUND:                -0.582
REMARK  Name = 
REMARK  4 active torsions:
REMARK  status: ('A' for Active; 'I' for Inactive)
REMARK    1  A    between atoms: C_2  and  C_4
REMARK    2  A    between atoms: C_7  and  O_8
REMARK    3  A    between atoms: O_8  and  C_9
REMARK    4  A    between atoms: C_9  and  C_10
REMARK                            x       y       z     vdW  Elec       q    Type
REMARK                         _______ _______ _______ _____ _____    ______ ____
ROOT
ATOM      1  C   UNL     1      46.318   2.290   7.831  0.00  0.00    +0.000 A 
ATOM      2  C   UNL     1      45.440   1.709   8.757  0.00  0.00    +0.000 A 
ATOM      3  C   UNL     1      44.549   2.509   9.481  0.00  0.00    +0.000 A 
ATOM      4  C   UNL     1      44.564   3.890   9.303  0.00  0.00    +0.000 A 
ATOM      5  C   UNL     1      45.407   4.470   8.352  0.00  0.00    +0.000 A 
ATOM      6  C   UNL     1      46.292   3.675   7.626  0.00  0.00    +0.000 A 
ENDROOT
BRANCH   1   8
ATOM      7  N   UNL     1      48.427   2.140   6.619  0.00  0.00    +0.000 N 
ATOM      8  C   UNL     1      47.319   1.487   7.081  0.00  0.00    +0.000 C 
ATOM      9  O   UNL     1      47.179   0.281   6.905  0.00  0.00    +0.000 OA
ATOM     10  H   UNL     1      49.139   1.566   6.188  0.00  0.00    +0.000 HD
ATOM     11  H   UNL     1      48.698   3.051   6.960  0.00  0.00    +0.000 HD
ENDBRANCH   1   8
BRANCH   4  12
ATOM     12  O   UNL     1      43.783   4.767  10.005  0.00  0.00    +0.000 OA
BRANCH  12  13
ATOM     13  C   UNL     1      43.950   4.846  11.447  0.00  0.00    +0.000 C 
ATOM     14  C   UNL     1      43.349   3.621  12.134  0.00  0.00    +0.000 C 
ATOM     15  C   UNL     1      42.750   4.965  12.373  0.00  0.00    +0.000 C 
BRANCH  13  16
ATOM     16  C   UNL     1      45.314   5.331  11.925  0.00  0.00    +0.000 A 
ATOM     17  C   UNL     1      45.923   6.430  11.308  0.00  0.00    +0.000 A 
ATOM     18  C   UNL     1      47.172   6.869  11.737  0.00  0.00    +0.000 A 
ATOM     19  C   UNL     1      47.800   6.206  12.781  0.00  0.00    +0.000 A 
ATOM     20  C   UNL     1      47.145   5.130  13.351  0.00  0.00    +0.000 A 
ATOM     21  N   UNL     1      45.930   4.685  12.953  0.00  0.00    +0.000 NA
ENDBRANCH  13  16
ENDBRANCH  12  13
ENDBRANCH   4  12
TORSDOF 4
ENDMDL
MODEL 3
REMARK VINA RESULT:    -6.106      2.816      6.154
REMARK INTER + INTRA:          -8.116
REMARK INTER:                  -7.829
REMARK INTRA:                  -0.287
REMARK UNBOUND:                -0.582
REMARK  Name = 
REMARK  4 active torsions:
REMARK  status: ('A' for Active; 'I' for Inactive)
REMARK    1  A    between atoms: C_2  and  C_4
REMARK    2  A    between atoms: C_7  and  O_8
REMARK    3  A    between atoms: O_8  and  C_9
REMARK    4  A    between atoms: C_9  and  C_10
REMARK                            x       y       z     vdW  Elec       q    Type
REMARK                         _______ _______ _______ _____ _____    ______ ____
ROOT
ATOM      1  C   UNL     1      46.660   7.961  12.706  0.00  0.00    +0.000 A 
ATOM      2  C   UNL     1      45.265   7.911  12.842  0.00  0.00    +0.000 A 
ATOM      3  C   UNL     1      44.514   7.026  12.059  0.00  0.00    +0.000 A 
ATOM      4  C   UNL     1      45.155   6.222  11.121  0.00  0.00    +0.000 A 
ATOM      5  C   UNL     1      46.547   6.239  11.012  0.00  0.00    +0.000 A 
ATOM      6  C   UNL     1      47.299   7.114  11.792  0.00  0.00    +0.000 A 
ENDROOT
BRANCH   1   8
ATOM      7  N   UNL     1      47.386   8.891  14.838  0.00  0.00    +0.000 N 
ATOM      8  C   UNL     1      47.492   8.923  13.476  0.00  0.00    +0.000 C 
ATOM      9  O   UNL     1      48.266   9.696  12.922  0.00  0.00    +0.000 OA
ATOM     10  H   UNL     1      48.020   9.489  15.351  0.00  0.00    +0.000 HD
ATOM     11  H   UNL     1      46.968   8.115  15.330  0.00  0.00    +0.000 HD
ENDBRANCH   1   8
BRANCH   4  12
ATOM     12  O   UNL     1      44.511   5.373  10.263  0.00  0.00    +0.000 OA
BRANCH  12  13
ATOM     13  C   UNL     1      44.759   3.945  10.380  0.00  0.00    +0.000 C 
ATOM     14  C   UNL     1      43.554   3.230  10.988  0.00  0.00    +0.000 C 
ATOM     15  C   UNL     1      44.841   3.269  11.739  0.00  0.00    +0.000 C 
BRANCH  13  16
ATOM     16  C   UNL     1      45.440   3.296   9.180  0.00  0.00    +0.000 A 
ATOM     17  C   UNL     1      45.839   4.081   8.092  0.00  0.00    +0.000 A 
ATOM     18  C   UNL     1      46.454   3.489   6.992  0.00  0.00    +0.000 A 
ATOM     19  C   UNL     1      46.664   2.119   6.991  0.00  0.00    +0.000 A 
ATOM     20  C   UNL     1      46.250   1.400   8.097  0.00  0.00    +0.000 A 
ATOM     21  N   UNL     1      45.653   1.951   9.179  0.00  0.00    +0.000 NA
ENDBRANCH  13  16
ENDBRANCH  12  13
ENDBRANCH   4  12
TORSDOF 4
ENDMDL
MODEL 4
REMARK VINA RESULT:    -5.834      3.074      6.769
REMARK INTER + INTRA:          -7.780
REMARK INTER:                  -7.404
REMARK INTRA:                  -0.376
REMARK UNBOUND:                -0.582
REMARK  Name = 
REMARK  4 active torsions:
REMARK  status: ('A' for Active; 'I' for Inactive)
REMARK    1  A    between atoms: C_2  and  C_4
REMARK    2  A    between atoms: C_7  and  O_8
REMARK    3  A    between atoms: O_8  and  C_9
REMARK    4  A    between atoms: C_9  and  C_10
REMARK                            x       y       z     vdW  Elec       q    Type
REMARK                         _______ _______ _______ _____ _____    ______ ____
ROOT
ATOM      1  C   UNL     1      47.841   4.803  15.949  0.00  0.00    +0.000 A 
ATOM      2  C   UNL     1      47.150   3.901  15.126  0.00  0.00    +0.000 A 
ATOM      3  C   UNL     1      46.831   4.251  13.810  0.00  0.00    +0.000 A 
ATOM      4  C   UNL     1      47.170   5.515  13.332  0.00  0.00    +0.000 A 
ATOM      5  C   UNL     1      47.893   6.401  14.133  0.00  0.00    +0.000 A 
ATOM      6  C   UNL     1      48.218   6.053  15.442  0.00  0.00    +0.000 A 
ENDROOT
BRANCH   1   8
ATOM      7  N   UNL     1      47.164   4.715  18.288  0.00  0.00    +0.000 N 
ATOM      8  C   UNL     1      48.152   4.495  17.369  0.00  0.00    +0.000 C 
ATOM      9  O   UNL     1      49.237   4.035  17.708  0.00  0.00    +0.000 OA
ATOM     10  H   UNL     1      47.360   4.419  19.235  0.00  0.00    +0.000 HD
ATOM     11  H   UNL     1      46.198   4.841  18.023  0.00  0.00    +0.000 HD
ENDBRANCH   1   8
BRANCH   4  12
ATOM     12  O   UNL     1      46.848   5.981  12.086  0.00  0.00    +0.000 OA
BRANCH  12  13
ATOM     13  C   UNL     1      45.468   5.874  11.639  0.00  0.00    +0.000 C 
ATOM     14  C   UNL     1      44.851   7.258  11.441  0.00  0.00    +0.000 C 
ATOM     15  C   UNL     1      44.320   6.363  12.508  0.00  0.00    +0.000 C 
BRANCH  13  16
ATOM     16  C   UNL     1      45.203   4.819  10.573  0.00  0.00    +0.000 A 
ATOM     17  C   UNL     1      45.665   5.012   9.266  0.00  0.00    +0.000 A 
ATOM     18  C   UNL     1      45.418   4.053   8.288  0.00  0.00    +0.000 A 
ATOM     19  C   UNL     1      44.710   2.909   8.626  0.00  0.00    +0.000 A 
ATOM     20  C   UNL     1      44.283   2.776   9.935  0.00  0.00    +0.000 A 
ATOM     21  N   UNL     1      44.514   3.692  10.904  0.00  0.00    +0.000 NA
ENDBRANCH  13  16
ENDBRANCH  12  13
ENDBRANCH   4  12
TORSDOF 4
ENDMDL
MODEL 5
REMARK VINA RESULT:    -5.769      2.568      6.241
REMARK INTER + INTRA:          -7.700
REMARK INTER:                  -7.735
REMARK INTRA:                   0.035
REMARK UNBOUND:                -0.582
REMARK  Name = 
REMARK  4 active torsions:
REMARK  status: ('A' for Active; 'I' for Inactive)
REMARK    1  A    between atoms: C_2  and  C_4
REMARK    2  A    between atoms: C_7  and  O_8
REMARK    3  A    between atoms: O_8  and  C_9
REMARK    4  A    between atoms: C_9  and  C_10
REMARK                            x       y       z     vdW  Elec       q    Type
REMARK                         _______ _______ _______ _____ _____    ______ ____
ROOT
ATOM      1  C   UNL     1      47.236   4.499  14.948  0.00  0.00    +0.000 A 
ATOM      2  C   UNL     1      47.205   5.859  14.605  0.00  0.00    +0.000 A 
ATOM      3  C   UNL     1      46.661   6.265  13.382  0.00  0.00    +0.000 A 
ATOM      4  C   UNL     1      46.182   5.308  12.491  0.00  0.00    +0.000 A 
ATOM      5  C   UNL     1      46.172   3.957  12.844  0.00  0.00    +0.000 A 
ATOM      6  C   UNL     1      46.708   3.550  14.064  0.00  0.00    +0.000 A 
ENDROOT
BRANCH   1   8
ATOM      7  N   UNL     1      47.091   3.219  17.016  0.00  0.00    +0.000 N 
ATOM      8  C   UNL     1      47.854   4.019  16.211  0.00  0.00    +0.000 C 
ATOM      9  O   UNL     1      49.010   4.297  16.513  0.00  0.00    +0.000 OA
ATOM     10  H   UNL     1      47.553   2.829  17.827  0.00  0.00    +0.000 HD
ATOM     11  H   UNL     1      46.252   2.765  16.687  0.00  0.00    +0.000 HD
ENDBRANCH   1   8
BRANCH   4  12
ATOM     12  O   UNL     1      45.691   5.591  11.245  0.00  0.00    +0.000 OA
BRANCH  12  13
ATOM     13  C   UNL     1      44.762   4.654  10.634  0.00  0.00    +0.000 C 
ATOM     14  C   UNL     1      43.377   5.281  10.482  0.00  0.00    +0.000 C 
ATOM     15  C   UNL     1      43.562   4.122  11.402  0.00  0.00    +0.000 C 
BRANCH  13  16
ATOM     16  C   UNL     1      45.312   3.854   9.459  0.00  0.00    +0.000 A 
ATOM     17  C   UNL     1      45.256   2.456   9.476  0.00  0.00    +0.000 A 
ATOM     18  C   UNL     1      45.765   1.722   8.408  0.00  0.00    +0.000 A 
ATOM     19  C   UNL     1      46.324   2.395   7.332  0.00  0.00    +0.000 A 
ATOM     20  C   UNL     1      46.347   3.777   7.374  0.00  0.00    +0.000 A 
ATOM     21  N   UNL     1      45.856   4.512   8.399  0.00  0.00    +0.000 NA
ENDBRANCH  13  16
ENDBRANCH  12  13
ENDBRANCH   4  12
TORSDOF 4
ENDMDL
MODEL 6
REMARK VINA RESULT:    -5.758      2.748      5.836
REMARK INTER + INTRA:          -7.687
REMARK INTER:                  -7.822
REMARK INTRA:                   0.134
REMARK UNBOUND:                -0.582
REMARK  Name = 
REMARK  4 active torsions:
REMARK  status: ('A' for Active; 'I' for Inactive)
REMARK    1  A    between atoms: C_2  and  C_4
REMARK    2  A    between atoms: C_7  and  O_8
REMARK    3  A    between atoms: O_8  and  C_9
REMARK    4  A    between atoms: C_9  and  C_10
REMARK                            x       y       z     vdW  Elec       q    Type
REMARK                         _______ _______ _______ _____ _____    ______ ____
ROOT
ATOM      1  C   UNL     1      48.024   6.797  13.733  0.00  0.00    +0.000 A 
ATOM      2  C   UNL     1      47.529   7.953  13.111  0.00  0.00    +0.000 A 
ATOM      3  C   UNL     1      46.379   7.887  12.316  0.00  0.00    +0.000 A 
ATOM      4  C   UNL     1      45.749   6.661  12.117  0.00  0.00    +0.000 A 
ATOM      5  C   UNL     1      46.214   5.516  12.766  0.00  0.00    +0.000 A 
ATOM      6  C   UNL     1      47.355   5.578  13.563  0.00  0.00    +0.000 A 
ENDROOT
BRANCH   1   8
ATOM      7  N   UNL     1      50.334   7.508  14.038  0.00  0.00    +0.000 N 
ATOM      8  C   UNL     1      49.271   6.809  14.540  0.00  0.00    +0.000 C 
ATOM      9  O   UNL     1      49.345   6.244  15.626  0.00  0.00    +0.000 OA
ATOM     10  H   UNL     1      51.146   7.580  14.637  0.00  0.00    +0.000 HD
ATOM     11  H   UNL     1      50.234   8.185  13.296  0.00  0.00    +0.000 HD
ENDBRANCH   1   8
BRANCH   4  12
ATOM     12  O   UNL     1      44.661   6.475  11.308  0.00  0.00    +0.000 OA
BRANCH  12  13
ATOM     13  C   UNL     1      44.055   5.155  11.250  0.00  0.00    +0.000 C 
ATOM     14  C   UNL     1      42.539   5.243  11.419  0.00  0.00    +0.000 C 
ATOM     15  C   UNL     1      43.355   4.556  12.461  0.00  0.00    +0.000 C 
BRANCH  13  16
ATOM     16  C   UNL     1      44.596   4.230  10.166  0.00  0.00    +0.000 A 
ATOM     17  C   UNL     1      45.344   4.756   9.107  0.00  0.00    +0.000 A 
ATOM     18  C   UNL     1      45.833   3.915   8.111  0.00  0.00    +0.000 A 
ATOM     19  C   UNL     1      45.569   2.556   8.185  0.00  0.00    +0.000 A 
ATOM     20  C   UNL     1      44.827   2.098   9.258  0.00  0.00    +0.000 A 
ATOM     21  N   UNL     1      44.344   2.895  10.239  0.00  0.00    +0.000 NA
ENDBRANCH  13  16
ENDBRANCH  12  13
ENDBRANCH   4  12
TORSDOF 4
ENDMDL
MODEL 7
REMARK VINA RESULT:    -5.625      4.180      7.810
REMARK INTER + INTRA:          -7.523
REMARK INTER:                  -7.004
REMARK INTRA:                  -0.519
REMARK UNBOUND:                -0.582
REMARK  Name = 
REMARK  4 active torsions:
REMARK  status: ('A' for Active; 'I' for Inactive)
REMARK    1  A    between atoms: C_2  and  C_4
REMARK    2  A    between atoms: C_7  and  O_8
REMARK    3  A    between atoms: O_8  and  C_9
REMARK    4  A    between atoms: C_9  and  C_10
REMARK                            x       y       z     vdW  Elec       q    Type
REMARK                         _______ _______ _______ _____ _____    ______ ____
ROOT
ATOM      1  C   UNL     1      48.141   4.910  17.716  0.00  0.00    +0.000 A 
ATOM      2  C   UNL     1      48.790   6.003  17.125  0.00  0.00    +0.000 A 
ATOM      3  C   UNL     1      48.686   6.222  15.747  0.00  0.00    +0.000 A 
ATOM      4  C   UNL     1      47.964   5.328  14.960  0.00  0.00    +0.000 A 
ATOM      5  C   UNL     1      47.282   4.262  15.550  0.00  0.00    +0.000 A 
ATOM      6  C   UNL     1      47.379   4.044  16.922  0.00  0.00    +0.000 A 
ENDROOT
BRANCH   1   8
ATOM      7  N   UNL     1      48.394   3.292  19.522  0.00  0.00    +0.000 N 
ATOM      8  C   UNL     1      48.270   4.607  19.166  0.00  0.00    +0.000 C 
ATOM      9  O   UNL     1      48.295   5.494  20.012  0.00  0.00    +0.000 OA
ATOM     10  H   UNL     1      48.567   3.108  20.501  0.00  0.00    +0.000 HD
ATOM     11  H   UNL     1      48.635   2.573  18.856  0.00  0.00    +0.000 HD
ENDBRANCH   1   8
BRANCH   4  12
ATOM     12  O   UNL     1      47.854   5.413  13.599  0.00  0.00    +0.000 OA
BRANCH  12  13
ATOM     13  C   UNL     1      46.715   6.121  13.036  0.00  0.00    +0.000 C 
ATOM     14  C   UNL     1      47.152   7.028  11.886  0.00  0.00    +0.000 C 
ATOM     15  C   UNL     1      46.604   7.634  13.133  0.00  0.00    +0.000 C 
BRANCH  13  16
ATOM     16  C   UNL     1      45.453   5.289  12.844  0.00  0.00    +0.000 A 
ATOM     17  C   UNL     1      45.542   3.988  12.336  0.00  0.00    +0.000 A 
ATOM     18  C   UNL     1      44.390   3.228  12.152  0.00  0.00    +0.000 A 
ATOM     19  C   UNL     1      43.160   3.777  12.479  0.00  0.00    +0.000 A 
ATOM     20  C   UNL     1      43.139   5.066  12.979  0.00  0.00    +0.000 A 
ATOM     21  N   UNL     1      44.244   5.823  13.170  0.00  0.00    +0.000 NA
ENDBRANCH  13  16
ENDBRANCH  12  13
ENDBRANCH   4  12
TORSDOF 4
ENDMDL
MODEL 8
REMARK VINA RESULT:    -5.552      3.331      5.227
REMARK INTER + INTRA:          -7.432
REMARK INTER:                  -6.946
REMARK INTRA:                  -0.487
REMARK UNBOUND:                -0.582
REMARK  Name = 
REMARK  4 active torsions:
REMARK  status: ('A' for Active; 'I' for Inactive)
REMARK    1  A    between atoms: C_2  and  C_4
REMARK    2  A    between atoms: C_7  and  O_8
REMARK    3  A    between atoms: O_8  and  C_9
REMARK    4  A    between atoms: C_9  and  C_10
REMARK                            x       y       z     vdW  Elec       q    Type
REMARK                         _______ _______ _______ _____ _____    ______ ____
ROOT
ATOM      1  C   UNL     1      44.522   4.130  11.647  0.00  0.00    +0.000 A 
ATOM      2  C   UNL     1      45.282   4.137  12.826  0.00  0.00    +0.000 A 
ATOM      3  C   UNL     1      45.839   5.332  13.297  0.00  0.00    +0.000 A 
ATOM      4  C   UNL     1      45.665   6.506  12.569  0.00  0.00    +0.000 A 
ATOM      5  C   UNL     1      44.875   6.512  11.418  0.00  0.00    +0.000 A 
ATOM      6  C   UNL     1      44.314   5.326  10.949  0.00  0.00    +0.000 A 
ENDROOT
BRANCH   1   8
ATOM      7  N   UNL     1      44.616   2.318  10.021  0.00  0.00    +0.000 N 
ATOM      8  C   UNL     1      43.958   2.877  11.081  0.00  0.00    +0.000 C 
ATOM      9  O   UNL     1      42.962   2.342  11.558  0.00  0.00    +0.000 OA
ATOM     10  H   UNL     1      44.272   1.422   9.703  0.00  0.00    +0.000 HD
ATOM     11  H   UNL     1      45.560   2.577   9.774  0.00  0.00    +0.000 HD
ENDBRANCH   1   8
BRANCH   4  12
ATOM     12  O   UNL     1      46.220   7.711  12.904  0.00  0.00    +0.000 OA
BRANCH  12  13
ATOM     13  C   UNL     1      47.669   7.829  12.921  0.00  0.00    +0.000 C 
ATOM     14  C   UNL     1      48.138   8.920  11.959  0.00  0.00    +0.000 C 
ATOM     15  C   UNL     1      48.499   7.498  11.691  0.00  0.00    +0.000 C 
BRANCH  13  16
ATOM     16  C   UNL     1      48.317   7.771  14.300  0.00  0.00    +0.000 A 
ATOM     17  C   UNL     1      48.111   8.809  15.215  0.00  0.00    +0.000 A 
ATOM     18  C   UNL     1      48.708   8.762  16.472  0.00  0.00    +0.000 A 
ATOM     19  C   UNL     1      49.505   7.676  16.801  0.00  0.00    +0.000 A 
ATOM     20  C   UNL     1      49.667   6.681  15.854  0.00  0.00    +0.000 A 
ATOM     21  N   UNL     1      49.095   6.703  14.628  0.00  0.00    +0.000 NA
ENDBRANCH  13  16
ENDBRANCH  12  13
ENDBRANCH   4  12
TORSDOF 4
ENDMDL
MODEL 9
REMARK VINA RESULT:    -5.229      4.363      6.765
REMARK INTER + INTRA:          -7.035
REMARK INTER:                  -6.883
REMARK INTRA:                  -0.151
REMARK UNBOUND:                -0.582
REMARK  Name = 
REMARK  4 active torsions:
REMARK  status: ('A' for Active; 'I' for Inactive)
REMARK    1  A    between atoms: C_2  and  C_4
REMARK    2  A    between atoms: C_7  and  O_8
REMARK    3  A    between atoms: O_8  and  C_9
REMARK    4  A    between atoms: C_9  and  C_10
REMARK                            x       y       z     vdW  Elec       q    Type
REMARK                         _______ _______ _______ _____ _____    ______ ____
ROOT
ATOM      1  C   UNL     1      46.091   6.001  12.707  0.00  0.00    +0.000 A 
ATOM      2  C   UNL     1      47.121   6.368  13.585  0.00  0.00    +0.000 A 
ATOM      3  C   UNL     1      47.717   5.409  14.411  0.00  0.00    +0.000 A 
ATOM      4  C   UNL     1      47.259   4.094  14.380  0.00  0.00    +0.000 A 
ATOM      5  C   UNL     1      46.264   3.715  13.478  0.00  0.00    +0.000 A 
ATOM      6  C   UNL     1      45.671   4.666  12.651  0.00  0.00    +0.000 A 
ENDROOT
BRANCH   1   8
ATOM      7  N   UNL     1      44.818   6.537  10.699  0.00  0.00    +0.000 N 
ATOM      8  C   UNL     1      45.391   6.996  11.853  0.00  0.00    +0.000 C 
ATOM      9  O   UNL     1      45.300   8.176  12.176  0.00  0.00    +0.000 OA
ATOM     10  H   UNL     1      44.272   7.207  10.174  0.00  0.00    +0.000 HD
ATOM     11  H   UNL     1      44.649   5.556  10.534  0.00  0.00    +0.000 HD
ENDBRANCH   1   8
BRANCH   4  12
ATOM     12  O   UNL     1      47.728   3.095  15.190  0.00  0.00    +0.000 OA
BRANCH  12  13
ATOM     13  C   UNL     1      48.021   3.406  16.580  0.00  0.00    +0.000 C 
ATOM     14  C   UNL     1      46.954   2.822  17.505  0.00  0.00    +0.000 C 
ATOM     15  C   UNL     1      47.102   4.301  17.396  0.00  0.00    +0.000 C 
BRANCH  13  16
ATOM     16  C   UNL     1      49.480   3.255  16.994  0.00  0.00    +0.000 A 
ATOM     17  C   UNL     1      50.066   1.985  17.044  0.00  0.00    +0.000 A 
ATOM     18  C   UNL     1      51.397   1.844  17.429  0.00  0.00    +0.000 A 
ATOM     19  C   UNL     1      52.128   2.975  17.759  0.00  0.00    +0.000 A 
ATOM     20  C   UNL     1      51.492   4.201  17.687  0.00  0.00    +0.000 A 
ATOM     21  N   UNL     1      50.202   4.364  17.313  0.00  0.00    +0.000 NA
ENDBRANCH  13  16
ENDBRANCH  12  13
ENDBRANCH   4  12
TORSDOF 4
ENDMDL
