MODEL 1
REMARK VINA RESULT:    -8.645      0.000      0.000
REMARK INTER + INTRA:         -11.979
REMARK INTER:                 -11.172
REMARK INTRA:                  -0.807
REMARK UNBOUND:                -0.807
REMARK  Name = 
REMARK  6 active torsions:
REMARK  status: ('A' for Active; 'I' for Inactive)
REMARK    1  A    between atoms: C_1  and  C_2
REMARK    2  A    between atoms: C_5  and  C_6
REMARK    3  A    between atoms: C_6  and  C_7
REMARK    4  A    between atoms: C_10  and  C_11
REMARK    5  A    between atoms: C_11  and  N_12
REMARK    6  A    between atoms: C_13  and  C_15
REMARK                            x       y       z     vdW  Elec       q    Type
REMARK                         _______ _______ _______ _____ _____    ______ ____
ROOT
ATOM      1  C   UNL     1      46.982   7.962  13.342  0.00  0.00    +0.000 C 
ENDROOT
BRANCH   1   5
ATOM      2  C   UNL     1      44.662   5.280  10.981  0.00  0.00    +0.000 A 
ATOM      3  C   UNL     1      44.263   6.612  11.054  0.00  0.00    +0.000 A 
ATOM      4  C   UNL     1      44.996   7.493  11.847  0.00  0.00    +0.000 A 
ATOM      5  C   UNL     1      46.108   7.031  12.555  0.00  0.00    +0.000 A 
ATOM      6  C   UNL     1      46.426   5.685  12.429  0.00  0.00    +0.000 A 
ATOM      7  N   UNL     1      45.731   4.805  11.672  0.00  0.00    +0.000 NA
BRANCH   2   8
ATOM      8  C   UNL     1      43.964   4.322  10.041  0.00  0.00    +0.000 C 
BRANCH   8  13
ATOM      9  C   UNL     1      47.720   1.873   6.412  0.00  0.00    +0.000 C 
ATOM     10  C   UNL     1      46.728   2.461   7.363  0.00  0.00    +0.000 A 
ATOM     11  C   UNL     1      46.074   1.681   8.313  0.00  0.00    +0.000 A 
ATOM     12  C   UNL     1      45.160   2.274   9.178  0.00  0.00    +0.000 A 
ATOM     13  C   UNL     1      44.923   3.645   9.086  0.00  0.00    +0.000 A 
ATOM     14  N   UNL     1      45.535   4.421   8.156  0.00  0.00    +0.000 NA
ATOM     15  C   UNL     1      46.410   3.813   7.320  0.00  0.00    +0.000 A 
ENDBRANCH   8  13
ENDBRANCH   2   8
ENDBRANCH   1   5
BRANCH   1  16
ATOM     16  N   UNL     1      47.439   7.322  14.550  0.00  0.00    +0.000 N 
ATOM     17  C   UNL     1      48.708   6.816  14.666  0.00  0.00    +0.000 C 
ATOM     18  O   UNL     1      49.537   6.923  13.766  0.00  0.00    +0.000 OA
ATOM     19  H   UNL     1      46.724   7.008  15.199  0.00  0.00    +0.000 HD
BRANCH  17  20
ATOM     20  C   UNL     1      49.047   6.202  15.957  0.00  0.00    +0.000 A 
ATOM     21  C   UNL     1      50.085   6.725  16.718  0.00  0.00    +0.000 A 
ATOM     22  S   UNL     1      50.281   5.949  18.227  0.00  0.00    +0.000 S 
ATOM     23  C   UNL     1      49.024   4.852  17.891  0.00  0.00    +0.000 A 
ATOM     24  N   UNL     1      48.673   3.891  18.787  0.00  0.00    +0.000 NA
ATOM     25  C   UNL     1      47.725   3.109  18.389  0.00  0.00    +0.000 A 
ATOM     26  N   UNL     1      47.098   3.199  17.173  0.00  0.00    +0.000 N 
ATOM     27  C   UNL     1      47.408   4.162  16.244  0.00  0.00    +0.000 A 
ATOM     28  O   UNL     1      46.816   4.228  15.171  0.00  0.00    +0.000 OA
ATOM     29  C   UNL     1      48.462   5.074  16.646  0.00  0.00    +0.000 A 
ATOM     30  H   UNL     1      46.364   2.555  16.919  0.00  0.00    +0.000 HD
ENDBRANCH  17  20
ENDBRANCH   1  16
TORSDOF 5
ENDMDL
MODEL 2
REMARK VINA RESULT:    -7.851      2.481      4.411
REMARK INTER + INTRA:         -10.953
REMARK INTER:                  -9.865
REMARK INTRA:                  -1.088
REMARK UNBOUND:                -0.807
REMARK  Name = 
REMARK  6 active torsions:
REMARK  status: ('A' for Active; 'I' for Inactive)
REMARK    1  A    between atoms: C_1  and  C_2
REMARK    2  A    between atoms: C_5  and  C_6
REMARK    3  A    between atoms: C_6  and  C_7
REMARK    4  A    between atoms: C_10  and  C_11
REMARK    5  A    between atoms: C_11  and  N_12
REMARK    6  A    between atoms: C_13  and  C_15
REMARK                            x       y       z     vdW  Elec       q    Type
REMARK                         _______ _______ _______ _____ _____    ______ ____
ROOT
ATOM      1  C   UNL     1      47.178   5.081  14.655  0.00  0.00    +0.000 C 
ENDROOT
BRANCH   1   5
ATOM      2  C   UNL     1      44.883   3.730  11.329  0.00  0.00    +0.000 A 
ATOM      3  C   UNL     1      45.068   5.101  11.493  0.00  0.00    +0.000 A 
ATOM      4  C   UNL     1      45.791   5.556  12.593  0.00  0.00    +0.000 A 
ATOM      5  C   UNL     1      46.312   4.642  13.511  0.00  0.00    +0.000 A 
ATOM      6  C   UNL     1      46.070   3.295  13.272  0.00  0.00    +0.000 A 
ATOM      7  N   UNL     1      45.368   2.823  12.216  0.00  0.00    +0.000 NA
BRANCH   2   8
ATOM      8  C   UNL     1      44.207   3.192  10.088  0.00  0.00    +0.000 C 
BRANCH   8  13
ATOM      9  C   UNL     1      47.858   2.052   5.770  0.00  0.00    +0.000 C 
ATOM     10  C   UNL     1      46.921   2.398   6.882  0.00  0.00    +0.000 A 
ATOM     11  C   UNL     1      46.392   3.678   7.021  0.00  0.00    +0.000 A 
ATOM     12  C   UNL     1      45.521   3.951   8.071  0.00  0.00    +0.000 A 
ATOM     13  C   UNL     1      45.183   2.932   8.962  0.00  0.00    +0.000 A 
ATOM     14  N   UNL     1      45.701   1.683   8.855  0.00  0.00    +0.000 NA
ATOM     15  C   UNL     1      46.555   1.450   7.831  0.00  0.00    +0.000 A 
ENDBRANCH   8  13
ENDBRANCH   2   8
ENDBRANCH   1   5
BRANCH   1  16
ATOM     16  N   UNL     1      47.506   6.479  14.529  0.00  0.00    +0.000 N 
ATOM     17  C   UNL     1      48.677   6.997  15.020  0.00  0.00    +0.000 C 
ATOM     18  O   UNL     1      49.529   6.289  15.551  0.00  0.00    +0.000 OA
ATOM     19  H   UNL     1      46.738   7.112  14.324  0.00  0.00    +0.000 HD
BRANCH  17  20
ATOM     20  C   UNL     1      48.890   8.435  14.811  0.00  0.00    +0.000 A 
ATOM     21  C   UNL     1      49.071   9.271  15.906  0.00  0.00    +0.000 A 
ATOM     22  S   UNL     1      49.396  10.892  15.478  0.00  0.00    +0.000 S 
ATOM     23  C   UNL     1      49.249  10.544  13.818  0.00  0.00    +0.000 A 
ATOM     24  N   UNL     1      49.408  11.516  12.880  0.00  0.00    +0.000 NA
ATOM     25  C   UNL     1      49.238  11.117  11.663  0.00  0.00    +0.000 A 
ATOM     26  N   UNL     1      48.922   9.834  11.299  0.00  0.00    +0.000 N 
ATOM     27  C   UNL     1      48.768   8.817  12.209  0.00  0.00    +0.000 A 
ATOM     28  O   UNL     1      48.503   7.674  11.851  0.00  0.00    +0.000 OA
ATOM     29  C   UNL     1      48.957   9.210  13.593  0.00  0.00    +0.000 A 
ATOM     30  H   UNL     1      48.800   9.586  10.328  0.00  0.00    +0.000 HD
ENDBRANCH  17  20
ENDBRANCH   1  16
TORSDOF 5
ENDMDL
MODEL 3
REMARK VINA RESULT:    -7.841      1.997      2.468
REMARK INTER + INTRA:         -10.939
REMARK INTER:                 -10.019
REMARK INTRA:                  -0.920
REMARK UNBOUND:                -0.807
REMARK  Name = 
REMARK  6 active torsions:
REMARK  status: ('A' for Active; 'I' for Inactive)
REMARK    1  A    between atoms: C_1  and  C_2
REMARK    2  A    between atoms: C_5  and  C_6
REMARK    3  A    between atoms: C_6  and  C_7
REMARK    4  A    between atoms: C_10  and  C_11
REMARK    5  A    between atoms: C_11  and  N_12
REMARK    6  A    between atoms: C_13  and  C_15
REMARK                            x       y       z     vdW  Elec       q    Type
REMARK                         _______ _______ _______ _____ _____    ______ ____
ROOT
ATOM      1  C   UNL     1      47.829   7.304  13.894  0.00  0.00    +0.000 C 
ENDROOT
BRANCH   1   5
ATOM      2  C   UNL     1      45.049   5.412  11.278  0.00  0.00    +0.000 A 
ATOM      3  C   UNL     1      45.143   6.801  11.251  0.00  0.00    +0.000 A 
ATOM      4  C   UNL     1      46.026   7.433  12.124  0.00  0.00    +0.000 A 
ATOM      5  C   UNL     1      46.796   6.673  13.007  0.00  0.00    +0.000 A 
ATOM      6  C   UNL     1      46.630   5.295  12.969  0.00  0.00    +0.000 A 
ATOM      7  N   UNL     1      45.777   4.653  12.138  0.00  0.00    +0.000 NA
BRANCH   2   8
ATOM      8  C   UNL     1      44.191   4.683  10.268  0.00  0.00    +0.000 C 
BRANCH   8  13
ATOM      9  C   UNL     1      47.176   1.324   6.651  0.00  0.00    +0.000 C 
ATOM     10  C   UNL     1      46.431   2.234   7.573  0.00  0.00    +0.000 A 
ATOM     11  C   UNL     1      46.466   3.617   7.421  0.00  0.00    +0.000 A 
ATOM     12  C   UNL     1      45.754   4.424   8.303  0.00  0.00    +0.000 A 
ATOM     13  C   UNL     1      45.007   3.831   9.320  0.00  0.00    +0.000 A 
ATOM     14  N   UNL     1      44.973   2.486   9.498  0.00  0.00    +0.000 NA
ATOM     15  C   UNL     1      45.686   1.728   8.632  0.00  0.00    +0.000 A 
ENDBRANCH   8  13
ENDBRANCH   2   8
ENDBRANCH   1   5
BRANCH   1  16
ATOM     16  N   UNL     1      47.779   6.726  15.213  0.00  0.00    +0.000 N 
ATOM     17  C   UNL     1      48.917   6.378  15.896  0.00  0.00    +0.000 C 
ATOM     18  O   UNL     1      50.038   6.583  15.439  0.00  0.00    +0.000 OA
ATOM     19  H   UNL     1      46.891   6.328  15.504  0.00  0.00    +0.000 HD
BRANCH  17  20
ATOM     20  C   UNL     1      48.721   5.811  17.237  0.00  0.00    +0.000 A 
ATOM     21  C   UNL     1      48.970   4.462  17.457  0.00  0.00    +0.000 A 
ATOM     22  S   UNL     1      48.781   3.992  19.089  0.00  0.00    +0.000 S 
ATOM     23  C   UNL     1      48.306   5.562  19.545  0.00  0.00    +0.000 A 
ATOM     24  N   UNL     1      47.987   5.852  20.835  0.00  0.00    +0.000 NA
ATOM     25  C   UNL     1      47.615   7.073  21.033  0.00  0.00    +0.000 A 
ATOM     26  N   UNL     1      47.531   8.031  20.056  0.00  0.00    +0.000 N 
ATOM     27  C   UNL     1      47.858   7.789  18.744  0.00  0.00    +0.000 A 
ATOM     28  O   UNL     1      47.791   8.673  17.895  0.00  0.00    +0.000 OA
ATOM     29  C   UNL     1      48.292   6.432  18.469  0.00  0.00    +0.000 A 
ATOM     30  H   UNL     1      47.231   8.969  20.274  0.00  0.00    +0.000 HD
ENDBRANCH  17  20
ENDBRANCH   1  16
TORSDOF 5
ENDMDL
MODEL 4
REMARK VINA RESULT:    -7.245      1.724      2.309
REMARK INTER + INTRA:         -10.169
REMARK INTER:                  -9.980
REMARK INTRA:                  -0.190
REMARK UNBOUND:                -0.807
REMARK  Name = 
REMARK  6 active torsions:
REMARK  status: ('A' for Active; 'I' for Inactive)
REMARK    1  A    between atoms: C_1  and  C_2
REMARK    2  A    between atoms: C_5  and  C_6
REMARK    3  A    between atoms: C_6  and  C_7
REMARK    4  A    between atoms: C_10  and  C_11
REMARK    5  A    between atoms: C_11  and  N_12
REMARK    6  A    between atoms: C_13  and  C_15
REMARK                            x       y       z     vdW  Elec       q    Type
REMARK                         _______ _______ _______ _____ _____    ______ ____
ROOT
ATOM      1  C   UNL     1      45.285   7.788  12.758  0.00  0.00    +0.000 C 
ENDROOT
BRANCH   1   5
ATOM      2  C   UNL     1      44.641   4.078  10.764  0.00  0.00    +0.000 A 
ATOM      3  C   UNL     1      43.970   4.311  11.963  0.00  0.00    +0.000 A 
ATOM      4  C   UNL     1      44.197   5.508  12.639  0.00  0.00    +0.000 A 
ATOM      5  C   UNL     1      45.086   6.447  12.114  0.00  0.00    +0.000 A 
ATOM      6  C   UNL     1      45.716   6.126  10.918  0.00  0.00    +0.000 A 
ATOM      7  N   UNL     1      45.521   4.971  10.241  0.00  0.00    +0.000 NA
BRANCH   2   8
ATOM      8  C   UNL     1      44.334   2.846   9.942  0.00  0.00    +0.000 C 
BRANCH   8  13
ATOM      9  C   UNL     1      47.879   2.055   5.460  0.00  0.00    +0.000 C 
ATOM     10  C   UNL     1      46.963   2.311   6.613  0.00  0.00    +0.000 A 
ATOM     11  C   UNL     1      46.295   3.523   6.762  0.00  0.00    +0.000 A 
ATOM     12  C   UNL     1      45.450   3.714   7.851  0.00  0.00    +0.000 A 
ATOM     13  C   UNL     1      45.278   2.680   8.771  0.00  0.00    +0.000 A 
ATOM     14  N   UNL     1      45.932   1.497   8.655  0.00  0.00    +0.000 NA
ATOM     15  C   UNL     1      46.757   1.345   7.592  0.00  0.00    +0.000 A 
ENDBRANCH   8  13
ENDBRANCH   2   8
ENDBRANCH   1   5
BRANCH   1  16
ATOM     16  N   UNL     1      46.393   7.743  13.678  0.00  0.00    +0.000 N 
ATOM     17  C   UNL     1      47.665   8.090  13.300  0.00  0.00    +0.000 C 
ATOM     18  O   UNL     1      47.918   8.501  12.170  0.00  0.00    +0.000 OA
ATOM     19  H   UNL     1      46.266   7.189  14.520  0.00  0.00    +0.000 HD
BRANCH  17  20
ATOM     20  C   UNL     1      48.697   8.012  14.342  0.00  0.00    +0.000 A 
ATOM     21  C   UNL     1      49.637   9.028  14.458  0.00  0.00    +0.000 A 
ATOM     22  S   UNL     1      50.703   8.823  15.777  0.00  0.00    +0.000 S 
ATOM     23  C   UNL     1      49.981   7.340  16.203  0.00  0.00    +0.000 A 
ATOM     24  N   UNL     1      50.432   6.620  17.265  0.00  0.00    +0.000 NA
ATOM     25  C   UNL     1      49.813   5.502  17.454  0.00  0.00    +0.000 A 
ATOM     26  N   UNL     1      48.786   5.037  16.674  0.00  0.00    +0.000 N 
ATOM     27  C   UNL     1      48.287   5.737  15.602  0.00  0.00    +0.000 A 
ATOM     28  O   UNL     1      47.354   5.304  14.934  0.00  0.00    +0.000 OA
ATOM     29  C   UNL     1      48.942   7.007  15.352  0.00  0.00    +0.000 A 
ATOM     30  H   UNL     1      48.343   4.152  16.873  0.00  0.00    +0.000 HD
ENDBRANCH  17  20
ENDBRANCH   1  16
TORSDOF 5
ENDMDL
MODEL 5
REMARK VINA RESULT:    -7.102      1.925      2.375
REMARK INTER + INTRA:          -9.984
REMARK INTER:                  -9.310
REMARK INTRA:                  -0.674
REMARK UNBOUND:                -0.807
REMARK  Name = 
REMARK  6 active torsions:
REMARK  status: ('A' for Active; 'I' for Inactive)
REMARK    1  A    between atoms: C_1  and  C_2
REMARK    2  A    between atoms: C_5  and  C_6
REMARK    3  A    between atoms: C_6  and  C_7
REMARK    4  A    between atoms: C_10  and  C_11
REMARK    5  A    between atoms: C_11  and  N_12
REMARK    6  A    between atoms: C_13  and  C_15
REMARK                            x       y       z     vdW  Elec       q    Type
REMARK                         _______ _______ _______ _____ _____    ______ ____
ROOT
ATOM      1  C   UNL     1      48.716   7.399  14.188  0.00  0.00    +0.000 C 
ENDROOT
BRANCH   1   5
ATOM      2  C   UNL     1      45.835   5.549  11.652  0.00  0.00    +0.000 A 
ATOM      3  C   UNL     1      46.094   4.971  12.893  0.00  0.00    +0.000 A 
ATOM      4  C   UNL     1      47.056   5.550  13.718  0.00  0.00    +0.000 A 
ATOM      5  C   UNL     1      47.744   6.688  13.293  0.00  0.00    +0.000 A 
ATOM      6  C   UNL     1      47.427   7.191  12.038  0.00  0.00    +0.000 A 
ATOM      7  N   UNL     1      46.502   6.648  11.212  0.00  0.00    +0.000 NA
BRANCH   2   8
ATOM      8  C   UNL     1      44.718   5.022  10.779  0.00  0.00    +0.000 C 
BRANCH   8  13
ATOM      9  C   UNL     1      46.784   1.743   6.506  0.00  0.00    +0.000 C 
ATOM     10  C   UNL     1      46.219   2.554   7.628  0.00  0.00    +0.000 A 
ATOM     11  C   UNL     1      45.549   1.960   8.694  0.00  0.00    +0.000 A 
ATOM     12  C   UNL     1      45.042   2.756   9.717  0.00  0.00    +0.000 A 
ATOM     13  C   UNL     1      45.224   4.137   9.661  0.00  0.00    +0.000 A 
ATOM     14  N   UNL     1      45.857   4.738   8.622  0.00  0.00    +0.000 NA
ATOM     15  C   UNL     1      46.329   3.939   7.636  0.00  0.00    +0.000 A 
ENDBRANCH   8  13
ENDBRANCH   2   8
ENDBRANCH   1   5
BRANCH   1  16
ATOM     16  N   UNL     1      48.372   7.188  15.572  0.00  0.00    +0.000 N 
ATOM     17  C   UNL     1      49.137   7.690  16.594  0.00  0.00    +0.000 C 
ATOM     18  O   UNL     1      50.128   8.385  16.384  0.00  0.00    +0.000 OA
ATOM     19  H   UNL     1      47.722   6.434  15.771  0.00  0.00    +0.000 HD
BRANCH  17  20
ATOM     20  C   UNL     1      48.664   7.411  17.956  0.00  0.00    +0.000 A 
ATOM     21  C   UNL     1      47.961   8.385  18.654  0.00  0.00    +0.000 A 
ATOM     22  S   UNL     1      47.409   7.862  20.184  0.00  0.00    +0.000 S 
ATOM     23  C   UNL     1      48.139   6.337  19.989  0.00  0.00    +0.000 A 
ATOM     24  N   UNL     1      48.050   5.388  20.959  0.00  0.00    +0.000 NA
ATOM     25  C   UNL     1      48.677   4.289  20.692  0.00  0.00    +0.000 A 
ATOM     26  N   UNL     1      49.385   4.056  19.542  0.00  0.00    +0.000 N 
ATOM     27  C   UNL     1      49.488   4.977  18.529  0.00  0.00    +0.000 A 
ATOM     28  O   UNL     1      50.114   4.731  17.502  0.00  0.00    +0.000 OA
ATOM     29  C   UNL     1      48.794   6.227  18.775  0.00  0.00    +0.000 A 
ATOM     30  H   UNL     1      49.855   3.175  19.393  0.00  0.00    +0.000 HD
ENDBRANCH  17  20
ENDBRANCH   1  16
TORSDOF 5
ENDMDL
MODEL 6
REMARK VINA RESULT:    -7.081      3.210      4.523
REMARK INTER + INTRA:          -9.958
REMARK INTER:                  -9.028
REMARK INTRA:                  -0.930
REMARK UNBOUND:                -0.807
REMARK  Name = 
REMARK  6 active torsions:
REMARK  status: ('A' for Active; 'I' for Inactive)
REMARK    1  A    between atoms: C_1  and  C_2
REMARK    2  A    between atoms: C_5  and  C_6
REMARK    3  A    between atoms: C_6  and  C_7
REMARK    4  A    between atoms: C_10  and  C_11
REMARK    5  A    between atoms: C_11  and  N_12
REMARK    6  A    between atoms: C_13  and  C_15
REMARK                            x       y       z     vdW  Elec       q    Type
REMARK                         _______ _______ _______ _____ _____    ______ ____
ROOT
ATOM      1  C   UNL     1      47.557   6.492  14.214  0.00  0.00    +0.000 C 
ENDROOT
BRANCH   1   5
ATOM      2  C   UNL     1      45.001   4.911  11.193  0.00  0.00    +0.000 A 
ATOM      3  C   UNL     1      45.281   6.275  11.177  0.00  0.00    +0.000 A 
ATOM      4  C   UNL     1      46.091   6.809  12.177  0.00  0.00    +0.000 A 
ATOM      5  C   UNL     1      46.603   5.978  13.175  0.00  0.00    +0.000 A 
ATOM      6  C   UNL     1      46.265   4.632  13.117  0.00  0.00    +0.000 A 
ATOM      7  N   UNL     1      45.477   4.086  12.162  0.00  0.00    +0.000 NA
BRANCH   2   8
ATOM      8  C   UNL     1      44.225   4.274  10.062  0.00  0.00    +0.000 C 
BRANCH   8  13
ATOM      9  C   UNL     1      47.763   1.862   6.196  0.00  0.00    +0.000 C 
ATOM     10  C   UNL     1      46.825   2.441   7.206  0.00  0.00    +0.000 A 
ATOM     11  C   UNL     1      46.167   1.640   8.136  0.00  0.00    +0.000 A 
ATOM     12  C   UNL     1      45.305   2.226   9.059  0.00  0.00    +0.000 A 
ATOM     13  C   UNL     1      45.125   3.609   9.043  0.00  0.00    +0.000 A 
ATOM     14  N   UNL     1      45.742   4.405   8.135  0.00  0.00    +0.000 NA
ATOM     15  C   UNL     1      46.565   3.806   7.242  0.00  0.00    +0.000 A 
ENDBRANCH   8  13
ENDBRANCH   2   8
ENDBRANCH   1   5
BRANCH   1  16
ATOM     16  N   UNL     1      48.771   6.959  13.593  0.00  0.00    +0.000 N 
ATOM     17  C   UNL     1      49.014   8.294  13.390  0.00  0.00    +0.000 C 
ATOM     18  O   UNL     1      48.232   9.162  13.768  0.00  0.00    +0.000 OA
ATOM     19  H   UNL     1      49.305   6.278  13.063  0.00  0.00    +0.000 HD
BRANCH  17  20
ATOM     20  C   UNL     1      50.297   8.632  12.760  0.00  0.00    +0.000 A 
ATOM     21  C   UNL     1      50.316   9.139  11.466  0.00  0.00    +0.000 A 
ATOM     22  S   UNL     1      51.880   9.562  10.924  0.00  0.00    +0.000 S 
ATOM     23  C   UNL     1      52.590   9.029  12.377  0.00  0.00    +0.000 A 
ATOM     24  N   UNL     1      53.934   9.105  12.570  0.00  0.00    +0.000 NA
ATOM     25  C   UNL     1      54.338   8.637  13.705  0.00  0.00    +0.000 A 
ATOM     26  N   UNL     1      53.520   8.098  14.662  0.00  0.00    +0.000 N 
ATOM     27  C   UNL     1      52.156   8.015  14.518  0.00  0.00    +0.000 A 
ATOM     28  O   UNL     1      51.447   7.543  15.402  0.00  0.00    +0.000 OA
ATOM     29  C   UNL     1      51.648   8.536  13.263  0.00  0.00    +0.000 A 
ATOM     30  H   UNL     1      53.898   7.746  15.530  0.00  0.00    +0.000 HD
ENDBRANCH  17  20
ENDBRANCH   1  16
TORSDOF 5
ENDMDL
MODEL 7
REMARK VINA RESULT:    -6.768      2.881      3.540
REMARK INTER + INTRA:          -9.553
REMARK INTER:                  -8.811
REMARK INTRA:                  -0.742
REMARK UNBOUND:                -0.807
REMARK  Name = 
REMARK  6 active torsions:
REMARK  status: ('A' for Active; 'I' for Inactive)
REMARK    1  A    between atoms: C_1  and  C_2
REMARK    2  A    between atoms: C_5  and  C_6
REMARK    3  A    between atoms: C_6  and  C_7
REMARK    4  A    between atoms: C_10  and  C_11
REMARK    5  A    between atoms: C_11  and  N_12
REMARK    6  A    between atoms: C_13  and  C_15
REMARK                            x       y       z     vdW  Elec       q    Type
REMARK                         _______ _______ _______ _____ _____    ______ ____
ROOT
ATOM      1  C   UNL     1      48.799   7.265  14.326  0.00  0.00    +0.000 C 
ENDROOT
BRANCH   1   5
ATOM      2  C   UNL     1      45.895   5.648  11.661  0.00  0.00    +0.000 A 
ATOM      3  C   UNL     1      46.262   4.897  12.775  0.00  0.00    +0.000 A 
ATOM      4  C   UNL     1      47.233   5.402  13.637  0.00  0.00    +0.000 A 
ATOM      5  C   UNL     1      47.822   6.640  13.373  0.00  0.00    +0.000 A 
ATOM      6  C   UNL     1      47.400   7.315  12.236  0.00  0.00    +0.000 A 
ATOM      7  N   UNL     1      46.464   6.849  11.377  0.00  0.00    +0.000 NA
BRANCH   2   8
ATOM      8  C   UNL     1      44.763   5.191  10.768  0.00  0.00    +0.000 C 
BRANCH   8  13
ATOM      9  C   UNL     1      46.706   1.848   6.486  0.00  0.00    +0.000 C 
ATOM     10  C   UNL     1      46.171   2.676   7.610  0.00  0.00    +0.000 A 
ATOM     11  C   UNL     1      45.487   2.104   8.679  0.00  0.00    +0.000 A 
ATOM     12  C   UNL     1      45.010   2.915   9.703  0.00  0.00    +0.000 A 
ATOM     13  C   UNL     1      45.236   4.291   9.647  0.00  0.00    +0.000 A 
ATOM     14  N   UNL     1      45.884   4.871   8.606  0.00  0.00    +0.000 NA
ATOM     15  C   UNL     1      46.326   4.058   7.618  0.00  0.00    +0.000 A 
ENDBRANCH   8  13
ENDBRANCH   2   8
ENDBRANCH   1   5
BRANCH   1  16
ATOM     16  N   UNL     1      48.290   7.214  15.673  0.00  0.00    +0.000 N 
ATOM     17  C   UNL     1      49.103   7.395  16.763  0.00  0.00    +0.000 C 
ATOM     18  O   UNL     1      50.298   7.656  16.647  0.00  0.00    +0.000 OA
ATOM     19  H   UNL     1      47.388   6.767  15.804  0.00  0.00    +0.000 HD
BRANCH  17  20
ATOM     20  C   UNL     1      48.451   7.330  18.078  0.00  0.00    +0.000 A 
ATOM     21  C   UNL     1      48.281   6.101  18.702  0.00  0.00    +0.000 A 
ATOM     22  S   UNL     1      47.590   6.220  20.260  0.00  0.00    +0.000 S 
ATOM     23  C   UNL     1      47.443   7.910  20.129  0.00  0.00    +0.000 A 
ATOM     24  N   UNL     1      46.909   8.649  21.139  0.00  0.00    +0.000 NA
ATOM     25  C   UNL     1      46.830   9.915  20.892  0.00  0.00    +0.000 A 
ATOM     26  N   UNL     1      47.235  10.508  19.725  0.00  0.00    +0.000 N 
ATOM     27  C   UNL     1      47.794   9.806  18.685  0.00  0.00    +0.000 A 
ATOM     28  O   UNL     1      48.164  10.369  17.660  0.00  0.00    +0.000 OA
ATOM     29  C   UNL     1      47.914   8.378  18.915  0.00  0.00    +0.000 A 
ATOM     30  H   UNL     1      47.144  11.505  19.591  0.00  0.00    +0.000 HD
ENDBRANCH  17  20
ENDBRANCH   1  16
TORSDOF 5
ENDMDL
MODEL 8
REMARK VINA RESULT:    -6.670      3.056      4.010
REMARK INTER + INTRA:          -9.426
REMARK INTER:                  -9.481
REMARK INTRA:                   0.055
REMARK UNBOUND:                -0.807
REMARK  Name = 
REMARK  6 active torsions:
REMARK  status: ('A' for Active; 'I' for Inactive)
REMARK    1  A    between atoms: C_1  and  C_2
REMARK    2  A    between atoms: C_5  and  C_6
REMARK    3  A    between atoms: C_6  and  C_7
REMARK    4  A    between atoms: C_10  and  C_11
REMARK    5  A    between atoms: C_11  and  N_12
REMARK    6  A    between atoms: C_13  and  C_15
REMARK                            x       y       z     vdW  Elec       q    Type
REMARK                         _______ _______ _______ _____ _____    ______ ____
ROOT
ATOM      1  C   UNL     1      45.249   7.700  12.876  0.00  0.00    +0.000 C 
ENDROOT
BRANCH   1   5
ATOM      2  C   UNL     1      44.548   4.053  10.786  0.00  0.00    +0.000 A 
ATOM      3  C   UNL     1      43.780   4.328  11.916  0.00  0.00    +0.000 A 
ATOM      4  C   UNL     1      44.021   5.503  12.625  0.00  0.00    +0.000 A 
ATOM      5  C   UNL     1      45.022   6.379  12.200  0.00  0.00    +0.000 A 
ATOM      6  C   UNL     1      45.743   6.020  11.069  0.00  0.00    +0.000 A 
ATOM      7  N   UNL     1      45.536   4.884  10.363  0.00  0.00    +0.000 NA
BRANCH   2   8
ATOM      8  C   UNL     1      44.239   2.850   9.924  0.00  0.00    +0.000 C 
BRANCH   8  13
ATOM      9  C   UNL     1      47.899   2.092   5.530  0.00  0.00    +0.000 C 
ATOM     10  C   UNL     1      46.952   2.339   6.660  0.00  0.00    +0.000 A 
ATOM     11  C   UNL     1      46.260   3.541   6.785  0.00  0.00    +0.000 A 
ATOM     12  C   UNL     1      45.387   3.723   7.854  0.00  0.00    +0.000 A 
ATOM     13  C   UNL     1      45.212   2.692   8.777  0.00  0.00    +0.000 A 
ATOM     14  N   UNL     1      45.890   1.521   8.684  0.00  0.00    +0.000 NA
ATOM     15  C   UNL     1      46.741   1.377   7.641  0.00  0.00    +0.000 A 
ENDBRANCH   8  13
ENDBRANCH   2   8
ENDBRANCH   1   5
BRANCH   1  16
ATOM     16  N   UNL     1      46.520   7.704  13.556  0.00  0.00    +0.000 N 
ATOM     17  C   UNL     1      47.531   8.559  13.198  0.00  0.00    +0.000 C 
ATOM     18  O   UNL     1      47.391   9.397  12.312  0.00  0.00    +0.000 OA
ATOM     19  H   UNL     1      46.746   6.882  14.108  0.00  0.00    +0.000 HD
BRANCH  17  20
ATOM     20  C   UNL     1      48.769   8.466  13.984  0.00  0.00    +0.000 A 
ATOM     21  C   UNL     1      48.700   8.357  15.367  0.00  0.00    +0.000 A 
ATOM     22  S   UNL     1      50.225   8.167  16.112  0.00  0.00    +0.000 S 
ATOM     23  C   UNL     1      51.033   8.281  14.618  0.00  0.00    +0.000 A 
ATOM     24  N   UNL     1      52.389   8.202  14.546  0.00  0.00    +0.000 NA
ATOM     25  C   UNL     1      52.869   8.336  13.354  0.00  0.00    +0.000 A 
ATOM     26  N   UNL     1      52.116   8.544  12.228  0.00  0.00    +0.000 N 
ATOM     27  C   UNL     1      50.744   8.615  12.251  0.00  0.00    +0.000 A 
ATOM     28  O   UNL     1      50.096   8.783  11.222  0.00  0.00    +0.000 OA
ATOM     29  C   UNL     1      50.152   8.461  13.566  0.00  0.00    +0.000 A 
ATOM     30  H   UNL     1      52.552   8.643  11.323  0.00  0.00    +0.000 HD
ENDBRANCH  17  20
ENDBRANCH   1  16
TORSDOF 5
ENDMDL
MODEL 9
REMARK VINA RESULT:    -6.626      2.622      4.070
REMARK INTER + INTRA:          -9.370
REMARK INTER:                  -8.516
REMARK INTRA:                  -0.854
REMARK UNBOUND:                -0.807
REMARK  Name = 
REMARK  6 active torsions:
REMARK  status: ('A' for Active; 'I' for Inactive)
REMARK    1  A    between atoms: C_1  and  C_2
REMARK    2  A    between atoms: C_5  and  C_6
REMARK    3  A    between atoms: C_6  and  C_7
REMARK    4  A    between atoms: C_10  and  C_11
REMARK    5  A    between atoms: C_11  and  N_12
REMARK    6  A    between atoms: C_13  and  C_15
REMARK                            x       y       z     vdW  Elec       q    Type
REMARK                         _______ _______ _______ _____ _____    ______ ____
ROOT
ATOM      1  C   UNL     1      47.801   4.960  15.124  0.00  0.00    +0.000 C 
ENDROOT
BRANCH   1   5
ATOM      2  C   UNL     1      45.139   4.441  11.839  0.00  0.00    +0.000 A 
ATOM      3  C   UNL     1      45.546   5.733  12.164  0.00  0.00    +0.000 A 
ATOM      4  C   UNL     1      46.392   5.918  13.255  0.00  0.00    +0.000 A 
ATOM      5  C   UNL     1      46.814   4.817  14.003  0.00  0.00    +0.000 A 
ATOM      6  C   UNL     1      46.352   3.567  13.611  0.00  0.00    +0.000 A 
ATOM      7  N   UNL     1      45.525   3.357  12.560  0.00  0.00    +0.000 NA
BRANCH   2   8
ATOM      8  C   UNL     1      44.318   4.187  10.594  0.00  0.00    +0.000 C 
BRANCH   8  13
ATOM      9  C   UNL     1      47.356   1.912   6.250  0.00  0.00    +0.000 C 
ATOM     10  C   UNL     1      46.591   2.547   7.366  0.00  0.00    +0.000 A 
ATOM     11  C   UNL     1      46.453   3.929   7.465  0.00  0.00    +0.000 A 
ATOM     12  C   UNL     1      45.730   4.474   8.522  0.00  0.00    +0.000 A 
ATOM     13  C   UNL     1      45.144   3.623   9.459  0.00  0.00    +0.000 A 
ATOM     14  N   UNL     1      45.280   2.275   9.391  0.00  0.00    +0.000 NA
ATOM     15  C   UNL     1      46.000   1.775   8.359  0.00  0.00    +0.000 A 
ENDBRANCH   8  13
ENDBRANCH   2   8
ENDBRANCH   1   5
BRANCH   1  16
ATOM     16  N   UNL     1      48.195   6.338  15.274  0.00  0.00    +0.000 N 
ATOM     17  C   UNL     1      48.525   6.869  16.495  0.00  0.00    +0.000 C 
ATOM     18  O   UNL     1      48.548   6.187  17.516  0.00  0.00    +0.000 OA
ATOM     19  H   UNL     1      47.954   6.968  14.515  0.00  0.00    +0.000 HD
BRANCH  17  20
ATOM     20  C   UNL     1      48.921   8.284  16.502  0.00  0.00    +0.000 A 
ATOM     21  C   UNL     1      48.057   9.238  17.025  0.00  0.00    +0.000 A 
ATOM     22  S   UNL     1      48.713  10.815  17.038  0.00  0.00    +0.000 S 
ATOM     23  C   UNL     1      50.149  10.286  16.294  0.00  0.00    +0.000 A 
ATOM     24  N   UNL     1      51.153  11.158  16.008  0.00  0.00    +0.000 NA
ATOM     25  C   UNL     1      52.171  10.625  15.416  0.00  0.00    +0.000 A 
ATOM     26  N   UNL     1      52.274   9.300  15.082  0.00  0.00    +0.000 N 
ATOM     27  C   UNL     1      51.293   8.381  15.365  0.00  0.00    +0.000 A 
ATOM     28  O   UNL     1      51.423   7.197  15.070  0.00  0.00    +0.000 OA
ATOM     29  C   UNL     1      50.130   8.926  16.040  0.00  0.00    +0.000 A 
ATOM     30  H   UNL     1      53.096   8.944  14.617  0.00  0.00    +0.000 HD
ENDBRANCH  17  20
ENDBRANCH   1  16
TORSDOF 5
ENDMDL
