MODEL 1
REMARK VINA RESULT:    -9.434      0.000      0.000
REMARK INTER + INTRA:         -13.241
REMARK INTER:                 -12.192
REMARK INTRA:                  -1.050
REMARK UNBOUND:                -1.050
REMARK  Name = 
REMARK  5 active torsions:
REMARK  status: ('A' for Active; 'I' for Inactive)
REMARK    1  A    between atoms: C_2  and  C_4
REMARK    2  A    between atoms: N_8  and  C_9
REMARK    3  A    between atoms: C_9  and  C_10
REMARK    4  A    between atoms: C_10  and  C_13
REMARK    5  A    between atoms: C_17  and  C_18
REMARK                            x       y       z     vdW  Elec       q    Type
REMARK                         _______ _______ _______ _____ _____    ______ ____
ROOT
ATOM      1  C   UNL     1      43.339   5.422  12.198  0.00  0.00    +0.000 C 
ATOM      2  F   UNL     1      42.867   6.663  11.854  0.00  0.00    +0.000 F 
ATOM      3  F   UNL     1      42.512   5.005  13.208  0.00  0.00    +0.000 F 
ENDROOT
BRANCH   1   4
ATOM      4  C   UNL     1      44.783   5.473  12.652  0.00  0.00    +0.000 A 
ATOM      5  C   UNL     1      45.354   4.429  13.387  0.00  0.00    +0.000 A 
ATOM      6  C   UNL     1      46.688   4.501  13.782  0.00  0.00    +0.000 A 
ATOM      7  C   UNL     1      47.465   5.609  13.432  0.00  0.00    +0.000 A 
ATOM      8  C   UNL     1      46.940   6.667  12.671  0.00  0.00    +0.000 A 
ATOM      9  C   UNL     1      45.583   6.582  12.309  0.00  0.00    +0.000 A 
BRANCH   8  10
ATOM     10  C   UNL     1      47.783   7.811  12.244  0.00  0.00    +0.000 A 
ATOM     11  C   UNL     1      47.287   9.129  12.218  0.00  0.00    +0.000 A 
ATOM     12  C   UNL     1      48.087  10.204  11.816  0.00  0.00    +0.000 A 
ATOM     13  C   UNL     1      49.404   9.979  11.443  0.00  0.00    +0.000 A 
ATOM     14  F   UNL     1      50.162  11.024  11.081  0.00  0.00    +0.000 F 
ATOM     15  C   UNL     1      49.923   8.690  11.448  0.00  0.00    +0.000 A 
ATOM     16 CL   UNL     1      51.559   8.399  10.992  0.00  0.00    +0.000 Cl
ATOM     17  C   UNL     1      49.117   7.615  11.833  0.00  0.00    +0.000 A 
ENDBRANCH   8  10
ENDBRANCH   1   4
BRANCH   1  18
ATOM     18  C   UNL     1      43.143   4.489  10.977  0.00  0.00    +0.000 C 
BRANCH  18  23
ATOM     19  C   UNL     1      46.278   2.080   7.916  0.00  0.00    +0.000 A 
ATOM     20  C   UNL     1      46.332   3.402   7.490  0.00  0.00    +0.000 A 
ATOM     21  C   UNL     1      45.545   4.356   8.144  0.00  0.00    +0.000 A 
ATOM     22  C   UNL     1      44.734   3.976   9.213  0.00  0.00    +0.000 A 
ATOM     23  N   UNL     1      43.919   4.946   9.802  0.00  0.00    +0.000 N 
ATOM     24  N   UNL     1      44.667   2.692   9.621  0.00  0.00    +0.000 NA
ATOM     25  C   UNL     1      45.427   1.775   8.968  0.00  0.00    +0.000 A 
ATOM     26  H   UNL     1      44.439   5.799   9.994  0.00  0.00    +0.000 HD
BRANCH  19  28
ATOM     27  N   UNL     1      46.753  -0.287   7.668  0.00  0.00    +0.000 N 
ATOM     28  C   UNL     1      47.054   0.992   7.285  0.00  0.00    +0.000 C 
ATOM     29  O   UNL     1      47.900   1.217   6.433  0.00  0.00    +0.000 OA
ATOM     30  H   UNL     1      47.218  -1.030   7.160  0.00  0.00    +0.000 HD
ATOM     31  H   UNL     1      45.909  -0.525   8.172  0.00  0.00    +0.000 HD
ENDBRANCH  19  28
ENDBRANCH  18  23
ENDBRANCH   1  18
TORSDOF 5
ENDMDL
MODEL 2
REMARK VINA RESULT:    -9.163      2.851      4.269
REMARK INTER + INTRA:         -12.891
REMARK INTER:                 -11.837
REMARK INTRA:                  -1.055
REMARK UNBOUND:                -1.050
REMARK  Name = 
REMARK  5 active torsions:
REMARK  status: ('A' for Active; 'I' for Inactive)
REMARK    1  A    between atoms: C_2  and  C_4
REMARK    2  A    between atoms: N_8  and  C_9
REMARK    3  A    between atoms: C_9  and  C_10
REMARK    4  A    between atoms: C_10  and  C_13
REMARK    5  A    between atoms: C_17  and  C_18
REMARK                            x       y       z     vdW  Elec       q    Type
REMARK                         _______ _______ _______ _____ _____    ______ ____
ROOT
ATOM      1  C   UNL     1      43.591   5.254  12.013  0.00  0.00    +0.000 C 
ATOM      2  F   UNL     1      42.768   6.342  12.156  0.00  0.00    +0.000 F 
ATOM      3  F   UNL     1      43.098   4.328  12.893  0.00  0.00    +0.000 F 
ENDROOT
BRANCH   1   4
ATOM      4  C   UNL     1      45.035   5.594  12.318  0.00  0.00    +0.000 A 
ATOM      5  C   UNL     1      45.796   6.389  11.456  0.00  0.00    +0.000 A 
ATOM      6  C   UNL     1      47.119   6.692  11.770  0.00  0.00    +0.000 A 
ATOM      7  C   UNL     1      47.687   6.214  12.955  0.00  0.00    +0.000 A 
ATOM      8  C   UNL     1      46.950   5.435  13.863  0.00  0.00    +0.000 A 
ATOM      9  C   UNL     1      45.625   5.122  13.508  0.00  0.00    +0.000 A 
BRANCH   8  10
ATOM     10  C   UNL     1      47.533   4.985  15.151  0.00  0.00    +0.000 A 
ATOM     11  C   UNL     1      47.261   3.708  15.681  0.00  0.00    +0.000 A 
ATOM     12  C   UNL     1      47.815   3.288  16.896  0.00  0.00    +0.000 A 
ATOM     13  C   UNL     1      48.661   4.136  17.596  0.00  0.00    +0.000 A 
ATOM     14  F   UNL     1      49.198   3.708  18.747  0.00  0.00    +0.000 F 
ATOM     15  C   UNL     1      48.942   5.405  17.106  0.00  0.00    +0.000 A 
ATOM     16 CL   UNL     1      49.994   6.466  17.964  0.00  0.00    +0.000 Cl
ATOM     17  C   UNL     1      48.374   5.830  15.902  0.00  0.00    +0.000 A 
ENDBRANCH   8  10
ENDBRANCH   1   4
BRANCH   1  18
ATOM     18  C   UNL     1      43.410   4.715  10.571  0.00  0.00    +0.000 C 
BRANCH  18  23
ATOM     19  C   UNL     1      46.548   2.522   7.354  0.00  0.00    +0.000 A 
ATOM     20  C   UNL     1      46.066   1.475   8.129  0.00  0.00    +0.000 A 
ATOM     21  C   UNL     1      45.154   1.755   9.154  0.00  0.00    +0.000 A 
ATOM     22  C   UNL     1      44.736   3.067   9.374  0.00  0.00    +0.000 A 
ATOM     23  N   UNL     1      43.871   3.314  10.443  0.00  0.00    +0.000 N 
ATOM     24  N   UNL     1      45.212   4.089   8.634  0.00  0.00    +0.000 NA
ATOM     25  C   UNL     1      46.107   3.803   7.652  0.00  0.00    +0.000 A 
ATOM     26  H   UNL     1      43.097   2.654  10.454  0.00  0.00    +0.000 HD
BRANCH  19  28
ATOM     27  N   UNL     1      47.506   3.261   5.250  0.00  0.00    +0.000 N 
ATOM     28  C   UNL     1      47.525   2.339   6.261  0.00  0.00    +0.000 C 
ATOM     29  O   UNL     1      48.340   1.428   6.273  0.00  0.00    +0.000 OA
ATOM     30  H   UNL     1      48.241   3.186   4.557  0.00  0.00    +0.000 HD
ATOM     31  H   UNL     1      47.027   4.149   5.327  0.00  0.00    +0.000 HD
ENDBRANCH  19  28
ENDBRANCH  18  23
ENDBRANCH   1  18
TORSDOF 5
ENDMDL
MODEL 3
REMARK VINA RESULT:    -8.550      1.964      2.543
REMARK INTER + INTRA:         -12.098
REMARK INTER:                 -11.372
REMARK INTRA:                  -0.726
REMARK UNBOUND:                -1.050
REMARK  Name = 
REMARK  5 active torsions:
REMARK  status: ('A' for Active; 'I' for Inactive)
REMARK    1  A    between atoms: C_2  and  C_4
REMARK    2  A    between atoms: N_8  and  C_9
REMARK    3  A    between atoms: C_9  and  C_10
REMARK    4  A    between atoms: C_10  and  C_13
REMARK    5  A    between atoms: C_17  and  C_18
REMARK                            x       y       z     vdW  Elec       q    Type
REMARK                         _______ _______ _______ _____ _____    ______ ____
ROOT
ATOM      1  C   UNL     1      43.735   4.998  12.342  0.00  0.00    +0.000 C 
ATOM      2  F   UNL     1      42.679   5.145  13.204  0.00  0.00    +0.000 F 
ATOM      3  F   UNL     1      44.499   4.005  12.895  0.00  0.00    +0.000 F 
ENDROOT
BRANCH   1   4
ATOM      4  C   UNL     1      44.523   6.283  12.191  0.00  0.00    +0.000 A 
ATOM      5  C   UNL     1      43.960   7.420  11.601  0.00  0.00    +0.000 A 
ATOM      6  C   UNL     1      44.708   8.589  11.485  0.00  0.00    +0.000 A 
ATOM      7  C   UNL     1      46.018   8.636  11.971  0.00  0.00    +0.000 A 
ATOM      8  C   UNL     1      46.613   7.527  12.596  0.00  0.00    +0.000 A 
ATOM      9  C   UNL     1      45.845   6.351  12.675  0.00  0.00    +0.000 A 
BRANCH   8  10
ATOM     10  C   UNL     1      47.978   7.599  13.171  0.00  0.00    +0.000 A 
ATOM     11  C   UNL     1      49.027   8.267  12.508  0.00  0.00    +0.000 A 
ATOM     12  C   UNL     1      50.313   8.333  13.056  0.00  0.00    +0.000 A 
ATOM     13  C   UNL     1      50.569   7.741  14.285  0.00  0.00    +0.000 A 
ATOM     14  F   UNL     1      51.801   7.833  14.803  0.00  0.00    +0.000 F 
ATOM     15  C   UNL     1      49.560   7.066  14.960  0.00  0.00    +0.000 A 
ATOM     16 CL   UNL     1      49.863   6.332  16.489  0.00  0.00    +0.000 Cl
ATOM     17  C   UNL     1      48.280   6.986  14.403  0.00  0.00    +0.000 A 
ENDBRANCH   8  10
ENDBRANCH   1   4
BRANCH   1  18
ATOM     18  C   UNL     1      43.171   4.496  10.988  0.00  0.00    +0.000 C 
BRANCH  18  23
ATOM     19  C   UNL     1      46.306   2.092   7.923  0.00  0.00    +0.000 A 
ATOM     20  C   UNL     1      46.404   3.423   7.537  0.00  0.00    +0.000 A 
ATOM     21  C   UNL     1      45.629   4.379   8.202  0.00  0.00    +0.000 A 
ATOM     22  C   UNL     1      44.786   3.991   9.243  0.00  0.00    +0.000 A 
ATOM     23  N   UNL     1      43.984   4.966   9.843  0.00  0.00    +0.000 N 
ATOM     24  N   UNL     1      44.676   2.699   9.611  0.00  0.00    +0.000 NA
ATOM     25  C   UNL     1      45.424   1.780   8.947  0.00  0.00    +0.000 A 
ATOM     26  H   UNL     1      44.522   5.799  10.071  0.00  0.00    +0.000 HD
BRANCH  19  28
ATOM     27  N   UNL     1      46.767  -0.277   7.662  0.00  0.00    +0.000 N 
ATOM     28  C   UNL     1      47.065   1.001   7.276  0.00  0.00    +0.000 C 
ATOM     29  O   UNL     1      47.896   1.225   6.408  0.00  0.00    +0.000 OA
ATOM     30  H   UNL     1      47.220  -1.021   7.145  0.00  0.00    +0.000 HD
ATOM     31  H   UNL     1      45.931  -0.512   8.182  0.00  0.00    +0.000 HD
ENDBRANCH  19  28
ENDBRANCH  18  23
ENDBRANCH   1  18
TORSDOF 5
ENDMDL
MODEL 4
REMARK VINA RESULT:    -8.486      4.913      7.755
REMARK INTER + INTRA:         -12.017
REMARK INTER:                 -11.258
REMARK INTRA:                  -0.759
REMARK UNBOUND:                -1.050
REMARK  Name = 
REMARK  5 active torsions:
REMARK  status: ('A' for Active; 'I' for Inactive)
REMARK    1  A    between atoms: C_2  and  C_4
REMARK    2  A    between atoms: N_8  and  C_9
REMARK    3  A    between atoms: C_9  and  C_10
REMARK    4  A    between atoms: C_10  and  C_13
REMARK    5  A    between atoms: C_17  and  C_18
REMARK                            x       y       z     vdW  Elec       q    Type
REMARK                         _______ _______ _______ _____ _____    ______ ____
ROOT
ATOM      1  C   UNL     1      45.784   6.999  12.401  0.00  0.00    +0.000 C 
ATOM      2  F   UNL     1      44.960   7.693  13.249  0.00  0.00    +0.000 F 
ATOM      3  F   UNL     1      46.280   7.947  11.546  0.00  0.00    +0.000 F 
ENDROOT
BRANCH   1   4
ATOM      4  C   UNL     1      45.039   5.914  11.651  0.00  0.00    +0.000 A 
ATOM      5  C   UNL     1      43.706   5.607  11.945  0.00  0.00    +0.000 A 
ATOM      6  C   UNL     1      43.046   4.610  11.231  0.00  0.00    +0.000 A 
ATOM      7  C   UNL     1      43.706   3.924  10.208  0.00  0.00    +0.000 A 
ATOM      8  C   UNL     1      45.035   4.219   9.860  0.00  0.00    +0.000 A 
ATOM      9  C   UNL     1      45.687   5.211  10.616  0.00  0.00    +0.000 A 
BRANCH   8  10
ATOM     10  C   UNL     1      45.713   3.537   8.731  0.00  0.00    +0.000 A 
ATOM     11  C   UNL     1      46.241   4.255   7.640  0.00  0.00    +0.000 A 
ATOM     12  C   UNL     1      46.881   3.606   6.579  0.00  0.00    +0.000 A 
ATOM     13  C   UNL     1      47.015   2.226   6.597  0.00  0.00    +0.000 A 
ATOM     14  F   UNL     1      47.650   1.625   5.581  0.00  0.00    +0.000 F 
ATOM     15  C   UNL     1      46.498   1.486   7.652  0.00  0.00    +0.000 A 
ATOM     16 CL   UNL     1      46.663  -0.228   7.689  0.00  0.00    +0.000 Cl
ATOM     17  C   UNL     1      45.843   2.134   8.704  0.00  0.00    +0.000 A 
ENDBRANCH   8  10
ENDBRANCH   1   4
BRANCH   1  18
ATOM     18  C   UNL     1      46.953   6.428  13.244  0.00  0.00    +0.000 C 
BRANCH  18  23
ATOM     19  C   UNL     1      48.619   4.258  17.429  0.00  0.00    +0.000 A 
ATOM     20  C   UNL     1      47.729   3.333  16.895  0.00  0.00    +0.000 A 
ATOM     21  C   UNL     1      47.066   3.644  15.703  0.00  0.00    +0.000 A 
ATOM     22  C   UNL     1      47.312   4.859  15.065  0.00  0.00    +0.000 A 
ATOM     23  N   UNL     1      46.586   5.157  13.908  0.00  0.00    +0.000 N 
ATOM     24  N   UNL     1      48.163   5.766  15.586  0.00  0.00    +0.000 NA
ATOM     25  C   UNL     1      48.790   5.456  16.751  0.00  0.00    +0.000 A 
ATOM     26  H   UNL     1      46.584   4.373  13.260  0.00  0.00    +0.000 HD
BRANCH  19  28
ATOM     27  N   UNL     1      48.641   3.560  19.754  0.00  0.00    +0.000 N 
ATOM     28  C   UNL     1      49.358   4.038  18.690  0.00  0.00    +0.000 C 
ATOM     29  O   UNL     1      50.560   4.238  18.773  0.00  0.00    +0.000 OA
ATOM     30  H   UNL     1      49.171   3.319  20.582  0.00  0.00    +0.000 HD
ATOM     31  H   UNL     1      47.719   3.155  19.656  0.00  0.00    +0.000 HD
ENDBRANCH  19  28
ENDBRANCH  18  23
ENDBRANCH   1  18
TORSDOF 5
ENDMDL
MODEL 5
REMARK VINA RESULT:    -7.950      4.404      7.768
REMARK INTER + INTRA:         -11.323
REMARK INTER:                 -10.168
REMARK INTRA:                  -1.155
REMARK UNBOUND:                -1.050
REMARK  Name = 
REMARK  5 active torsions:
REMARK  status: ('A' for Active; 'I' for Inactive)
REMARK    1  A    between atoms: C_2  and  C_4
REMARK    2  A    between atoms: N_8  and  C_9
REMARK    3  A    between atoms: C_9  and  C_10
REMARK    4  A    between atoms: C_10  and  C_13
REMARK    5  A    between atoms: C_17  and  C_18
REMARK                            x       y       z     vdW  Elec       q    Type
REMARK                         _______ _______ _______ _____ _____    ______ ____
ROOT
ATOM      1  C   UNL     1      48.881   8.628  12.210  0.00  0.00    +0.000 C 
ATOM      2  F   UNL     1      49.073   9.595  13.163  0.00  0.00    +0.000 F 
ATOM      3  F   UNL     1      49.414   9.159  11.066  0.00  0.00    +0.000 F 
ENDROOT
BRANCH   1   4
ATOM      4  C   UNL     1      47.414   8.293  12.033  0.00  0.00    +0.000 A 
ATOM      5  C   UNL     1      46.411   9.210  12.363  0.00  0.00    +0.000 A 
ATOM      6  C   UNL     1      45.072   8.875  12.179  0.00  0.00    +0.000 A 
ATOM      7  C   UNL     1      44.725   7.628  11.651  0.00  0.00    +0.000 A 
ATOM      8  C   UNL     1      45.701   6.687  11.280  0.00  0.00    +0.000 A 
ATOM      9  C   UNL     1      47.045   7.041  11.501  0.00  0.00    +0.000 A 
BRANCH   8  10
ATOM     10  C   UNL     1      45.335   5.391  10.658  0.00  0.00    +0.000 A 
ATOM     11  C   UNL     1      44.597   4.416  11.357  0.00  0.00    +0.000 A 
ATOM     12  C   UNL     1      44.253   3.196  10.765  0.00  0.00    +0.000 A 
ATOM     13  C   UNL     1      44.632   2.936   9.456  0.00  0.00    +0.000 A 
ATOM     14  F   UNL     1      44.275   1.770   8.899  0.00  0.00    +0.000 F 
ATOM     15  C   UNL     1      45.369   3.872   8.741  0.00  0.00    +0.000 A 
ATOM     16 CL   UNL     1      45.841   3.562   7.114  0.00  0.00    +0.000 Cl
ATOM     17  C   UNL     1      45.727   5.082   9.340  0.00  0.00    +0.000 A 
ENDBRANCH   8  10
ENDBRANCH   1   4
BRANCH   1  18
ATOM     18  C   UNL     1      49.718   7.390  12.621  0.00  0.00    +0.000 C 
BRANCH  18  23
ATOM     19  C   UNL     1      48.044   5.281  16.834  0.00  0.00    +0.000 A 
ATOM     20  C   UNL     1      49.070   6.118  17.255  0.00  0.00    +0.000 A 
ATOM     21  C   UNL     1      49.771   6.863  16.300  0.00  0.00    +0.000 A 
ATOM     22  C   UNL     1      49.426   6.766  14.952  0.00  0.00    +0.000 A 
ATOM     23  N   UNL     1      50.187   7.480  14.022  0.00  0.00    +0.000 N 
ATOM     24  N   UNL     1      48.441   5.944  14.537  0.00  0.00    +0.000 NA
ATOM     25  C   UNL     1      47.779   5.218  15.475  0.00  0.00    +0.000 A 
ATOM     26  H   UNL     1      50.325   8.443  14.319  0.00  0.00    +0.000 HD
BRANCH  19  28
ATOM     27  N   UNL     1      47.128   4.882  19.046  0.00  0.00    +0.000 N 
ATOM     28  C   UNL     1      47.254   4.439  17.757  0.00  0.00    +0.000 C 
ATOM     29  O   UNL     1      46.706   3.414  17.381  0.00  0.00    +0.000 OA
ATOM     30  H   UNL     1      46.505   4.352  19.645  0.00  0.00    +0.000 HD
ATOM     31  H   UNL     1      47.351   5.828  19.326  0.00  0.00    +0.000 HD
ENDBRANCH  19  28
ENDBRANCH  18  23
ENDBRANCH   1  18
TORSDOF 5
ENDMDL
MODEL 6
REMARK VINA RESULT:    -7.604      4.899      7.832
REMARK INTER + INTRA:         -10.877
REMARK INTER:                 -10.032
REMARK INTRA:                  -0.845
REMARK UNBOUND:                -1.050
REMARK  Name = 
REMARK  5 active torsions:
REMARK  status: ('A' for Active; 'I' for Inactive)
REMARK    1  A    between atoms: C_2  and  C_4
REMARK    2  A    between atoms: N_8  and  C_9
REMARK    3  A    between atoms: C_9  and  C_10
REMARK    4  A    between atoms: C_10  and  C_13
REMARK    5  A    between atoms: C_17  and  C_18
REMARK                            x       y       z     vdW  Elec       q    Type
REMARK                         _______ _______ _______ _____ _____    ______ ____
ROOT
ATOM      1  C   UNL     1      45.576   7.260  12.019  0.00  0.00    +0.000 C 
ATOM      2  F   UNL     1      45.089   7.535  13.270  0.00  0.00    +0.000 F 
ATOM      3  F   UNL     1      45.298   8.381  11.283  0.00  0.00    +0.000 F 
ENDROOT
BRANCH   1   4
ATOM      4  C   UNL     1      44.928   6.029  11.418  0.00  0.00    +0.000 A 
ATOM      5  C   UNL     1      43.664   5.595  11.831  0.00  0.00    +0.000 A 
ATOM      6  C   UNL     1      43.091   4.466  11.253  0.00  0.00    +0.000 A 
ATOM      7  C   UNL     1      43.769   3.770  10.247  0.00  0.00    +0.000 A 
ATOM      8  C   UNL     1      45.028   4.188   9.782  0.00  0.00    +0.000 A 
ATOM      9  C   UNL     1      45.596   5.315  10.402  0.00  0.00    +0.000 A 
BRANCH   8  10
ATOM     10  C   UNL     1      45.716   3.489   8.669  0.00  0.00    +0.000 A 
ATOM     11  C   UNL     1      46.257   4.192   7.574  0.00  0.00    +0.000 A 
ATOM     12  C   UNL     1      46.907   3.528   6.528  0.00  0.00    +0.000 A 
ATOM     13  C   UNL     1      47.038   2.147   6.566  0.00  0.00    +0.000 A 
ATOM     14  F   UNL     1      47.682   1.531   5.565  0.00  0.00    +0.000 F 
ATOM     15  C   UNL     1      46.508   1.422   7.626  0.00  0.00    +0.000 A 
ATOM     16 CL   UNL     1      46.668  -0.292   7.687  0.00  0.00    +0.000 Cl
ATOM     17  C   UNL     1      45.843   2.085   8.662  0.00  0.00    +0.000 A 
ENDBRANCH   8  10
ENDBRANCH   1   4
BRANCH   1  18
ATOM     18  C   UNL     1      47.115   7.111  12.135  0.00  0.00    +0.000 C 
BRANCH  18  23
ATOM     19  C   UNL     1      48.919   6.438  16.750  0.00  0.00    +0.000 A 
ATOM     20  C   UNL     1      48.971   7.814  16.560  0.00  0.00    +0.000 A 
ATOM     21  C   UNL     1      48.539   8.344  15.339  0.00  0.00    +0.000 A 
ATOM     22  C   UNL     1      48.055   7.497  14.343  0.00  0.00    +0.000 A 
ATOM     23  N   UNL     1      47.689   8.059  13.117  0.00  0.00    +0.000 N 
ATOM     24  N   UNL     1      48.017   6.160  14.517  0.00  0.00    +0.000 NA
ATOM     25  C   UNL     1      48.452   5.658  15.702  0.00  0.00    +0.000 A 
ATOM     26  H   UNL     1      47.101   8.879  13.247  0.00  0.00    +0.000 HD
BRANCH  19  28
ATOM     27  N   UNL     1      50.327   4.807  17.867  0.00  0.00    +0.000 N 
ATOM     28  C   UNL     1      49.366   5.774  17.992  0.00  0.00    +0.000 C 
ATOM     29  O   UNL     1      48.928   6.096  19.086  0.00  0.00    +0.000 OA
ATOM     30  H   UNL     1      50.698   4.427  18.730  0.00  0.00    +0.000 HD
ATOM     31  H   UNL     1      50.882   4.690  17.030  0.00  0.00    +0.000 HD
ENDBRANCH  19  28
ENDBRANCH  18  23
ENDBRANCH   1  18
TORSDOF 5
ENDMDL
MODEL 7
REMARK VINA RESULT:    -7.446      5.058      8.144
REMARK INTER + INTRA:         -10.673
REMARK INTER:                  -9.709
REMARK INTRA:                  -0.963
REMARK UNBOUND:                -1.050
REMARK  Name = 
REMARK  5 active torsions:
REMARK  status: ('A' for Active; 'I' for Inactive)
REMARK    1  A    between atoms: C_2  and  C_4
REMARK    2  A    between atoms: N_8  and  C_9
REMARK    3  A    between atoms: C_9  and  C_10
REMARK    4  A    between atoms: C_10  and  C_13
REMARK    5  A    between atoms: C_17  and  C_18
REMARK                            x       y       z     vdW  Elec       q    Type
REMARK                         _______ _______ _______ _____ _____    ______ ____
ROOT
ATOM      1  C   UNL     1      48.769   8.078  12.694  0.00  0.00    +0.000 C 
ATOM      2  F   UNL     1      49.364   9.127  12.041  0.00  0.00    +0.000 F 
ATOM      3  F   UNL     1      49.550   6.994  12.391  0.00  0.00    +0.000 F 
ENDROOT
BRANCH   1   4
ATOM      4  C   UNL     1      47.338   7.871  12.243  0.00  0.00    +0.000 A 
ATOM      5  C   UNL     1      46.385   8.890  12.349  0.00  0.00    +0.000 A 
ATOM      6  C   UNL     1      45.079   8.671  11.917  0.00  0.00    +0.000 A 
ATOM      7  C   UNL     1      44.719   7.439  11.364  0.00  0.00    +0.000 A 
ATOM      8  C   UNL     1      45.650   6.398  11.214  0.00  0.00    +0.000 A 
ATOM      9  C   UNL     1      46.955   6.636  11.683  0.00  0.00    +0.000 A 
BRANCH   8  10
ATOM     10  C   UNL     1      45.284   5.114  10.567  0.00  0.00    +0.000 A 
ATOM     11  C   UNL     1      44.532   4.132  11.241  0.00  0.00    +0.000 A 
ATOM     12  C   UNL     1      44.188   2.924  10.625  0.00  0.00    +0.000 A 
ATOM     13  C   UNL     1      44.580   2.683   9.316  0.00  0.00    +0.000 A 
ATOM     14  F   UNL     1      44.222   1.529   8.736  0.00  0.00    +0.000 F 
ATOM     15  C   UNL     1      45.330   3.627   8.625  0.00  0.00    +0.000 A 
ATOM     16 CL   UNL     1      45.818   3.342   6.998  0.00  0.00    +0.000 Cl
ATOM     17  C   UNL     1      45.688   4.825   9.248  0.00  0.00    +0.000 A 
ENDBRANCH   8  10
ENDBRANCH   1   4
BRANCH   1  18
ATOM     18  C   UNL     1      48.869   8.354  14.216  0.00  0.00    +0.000 C 
BRANCH  18  23
ATOM     19  C   UNL     1      50.472   4.850  17.402  0.00  0.00    +0.000 A 
ATOM     20  C   UNL     1      49.103   4.629  17.311  0.00  0.00    +0.000 A 
ATOM     21  C   UNL     1      48.336   5.463  16.491  0.00  0.00    +0.000 A 
ATOM     22  C   UNL     1      48.950   6.488  15.772  0.00  0.00    +0.000 A 
ATOM     23  N   UNL     1      48.143   7.337  15.010  0.00  0.00    +0.000 N 
ATOM     24  N   UNL     1      50.276   6.716  15.868  0.00  0.00    +0.000 NA
ATOM     25  C   UNL     1      51.005   5.906  16.678  0.00  0.00    +0.000 A 
ATOM     26  H   UNL     1      47.481   6.810  14.445  0.00  0.00    +0.000 HD
BRANCH  19  28
ATOM     27  N   UNL     1      51.272   4.217  19.605  0.00  0.00    +0.000 N 
ATOM     28  C   UNL     1      51.370   4.039  18.251  0.00  0.00    +0.000 C 
ATOM     29  O   UNL     1      52.139   3.219  17.773  0.00  0.00    +0.000 OA
ATOM     30  H   UNL     1      51.818   3.590  20.182  0.00  0.00    +0.000 HD
ATOM     31  H   UNL     1      50.492   4.692  20.040  0.00  0.00    +0.000 HD
ENDBRANCH  19  28
ENDBRANCH  18  23
ENDBRANCH   1  18
TORSDOF 5
ENDMDL
MODEL 8
REMARK VINA RESULT:    -7.209      5.092      8.210
REMARK INTER + INTRA:         -10.366
REMARK INTER:                  -9.439
REMARK INTRA:                  -0.927
REMARK UNBOUND:                -1.050
REMARK  Name = 
REMARK  5 active torsions:
REMARK  status: ('A' for Active; 'I' for Inactive)
REMARK    1  A    between atoms: C_2  and  C_4
REMARK    2  A    between atoms: N_8  and  C_9
REMARK    3  A    between atoms: C_9  and  C_10
REMARK    4  A    between atoms: C_10  and  C_13
REMARK    5  A    between atoms: C_17  and  C_18
REMARK                            x       y       z     vdW  Elec       q    Type
REMARK                         _______ _______ _______ _____ _____    ______ ____
ROOT
ATOM      1  C   UNL     1      49.106   8.313  12.558  0.00  0.00    +0.000 C 
ATOM      2  F   UNL     1      49.699   9.234  11.732  0.00  0.00    +0.000 F 
ATOM      3  F   UNL     1      49.804   7.154  12.342  0.00  0.00    +0.000 F 
ENDROOT
BRANCH   1   4
ATOM      4  C   UNL     1      47.634   8.139  12.245  0.00  0.00    +0.000 A 
ATOM      5  C   UNL     1      46.711   9.160  12.489  0.00  0.00    +0.000 A 
ATOM      6  C   UNL     1      45.365   8.973  12.181  0.00  0.00    +0.000 A 
ATOM      7  C   UNL     1      44.935   7.769  11.615  0.00  0.00    +0.000 A 
ATOM      8  C   UNL     1      45.833   6.727  11.328  0.00  0.00    +0.000 A 
ATOM      9  C   UNL     1      47.181   6.933  11.673  0.00  0.00    +0.000 A 
BRANCH   8  10
ATOM     10  C   UNL     1      45.387   5.477  10.665  0.00  0.00    +0.000 A 
ATOM     11  C   UNL     1      45.719   5.188   9.327  0.00  0.00    +0.000 A 
ATOM     12  C   UNL     1      45.296   4.007   8.708  0.00  0.00    +0.000 A 
ATOM     13  C   UNL     1      44.544   3.086   9.423  0.00  0.00    +0.000 A 
ATOM     14  F   UNL     1      44.167   1.950   8.819  0.00  0.00    +0.000 F 
ATOM     15  C   UNL     1      44.191   3.344  10.742  0.00  0.00    +0.000 A 
ATOM     16 CL   UNL     1      43.262   2.207  11.642  0.00  0.00    +0.000 Cl
ATOM     17  C   UNL     1      44.599   4.533  11.353  0.00  0.00    +0.000 A 
ENDBRANCH   8  10
ENDBRANCH   1   4
BRANCH   1  18
ATOM     18  C   UNL     1      49.342   8.772  14.020  0.00  0.00    +0.000 C 
BRANCH  18  23
ATOM     19  C   UNL     1      49.645   5.111  17.412  0.00  0.00    +0.000 A 
ATOM     20  C   UNL     1      50.967   5.476  17.184  0.00  0.00    +0.000 A 
ATOM     21  C   UNL     1      51.238   6.489  16.258  0.00  0.00    +0.000 A 
ATOM     22  C   UNL     1      50.190   7.123  15.592  0.00  0.00    +0.000 A 
ATOM     23  N   UNL     1      50.505   8.089  14.631  0.00  0.00    +0.000 N 
ATOM     24  N   UNL     1      48.907   6.762  15.798  0.00  0.00    +0.000 NA
ATOM     25  C   UNL     1      48.660   5.768  16.690  0.00  0.00    +0.000 A 
ATOM     26  H   UNL     1      51.196   8.748  14.982  0.00  0.00    +0.000 HD
BRANCH  19  28
ATOM     27  N   UNL     1      49.633   2.767  18.041  0.00  0.00    +0.000 N 
ATOM     28  C   UNL     1      49.250   4.043  18.354  0.00  0.00    +0.000 C 
ATOM     29  O   UNL     1      48.642   4.289  19.385  0.00  0.00    +0.000 OA
ATOM     30  H   UNL     1      49.445   2.057  18.739  0.00  0.00    +0.000 HD
ATOM     31  H   UNL     1      50.335   2.560  17.343  0.00  0.00    +0.000 HD
ENDBRANCH  19  28
ENDBRANCH  18  23
ENDBRANCH   1  18
TORSDOF 5
ENDMDL
MODEL 9
REMARK VINA RESULT:    -7.110      4.368      7.495
REMARK INTER + INTRA:         -10.237
REMARK INTER:                  -9.421
REMARK INTRA:                  -0.817
REMARK UNBOUND:                -1.050
REMARK  Name = 
REMARK  5 active torsions:
REMARK  status: ('A' for Active; 'I' for Inactive)
REMARK    1  A    between atoms: C_2  and  C_4
REMARK    2  A    between atoms: N_8  and  C_9
REMARK    3  A    between atoms: C_9  and  C_10
REMARK    4  A    between atoms: C_10  and  C_13
REMARK    5  A    between atoms: C_17  and  C_18
REMARK                            x       y       z     vdW  Elec       q    Type
REMARK                         _______ _______ _______ _____ _____    ______ ____
ROOT
ATOM      1  C   UNL     1      44.910   7.122  11.889  0.00  0.00    +0.000 C 
ATOM      2  F   UNL     1      44.874   7.232  13.255  0.00  0.00    +0.000 F 
ATOM      3  F   UNL     1      44.030   8.070  11.441  0.00  0.00    +0.000 F 
ENDROOT
BRANCH   1   4
ATOM      4  C   UNL     1      44.514   5.736  11.423  0.00  0.00    +0.000 A 
ATOM      5  C   UNL     1      43.432   5.056  11.992  0.00  0.00    +0.000 A 
ATOM      6  C   UNL     1      43.087   3.787  11.535  0.00  0.00    +0.000 A 
ATOM      7  C   UNL     1      43.811   3.193  10.497  0.00  0.00    +0.000 A 
ATOM      8  C   UNL     1      44.887   3.850   9.879  0.00  0.00    +0.000 A 
ATOM      9  C   UNL     1      45.231   5.120  10.378  0.00  0.00    +0.000 A 
BRANCH   8  10
ATOM     10  C   UNL     1      45.612   3.247   8.734  0.00  0.00    +0.000 A 
ATOM     11  C   UNL     1      46.108   4.033   7.674  0.00  0.00    +0.000 A 
ATOM     12  C   UNL     1      46.792   3.458   6.597  0.00  0.00    +0.000 A 
ATOM     13  C   UNL     1      47.004   2.088   6.569  0.00  0.00    +0.000 A 
ATOM     14  F   UNL     1      47.680   1.559   5.539  0.00  0.00    +0.000 F 
ATOM     15  C   UNL     1      46.520   1.283   7.592  0.00  0.00    +0.000 A 
ATOM     16 CL   UNL     1      46.781  -0.419   7.571  0.00  0.00    +0.000 Cl
ATOM     17  C   UNL     1      45.821   1.856   8.659  0.00  0.00    +0.000 A 
ENDBRANCH   8  10
ENDBRANCH   1   4
BRANCH   1  18
ATOM     18  C   UNL     1      46.337   7.508  11.423  0.00  0.00    +0.000 C 
BRANCH  18  23
ATOM     19  C   UNL     1      51.067   8.805  12.397  0.00  0.00    +0.000 A 
ATOM     20  C   UNL     1      50.308   9.669  13.178  0.00  0.00    +0.000 A 
ATOM     21  C   UNL     1      48.913   9.575  13.128  0.00  0.00    +0.000 A 
ATOM     22  C   UNL     1      48.307   8.619  12.314  0.00  0.00    +0.000 A 
ATOM     23  N   UNL     1      46.911   8.596  12.247  0.00  0.00    +0.000 N 
ATOM     24  N   UNL     1      49.039   7.789  11.544  0.00  0.00    +0.000 NA
ATOM     25  C   UNL     1      50.392   7.900  11.592  0.00  0.00    +0.000 A 
ATOM     26  H   UNL     1      46.495   8.635  13.175  0.00  0.00    +0.000 HD
BRANCH  19  28
ATOM     27  N   UNL     1      53.167   9.776  13.130  0.00  0.00    +0.000 N 
ATOM     28  C   UNL     1      52.544   8.831  12.361  0.00  0.00    +0.000 C 
ATOM     29  O   UNL     1      53.185   8.022  11.706  0.00  0.00    +0.000 OA
ATOM     30  H   UNL     1      54.178   9.724  13.177  0.00  0.00    +0.000 HD
ATOM     31  H   UNL     1      52.692  10.288  13.862  0.00  0.00    +0.000 HD
ENDBRANCH  19  28
ENDBRANCH  18  23
ENDBRANCH   1  18
TORSDOF 5
ENDMDL
