MODEL 1
REMARK VINA RESULT:    -6.905      0.000      0.000
REMARK INTER + INTRA:          -8.848
REMARK INTER:                  -8.519
REMARK INTRA:                  -0.329
REMARK UNBOUND:                -0.329
REMARK  Name = 
REMARK  6 active torsions:
REMARK  status: ('A' for Active; 'I' for Inactive)
REMARK    1  A    between atoms: C_1  and  C_2
REMARK    2  A    between atoms: C_2  and  C_3
REMARK    3  A    between atoms: C_2  and  N_9
REMARK    4  A    between atoms: N_9  and  C_10
REMARK    5  A    between atoms: N_9  and  C_11
REMARK    6  A    between atoms: C_14  and  C_15
REMARK                            x       y       z     vdW  Elec       q    Type
REMARK                         _______ _______ _______ _____ _____    ______ ____
ROOT
ATOM      1  C   UNL     1      45.221   4.521   9.485  0.00  0.00    +0.000 A 
ATOM      2  N   UNL     1      46.084   5.097   8.600  0.00  0.00    +0.000 NA
ATOM      3  C   UNL     1      46.690   4.325   7.646  0.00  0.00    +0.000 A 
ATOM      4  C   UNL     1      46.489   2.966   7.495  0.00  0.00    +0.000 A 
ATOM      5  C   UNL     1      45.640   2.361   8.412  0.00  0.00    +0.000 A 
ATOM      6  C   UNL     1      45.029   3.120   9.420  0.00  0.00    +0.000 A 
ATOM      7 CL   UNL     1      44.164   2.167  10.584  0.00  0.00    +0.000 Cl
ENDROOT
BRANCH   4   8
ATOM      8  C   UNL     1      47.110   2.114   6.443  0.00  0.00    +0.000 C 
ATOM      9  N   UNL     1      47.728   2.714   5.389  0.00  0.00    +0.000 N 
ATOM     10  O   UNL     1      47.072   0.892   6.518  0.00  0.00    +0.000 OA
ATOM     11  H   UNL     1      47.902   3.697   5.282  0.00  0.00    +0.000 HD
ATOM     12  H   UNL     1      48.168   2.087   4.724  0.00  0.00    +0.000 HD
ENDBRANCH   4   8
BRANCH   1  13
ATOM     13  N   UNL     1      44.593   5.366  10.395  0.00  0.00    +0.000 N 
ATOM     14  C   UNL     1      43.163   5.237  10.675  0.00  0.00    +0.000 C 
BRANCH  13  16
ATOM     15  C   UNL     1      44.309   7.647  11.316  0.00  0.00    +0.000 C 
ATOM     16  C   UNL     1      45.314   6.526  10.973  0.00  0.00    +0.000 C 
BRANCH  16  17
ATOM     17  C   UNL     1      46.146   6.080  12.190  0.00  0.00    +0.000 A 
ATOM     18  C   UNL     1      45.746   4.966  12.951  0.00  0.00    +0.000 A 
ATOM     19  C   UNL     1      46.423   4.597  14.114  0.00  0.00    +0.000 A 
ATOM     20  C   UNL     1      47.546   5.308  14.519  0.00  0.00    +0.000 A 
ATOM     21  C   UNL     1      48.010   6.366  13.741  0.00  0.00    +0.000 A 
ATOM     22  C   UNL     1      47.324   6.741  12.581  0.00  0.00    +0.000 A 
ENDBRANCH  16  17
ENDBRANCH  13  16
ENDBRANCH   1  13
TORSDOF 4
ENDMDL
MODEL 2
REMARK VINA RESULT:    -6.672      3.302      6.297
REMARK INTER + INTRA:          -8.561
REMARK INTER:                  -8.499
REMARK INTRA:                  -0.062
REMARK UNBOUND:                -0.329
REMARK  Name = 
REMARK  6 active torsions:
REMARK  status: ('A' for Active; 'I' for Inactive)
REMARK    1  A    between atoms: C_1  and  C_2
REMARK    2  A    between atoms: C_2  and  C_3
REMARK    3  A    between atoms: C_2  and  N_9
REMARK    4  A    between atoms: N_9  and  C_10
REMARK    5  A    between atoms: N_9  and  C_11
REMARK    6  A    between atoms: C_14  and  C_15
REMARK                            x       y       z     vdW  Elec       q    Type
REMARK                         _______ _______ _______ _____ _____    ______ ____
ROOT
ATOM      1  C   UNL     1      45.131   5.788  12.241  0.00  0.00    +0.000 A 
ATOM      2  N   UNL     1      44.908   7.131  12.161  0.00  0.00    +0.000 NA
ATOM      3  C   UNL     1      45.795   7.999  12.736  0.00  0.00    +0.000 A 
ATOM      4  C   UNL     1      46.940   7.618  13.409  0.00  0.00    +0.000 A 
ATOM      5  C   UNL     1      47.160   6.252  13.527  0.00  0.00    +0.000 A 
ATOM      6  C   UNL     1      46.253   5.337  12.976  0.00  0.00    +0.000 A 
ATOM      7 CL   UNL     1      46.587   3.686  13.392  0.00  0.00    +0.000 Cl
ENDROOT
BRANCH   4   8
ATOM      8  C   UNL     1      47.937   8.546  14.010  0.00  0.00    +0.000 C 
ATOM      9  N   UNL     1      47.629   9.177  15.177  0.00  0.00    +0.000 N 
ATOM     10  O   UNL     1      49.020   8.743  13.474  0.00  0.00    +0.000 OA
ATOM     11  H   UNL     1      46.819   9.012  15.748  0.00  0.00    +0.000 HD
ATOM     12  H   UNL     1      48.359   9.766  15.563  0.00  0.00    +0.000 HD
ENDBRANCH   4   8
BRANCH   1  13
ATOM     13  N   UNL     1      44.225   4.958  11.590  0.00  0.00    +0.000 N 
ATOM     14  C   UNL     1      42.855   5.401  11.328  0.00  0.00    +0.000 C 
BRANCH  13  16
ATOM     15  C   UNL     1      43.333   2.647  11.547  0.00  0.00    +0.000 C 
ATOM     16  C   UNL     1      44.566   3.543  11.299  0.00  0.00    +0.000 C 
BRANCH  16  17
ATOM     17  C   UNL     1      45.116   3.415   9.866  0.00  0.00    +0.000 A 
ATOM     18  C   UNL     1      45.250   2.147   9.270  0.00  0.00    +0.000 A 
ATOM     19  C   UNL     1      45.835   1.992   8.013  0.00  0.00    +0.000 A 
ATOM     20  C   UNL     1      46.260   3.107   7.302  0.00  0.00    +0.000 A 
ATOM     21  C   UNL     1      46.067   4.379   7.834  0.00  0.00    +0.000 A 
ATOM     22  C   UNL     1      45.489   4.533   9.099  0.00  0.00    +0.000 A 
ENDBRANCH  16  17
ENDBRANCH  13  16
ENDBRANCH   1  13
TORSDOF 4
ENDMDL
MODEL 3
REMARK VINA RESULT:    -6.634      1.528      2.403
REMARK INTER + INTRA:          -8.514
REMARK INTER:                  -8.155
REMARK INTRA:                  -0.359
REMARK UNBOUND:                -0.329
REMARK  Name = 
REMARK  6 active torsions:
REMARK  status: ('A' for Active; 'I' for Inactive)
REMARK    1  A    between atoms: C_1  and  C_2
REMARK    2  A    between atoms: C_2  and  C_3
REMARK    3  A    between atoms: C_2  and  N_9
REMARK    4  A    between atoms: N_9  and  C_10
REMARK    5  A    between atoms: N_9  and  C_11
REMARK    6  A    between atoms: C_14  and  C_15
REMARK                            x       y       z     vdW  Elec       q    Type
REMARK                         _______ _______ _______ _____ _____    ______ ____
ROOT
ATOM      1  C   UNL     1      44.577   4.776  10.589  0.00  0.00    +0.000 A 
ATOM      2  N   UNL     1      45.450   5.391   9.740  0.00  0.00    +0.000 NA
ATOM      3  C   UNL     1      46.003   4.682   8.708  0.00  0.00    +0.000 A 
ATOM      4  C   UNL     1      45.738   3.353   8.440  0.00  0.00    +0.000 A 
ATOM      5  C   UNL     1      44.877   2.706   9.318  0.00  0.00    +0.000 A 
ATOM      6  C   UNL     1      44.320   3.396  10.402  0.00  0.00    +0.000 A 
ATOM      7 CL   UNL     1      43.433   2.381  11.494  0.00  0.00    +0.000 Cl
ENDROOT
BRANCH   4   8
ATOM      8  C   UNL     1      46.300   2.573   7.303  0.00  0.00    +0.000 C 
ATOM      9  N   UNL     1      46.797   1.328   7.540  0.00  0.00    +0.000 N 
ATOM     10  O   UNL     1      46.316   3.034   6.169  0.00  0.00    +0.000 OA
ATOM     11  H   UNL     1      46.742   0.819   8.404  0.00  0.00    +0.000 HD
ATOM     12  H   UNL     1      47.130   0.826   6.723  0.00  0.00    +0.000 HD
ENDBRANCH   4   8
BRANCH   1  13
ATOM     13  N   UNL     1      44.006   5.561  11.584  0.00  0.00    +0.000 N 
ATOM     14  C   UNL     1      42.700   6.192  11.385  0.00  0.00    +0.000 C 
BRANCH  13  16
ATOM     15  C   UNL     1      45.510   4.677  13.342  0.00  0.00    +0.000 C 
ATOM     16  C   UNL     1      44.775   5.922  12.800  0.00  0.00    +0.000 C 
BRANCH  16  17
ATOM     17  C   UNL     1      45.731   7.091  12.493  0.00  0.00    +0.000 A 
ATOM     18  C   UNL     1      47.110   6.856  12.339  0.00  0.00    +0.000 A 
ATOM     19  C   UNL     1      48.012   7.905  12.157  0.00  0.00    +0.000 A 
ATOM     20  C   UNL     1      47.549   9.213  12.081  0.00  0.00    +0.000 A 
ATOM     21  C   UNL     1      46.182   9.466  12.152  0.00  0.00    +0.000 A 
ATOM     22  C   UNL     1      45.280   8.414  12.343  0.00  0.00    +0.000 A 
ENDBRANCH  16  17
ENDBRANCH  13  16
ENDBRANCH   1  13
TORSDOF 4
ENDMDL
MODEL 4
REMARK VINA RESULT:    -6.474      3.565      6.714
REMARK INTER + INTRA:          -8.317
REMARK INTER:                  -8.022
REMARK INTRA:                  -0.295
REMARK UNBOUND:                -0.329
REMARK  Name = 
REMARK  6 active torsions:
REMARK  status: ('A' for Active; 'I' for Inactive)
REMARK    1  A    between atoms: C_1  and  C_2
REMARK    2  A    between atoms: C_2  and  C_3
REMARK    3  A    between atoms: C_2  and  N_9
REMARK    4  A    between atoms: N_9  and  C_10
REMARK    5  A    between atoms: N_9  and  C_11
REMARK    6  A    between atoms: C_14  and  C_15
REMARK                            x       y       z     vdW  Elec       q    Type
REMARK                         _______ _______ _______ _____ _____    ______ ____
ROOT
ATOM      1  C   UNL     1      45.800   4.982  12.918  0.00  0.00    +0.000 A 
ATOM      2  N   UNL     1      45.898   4.189  14.023  0.00  0.00    +0.000 NA
ATOM      3  C   UNL     1      46.821   4.487  14.989  0.00  0.00    +0.000 A 
ATOM      4  C   UNL     1      47.685   5.563  14.941  0.00  0.00    +0.000 A 
ATOM      5  C   UNL     1      47.619   6.359  13.804  0.00  0.00    +0.000 A 
ATOM      6  C   UNL     1      46.706   6.061  12.783  0.00  0.00    +0.000 A 
ATOM      7 CL   UNL     1      46.902   7.040  11.365  0.00  0.00    +0.000 Cl
ENDROOT
BRANCH   4   8
ATOM      8  C   UNL     1      48.671   5.926  15.997  0.00  0.00    +0.000 C 
ATOM      9  N   UNL     1      48.269   5.939  17.297  0.00  0.00    +0.000 N 
ATOM     10  O   UNL     1      49.827   6.208  15.710  0.00  0.00    +0.000 OA
ATOM     11  H   UNL     1      47.380   5.630  17.648  0.00  0.00    +0.000 HD
ATOM     12  H   UNL     1      48.990   6.153  17.977  0.00  0.00    +0.000 HD
ENDBRANCH   4   8
BRANCH   1  13
ATOM     13  N   UNL     1      44.807   4.662  11.998  0.00  0.00    +0.000 N 
ATOM     14  C   UNL     1      43.722   5.601  11.707  0.00  0.00    +0.000 C 
BRANCH  13  16
ATOM     15  C   UNL     1      43.276   2.770  11.538  0.00  0.00    +0.000 C 
ATOM     16  C   UNL     1      44.722   3.299  11.419  0.00  0.00    +0.000 C 
BRANCH  16  17
ATOM     17  C   UNL     1      45.234   3.308   9.966  0.00  0.00    +0.000 A 
ATOM     18  C   UNL     1      45.585   4.522   9.347  0.00  0.00    +0.000 A 
ATOM     19  C   UNL     1      45.959   4.573   8.003  0.00  0.00    +0.000 A 
ATOM     20  C   UNL     1      46.033   3.402   7.258  0.00  0.00    +0.000 A 
ATOM     21  C   UNL     1      45.767   2.180   7.867  0.00  0.00    +0.000 A 
ATOM     22  C   UNL     1      45.383   2.131   9.212  0.00  0.00    +0.000 A 
ENDBRANCH  16  17
ENDBRANCH  13  16
ENDBRANCH   1  13
TORSDOF 4
ENDMDL
MODEL 5
REMARK VINA RESULT:    -6.426      1.609      2.184
REMARK INTER + INTRA:          -8.258
REMARK INTER:                  -8.480
REMARK INTRA:                   0.222
REMARK UNBOUND:                -0.329
REMARK  Name = 
REMARK  6 active torsions:
REMARK  status: ('A' for Active; 'I' for Inactive)
REMARK    1  A    between atoms: C_1  and  C_2
REMARK    2  A    between atoms: C_2  and  C_3
REMARK    3  A    between atoms: C_2  and  N_9
REMARK    4  A    between atoms: N_9  and  C_10
REMARK    5  A    between atoms: N_9  and  C_11
REMARK    6  A    between atoms: C_14  and  C_15
REMARK                            x       y       z     vdW  Elec       q    Type
REMARK                         _______ _______ _______ _____ _____    ______ ____
ROOT
ATOM      1  C   UNL     1      44.909   3.291   9.829  0.00  0.00    +0.000 A 
ATOM      2  N   UNL     1      44.957   1.991   9.421  0.00  0.00    +0.000 NA
ATOM      3  C   UNL     1      45.691   1.656   8.316  0.00  0.00    +0.000 A 
ATOM      4  C   UNL     1      46.418   2.553   7.557  0.00  0.00    +0.000 A 
ATOM      5  C   UNL     1      46.349   3.886   7.941  0.00  0.00    +0.000 A 
ATOM      6  C   UNL     1      45.580   4.264   9.050  0.00  0.00    +0.000 A 
ATOM      7 CL   UNL     1      45.455   5.982   9.259  0.00  0.00    +0.000 Cl
ENDROOT
BRANCH   4   8
ATOM      8  C   UNL     1      47.251   2.205   6.373  0.00  0.00    +0.000 C 
ATOM      9  N   UNL     1      47.218   3.018   5.281  0.00  0.00    +0.000 N 
ATOM     10  O   UNL     1      47.961   1.207   6.372  0.00  0.00    +0.000 OA
ATOM     11  H   UNL     1      46.753   3.906   5.215  0.00  0.00    +0.000 HD
ATOM     12  H   UNL     1      47.835   2.756   4.520  0.00  0.00    +0.000 HD
ENDBRANCH   4   8
BRANCH   1  13
ATOM     13  N   UNL     1      44.193   3.562  10.990  0.00  0.00    +0.000 N 
ATOM     14  C   UNL     1      43.361   2.534  11.616  0.00  0.00    +0.000 C 
BRANCH  13  16
ATOM     15  C   UNL     1      42.748   5.158  12.215  0.00  0.00    +0.000 C 
ATOM     16  C   UNL     1      44.114   4.943  11.527  0.00  0.00    +0.000 C 
BRANCH  16  17
ATOM     17  C   UNL     1      45.303   5.214  12.468  0.00  0.00    +0.000 A 
ATOM     18  C   UNL     1      45.811   6.519  12.609  0.00  0.00    +0.000 A 
ATOM     19  C   UNL     1      46.946   6.779  13.378  0.00  0.00    +0.000 A 
ATOM     20  C   UNL     1      47.574   5.745  14.061  0.00  0.00    +0.000 A 
ATOM     21  C   UNL     1      47.046   4.459  14.002  0.00  0.00    +0.000 A 
ATOM     22  C   UNL     1      45.913   4.197  13.224  0.00  0.00    +0.000 A 
ENDBRANCH  16  17
ENDBRANCH  13  16
ENDBRANCH   1  13
TORSDOF 4
ENDMDL
MODEL 6
REMARK VINA RESULT:    -6.240      3.203      5.089
REMARK INTER + INTRA:          -8.029
REMARK INTER:                  -7.395
REMARK INTRA:                  -0.634
REMARK UNBOUND:                -0.329
REMARK  Name = 
REMARK  6 active torsions:
REMARK  status: ('A' for Active; 'I' for Inactive)
REMARK    1  A    between atoms: C_1  and  C_2
REMARK    2  A    between atoms: C_2  and  C_3
REMARK    3  A    between atoms: C_2  and  N_9
REMARK    4  A    between atoms: N_9  and  C_10
REMARK    5  A    between atoms: N_9  and  C_11
REMARK    6  A    between atoms: C_14  and  C_15
REMARK                            x       y       z     vdW  Elec       q    Type
REMARK                         _______ _______ _______ _____ _____    ______ ____
ROOT
ATOM      1  C   UNL     1      46.641   6.103  12.261  0.00  0.00    +0.000 A 
ATOM      2  N   UNL     1      46.167   6.128  10.983  0.00  0.00    +0.000 NA
ATOM      3  C   UNL     1      45.354   5.119  10.543  0.00  0.00    +0.000 A 
ATOM      4  C   UNL     1      44.954   4.043  11.312  0.00  0.00    +0.000 A 
ATOM      5  C   UNL     1      45.459   3.988  12.605  0.00  0.00    +0.000 A 
ATOM      6  C   UNL     1      46.318   4.990  13.074  0.00  0.00    +0.000 A 
ATOM      7 CL   UNL     1      46.999   4.651  14.634  0.00  0.00    +0.000 Cl
ENDROOT
BRANCH   4   8
ATOM      8  C   UNL     1      44.043   2.954  10.865  0.00  0.00    +0.000 C 
ATOM      9  N   UNL     1      44.432   2.149   9.839  0.00  0.00    +0.000 N 
ATOM     10  O   UNL     1      42.960   2.775  11.408  0.00  0.00    +0.000 OA
ATOM     11  H   UNL     1      45.333   2.144   9.394  0.00  0.00    +0.000 HD
ATOM     12  H   UNL     1      43.791   1.399   9.602  0.00  0.00    +0.000 HD
ENDBRANCH   4   8
BRANCH   1  13
ATOM     13  N   UNL     1      47.416   7.184  12.668  0.00  0.00    +0.000 N 
ATOM     14  C   UNL     1      48.871   7.162  12.517  0.00  0.00    +0.000 C 
BRANCH  13  16
ATOM     15  C   UNL     1      47.822   8.845  14.460  0.00  0.00    +0.000 C 
ATOM     16  C   UNL     1      46.811   8.309  13.423  0.00  0.00    +0.000 C 
BRANCH  16  17
ATOM     17  C   UNL     1      46.324   9.398  12.449  0.00  0.00    +0.000 A 
ATOM     18  C   UNL     1      47.222  10.366  11.962  0.00  0.00    +0.000 A 
ATOM     19  C   UNL     1      46.791  11.421  11.157  0.00  0.00    +0.000 A 
ATOM     20  C   UNL     1      45.456  11.507  10.782  0.00  0.00    +0.000 A 
ATOM     21  C   UNL     1      44.562  10.519  11.184  0.00  0.00    +0.000 A 
ATOM     22  C   UNL     1      44.994   9.467  11.999  0.00  0.00    +0.000 A 
ENDBRANCH  16  17
ENDBRANCH  13  16
ENDBRANCH   1  13
TORSDOF 4
ENDMDL
MODEL 7
REMARK VINA RESULT:    -5.779      3.231      4.636
REMARK INTER + INTRA:          -7.459
REMARK INTER:                  -6.902
REMARK INTRA:                  -0.558
REMARK UNBOUND:                -0.329
REMARK  Name = 
REMARK  6 active torsions:
REMARK  status: ('A' for Active; 'I' for Inactive)
REMARK    1  A    between atoms: C_1  and  C_2
REMARK    2  A    between atoms: C_2  and  C_3
REMARK    3  A    between atoms: C_2  and  N_9
REMARK    4  A    between atoms: N_9  and  C_10
REMARK    5  A    between atoms: N_9  and  C_11
REMARK    6  A    between atoms: C_14  and  C_15
REMARK                            x       y       z     vdW  Elec       q    Type
REMARK                         _______ _______ _______ _____ _____    ______ ____
ROOT
ATOM      1  C   UNL     1      46.534   6.019  12.482  0.00  0.00    +0.000 A 
ATOM      2  N   UNL     1      46.053   6.126  11.210  0.00  0.00    +0.000 NA
ATOM      3  C   UNL     1      45.273   5.125  10.696  0.00  0.00    +0.000 A 
ATOM      4  C   UNL     1      44.915   3.980  11.382  0.00  0.00    +0.000 A 
ATOM      5  C   UNL     1      45.428   3.844  12.666  0.00  0.00    +0.000 A 
ATOM      6  C   UNL     1      46.255   4.837  13.208  0.00  0.00    +0.000 A 
ATOM      7 CL   UNL     1      46.956   4.404  14.735  0.00  0.00    +0.000 Cl
ENDROOT
BRANCH   4   8
ATOM      8  C   UNL     1      44.039   2.897  10.856  0.00  0.00    +0.000 C 
ATOM      9  N   UNL     1      44.463   2.169   9.787  0.00  0.00    +0.000 N 
ATOM     10  O   UNL     1      42.955   2.656  11.371  0.00  0.00    +0.000 OA
ATOM     11  H   UNL     1      45.369   2.216   9.355  0.00  0.00    +0.000 HD
ATOM     12  H   UNL     1      43.846   1.418   9.495  0.00  0.00    +0.000 HD
ENDBRANCH   4   8
BRANCH   1  13
ATOM     13  N   UNL     1      47.274   7.092  12.968  0.00  0.00    +0.000 N 
ATOM     14  C   UNL     1      46.623   8.358  13.311  0.00  0.00    +0.000 C 
BRANCH  13  16
ATOM     15  C   UNL     1      49.320   7.776  11.751  0.00  0.00    +0.000 C 
ATOM     16  C   UNL     1      48.756   7.043  12.988  0.00  0.00    +0.000 C 
BRANCH  16  17
ATOM     17  C   UNL     1      49.287   7.621  14.314  0.00  0.00    +0.000 A 
ATOM     18  C   UNL     1      49.089   6.922  15.520  0.00  0.00    +0.000 A 
ATOM     19  C   UNL     1      49.472   7.465  16.747  0.00  0.00    +0.000 A 
ATOM     20  C   UNL     1      50.103   8.702  16.793  0.00  0.00    +0.000 A 
ATOM     21  C   UNL     1      50.382   9.377  15.609  0.00  0.00    +0.000 A 
ATOM     22  C   UNL     1      49.989   8.837  14.380  0.00  0.00    +0.000 A 
ENDBRANCH  16  17
ENDBRANCH  13  16
ENDBRANCH   1  13
TORSDOF 4
ENDMDL
MODEL 8
REMARK VINA RESULT:    -5.678      4.053      6.861
REMARK INTER + INTRA:          -7.335
REMARK INTER:                  -6.903
REMARK INTRA:                  -0.433
REMARK UNBOUND:                -0.329
REMARK  Name = 
REMARK  6 active torsions:
REMARK  status: ('A' for Active; 'I' for Inactive)
REMARK    1  A    between atoms: C_1  and  C_2
REMARK    2  A    between atoms: C_2  and  C_3
REMARK    3  A    between atoms: C_2  and  N_9
REMARK    4  A    between atoms: N_9  and  C_10
REMARK    5  A    between atoms: N_9  and  C_11
REMARK    6  A    between atoms: C_14  and  C_15
REMARK                            x       y       z     vdW  Elec       q    Type
REMARK                         _______ _______ _______ _____ _____    ______ ____
ROOT
ATOM      1  C   UNL     1      47.495   5.685  14.257  0.00  0.00    +0.000 A 
ATOM      2  N   UNL     1      48.083   6.282  15.333  0.00  0.00    +0.000 NA
ATOM      3  C   UNL     1      48.405   5.531  16.430  0.00  0.00    +0.000 A 
ATOM      4  C   UNL     1      48.183   4.171  16.542  0.00  0.00    +0.000 A 
ATOM      5  C   UNL     1      47.553   3.559  15.466  0.00  0.00    +0.000 A 
ATOM      6  C   UNL     1      47.182   4.307  14.341  0.00  0.00    +0.000 A 
ATOM      7 CL   UNL     1      46.236   3.417  13.192  0.00  0.00    +0.000 Cl
ENDROOT
BRANCH   4   8
ATOM      8  C   UNL     1      48.558   3.329  17.711  0.00  0.00    +0.000 C 
ATOM      9  N   UNL     1      47.853   3.457  18.868  0.00  0.00    +0.000 N 
ATOM     10  O   UNL     1      49.482   2.528  17.641  0.00  0.00    +0.000 OA
ATOM     11  H   UNL     1      47.022   4.004  19.002  0.00  0.00    +0.000 HD
ATOM     12  H   UNL     1      48.125   2.831  19.619  0.00  0.00    +0.000 HD
ENDBRANCH   4   8
BRANCH   1  13
ATOM     13  N   UNL     1      47.241   6.489  13.150  0.00  0.00    +0.000 N 
ATOM     14  C   UNL     1      48.336   6.972  12.307  0.00  0.00    +0.000 C 
BRANCH  13  16
ATOM     15  C   UNL     1      45.967   8.508  12.491  0.00  0.00    +0.000 C 
ATOM     16  C   UNL     1      45.880   7.020  12.895  0.00  0.00    +0.000 C 
BRANCH  16  17
ATOM     17  C   UNL     1      45.164   6.158  11.838  0.00  0.00    +0.000 A 
ATOM     18  C   UNL     1      43.844   5.722  12.056  0.00  0.00    +0.000 A 
ATOM     19  C   UNL     1      43.205   4.861  11.162  0.00  0.00    +0.000 A 
ATOM     20  C   UNL     1      43.857   4.451  10.006  0.00  0.00    +0.000 A 
ATOM     21  C   UNL     1      45.134   4.930   9.728  0.00  0.00    +0.000 A 
ATOM     22  C   UNL     1      45.777   5.785  10.629  0.00  0.00    +0.000 A 
ENDBRANCH  16  17
ENDBRANCH  13  16
ENDBRANCH   1  13
TORSDOF 4
ENDMDL
MODEL 9
REMARK VINA RESULT:    -5.639      4.951      7.739
REMARK INTER + INTRA:          -7.287
REMARK INTER:                  -6.808
REMARK INTRA:                  -0.479
REMARK UNBOUND:                -0.329
REMARK  Name = 
REMARK  6 active torsions:
REMARK  status: ('A' for Active; 'I' for Inactive)
REMARK    1  A    between atoms: C_1  and  C_2
REMARK    2  A    between atoms: C_2  and  C_3
REMARK    3  A    between atoms: C_2  and  N_9
REMARK    4  A    between atoms: N_9  and  C_10
REMARK    5  A    between atoms: N_9  and  C_11
REMARK    6  A    between atoms: C_14  and  C_15
REMARK                            x       y       z     vdW  Elec       q    Type
REMARK                         _______ _______ _______ _____ _____    ______ ____
ROOT
ATOM      1  C   UNL     1      47.967   5.747  14.833  0.00  0.00    +0.000 A 
ATOM      2  N   UNL     1      47.631   4.464  15.150  0.00  0.00    +0.000 NA
ATOM      3  C   UNL     1      47.909   3.980  16.399  0.00  0.00    +0.000 A 
ATOM      4  C   UNL     1      48.517   4.709  17.404  0.00  0.00    +0.000 A 
ATOM      5  C   UNL     1      48.896   6.006  17.082  0.00  0.00    +0.000 A 
ATOM      6  C   UNL     1      48.653   6.519  15.801  0.00  0.00    +0.000 A 
ATOM      7 CL   UNL     1      49.368   8.075  15.525  0.00  0.00    +0.000 Cl
ENDROOT
BRANCH   4   8
ATOM      8  C   UNL     1      48.797   4.215  18.780  0.00  0.00    +0.000 C 
ATOM      9  N   UNL     1      48.241   3.039  19.184  0.00  0.00    +0.000 N 
ATOM     10  O   UNL     1      49.516   4.846  19.543  0.00  0.00    +0.000 OA
ATOM     11  H   UNL     1      47.723   2.398  18.610  0.00  0.00    +0.000 HD
ATOM     12  H   UNL     1      48.497   2.730  20.116  0.00  0.00    +0.000 HD
ENDBRANCH   4   8
BRANCH   1  13
ATOM     13  N   UNL     1      47.609   6.199  13.568  0.00  0.00    +0.000 N 
ATOM     14  C   UNL     1      48.630   6.550  12.580  0.00  0.00    +0.000 C 
BRANCH  13  16
ATOM     15  C   UNL     1      46.065   7.977  12.800  0.00  0.00    +0.000 C 
ATOM     16  C   UNL     1      46.193   6.504  13.244  0.00  0.00    +0.000 C 
BRANCH  16  17
ATOM     17  C   UNL     1      45.667   5.515  12.187  0.00  0.00    +0.000 A 
ATOM     18  C   UNL     1      45.237   4.231  12.570  0.00  0.00    +0.000 A 
ATOM     19  C   UNL     1      44.848   3.281  11.625  0.00  0.00    +0.000 A 
ATOM     20  C   UNL     1      44.836   3.608  10.275  0.00  0.00    +0.000 A 
ATOM     21  C   UNL     1      45.181   4.896   9.875  0.00  0.00    +0.000 A 
ATOM     22  C   UNL     1      45.581   5.845  10.823  0.00  0.00    +0.000 A 
ENDBRANCH  16  17
ENDBRANCH  13  16
ENDBRANCH   1  13
TORSDOF 4
ENDMDL
