MODEL 1
REMARK VINA RESULT:    -7.606      0.000      0.000
REMARK INTER + INTRA:         -10.288
REMARK INTER:                  -9.606
REMARK INTRA:                  -0.682
REMARK UNBOUND:                -0.682
REMARK  Name = 
REMARK  5 active torsions:
REMARK  status: ('A' for Active; 'I' for Inactive)
REMARK    1  A    between atoms: N_1  and  C_2
REMARK    2  A    between atoms: C_2  and  C_3
REMARK    3  A    between atoms: C_3  and  C_4
REMARK    4  A    between atoms: C_7  and  C_8
REMARK    5  A    between atoms: C_8  and  N_9
REMARK                            x       y       z     vdW  Elec       q    Type
REMARK                         _______ _______ _______ _____ _____    ______ ____
ROOT
ATOM      1  C   UNL     1      46.125   2.445   7.817  0.00  0.00    +0.000 A 
ATOM      2  C   UNL     1      46.267   3.838   7.774  0.00  0.00    +0.000 A 
ATOM      3  C   UNL     1      45.621   4.648   8.713  0.00  0.00    +0.000 A 
ATOM      4  C   UNL     1      44.804   4.085   9.704  0.00  0.00    +0.000 A 
ATOM      5  C   UNL     1      44.624   2.700   9.698  0.00  0.00    +0.000 A 
ATOM      6  F   UNL     1      43.788   2.129  10.577  0.00  0.00    +0.000 F 
ATOM      7  C   UNL     1      45.275   1.884   8.775  0.00  0.00    +0.000 A 
ENDROOT
BRANCH   1   8
ATOM      8  C   UNL     1      46.873   1.565   6.847  0.00  0.00    +0.000 C 
BRANCH   8   9
ATOM      9  C   UNL     1      48.231   2.155   6.455  0.00  0.00    +0.000 C 
BRANCH   9  10
ATOM     10  N   UNL     1      48.266   2.482   5.030  0.00  0.00    +0.000 NA
ATOM     11  H   UNL     1      48.479   3.472   4.917  0.00  0.00    +0.000 HD
ATOM     12  H   UNL     1      47.341   2.344   4.622  0.00  0.00    +0.000 HD
ENDBRANCH   9  10
ENDBRANCH   8   9
ENDBRANCH   1   8
BRANCH   4  13
ATOM     13  C   UNL     1      44.141   4.949  10.739  0.00  0.00    +0.000 C 
BRANCH  13  14
ATOM     14  N   UNL     1      45.097   5.690  11.565  0.00  0.00    +0.000 N 
ATOM     15  C   UNL     1      45.159   7.063  11.634  0.00  0.00    +0.000 A 
ATOM     16  C   UNL     1      45.986   7.403  12.679  0.00  0.00    +0.000 A 
ATOM     17  C   UNL     1      46.458   6.200  13.270  0.00  0.00    +0.000 A 
ATOM     18  C   UNL     1      47.279   5.910  14.368  0.00  0.00    +0.000 A 
ATOM     19  N   UNL     1      47.556   4.629  14.707  0.00  0.00    +0.000 NA
ATOM     20  C   UNL     1      47.033   3.634  13.959  0.00  0.00    +0.000 A 
ATOM     21  C   UNL     1      46.212   3.814  12.858  0.00  0.00    +0.000 A 
ATOM     22  C   UNL     1      45.915   5.144  12.536  0.00  0.00    +0.000 A 
ENDBRANCH  13  14
ENDBRANCH   4  13
TORSDOF 5
ENDMDL
MODEL 2
REMARK VINA RESULT:    -7.555      1.212      2.143
REMARK INTER + INTRA:         -10.224
REMARK INTER:                  -9.556
REMARK INTRA:                  -0.668
REMARK UNBOUND:                -0.682
REMARK  Name = 
REMARK  5 active torsions:
REMARK  status: ('A' for Active; 'I' for Inactive)
REMARK    1  A    between atoms: N_1  and  C_2
REMARK    2  A    between atoms: C_2  and  C_3
REMARK    3  A    between atoms: C_3  and  C_4
REMARK    4  A    between atoms: C_7  and  C_8
REMARK    5  A    between atoms: C_8  and  N_9
REMARK                            x       y       z     vdW  Elec       q    Type
REMARK                         _______ _______ _______ _____ _____    ______ ____
ROOT
ATOM      1  C   UNL     1      45.826   3.342   7.862  0.00  0.00    +0.000 A 
ATOM      2  C   UNL     1      46.021   4.671   8.262  0.00  0.00    +0.000 A 
ATOM      3  C   UNL     1      45.504   5.131   9.477  0.00  0.00    +0.000 A 
ATOM      4  C   UNL     1      44.766   4.278  10.310  0.00  0.00    +0.000 A 
ATOM      5  C   UNL     1      44.529   2.974   9.871  0.00  0.00    +0.000 A 
ATOM      6  F   UNL     1      43.761   2.150  10.599  0.00  0.00    +0.000 F 
ATOM      7  C   UNL     1      45.052   2.502   8.669  0.00  0.00    +0.000 A 
ENDROOT
BRANCH   1   8
ATOM      8  C   UNL     1      46.439   2.826   6.583  0.00  0.00    +0.000 C 
BRANCH   8   9
ATOM      9  C   UNL     1      47.547   1.801   6.842  0.00  0.00    +0.000 C 
BRANCH   9  10
ATOM     10  N   UNL     1      48.526   1.806   5.756  0.00  0.00    +0.000 NA
ATOM     11  H   UNL     1      49.457   1.651   6.142  0.00  0.00    +0.000 HD
ATOM     12  H   UNL     1      48.552   2.728   5.320  0.00  0.00    +0.000 HD
ENDBRANCH   9  10
ENDBRANCH   8   9
ENDBRANCH   1   8
BRANCH   4  13
ATOM     13  C   UNL     1      44.245   4.757  11.635  0.00  0.00    +0.000 C 
BRANCH  13  14
ATOM     14  N   UNL     1      45.306   5.009  12.612  0.00  0.00    +0.000 N 
ATOM     15  C   UNL     1      46.053   4.023  13.215  0.00  0.00    +0.000 A 
ATOM     16  C   UNL     1      47.106   4.622  13.867  0.00  0.00    +0.000 A 
ATOM     17  C   UNL     1      47.002   6.024  13.666  0.00  0.00    +0.000 A 
ATOM     18  C   UNL     1      47.786   7.123  14.042  0.00  0.00    +0.000 A 
ATOM     19  N   UNL     1      47.430   8.381  13.690  0.00  0.00    +0.000 NA
ATOM     20  C   UNL     1      46.298   8.558  12.978  0.00  0.00    +0.000 A 
ATOM     21  C   UNL     1      45.456   7.541  12.557  0.00  0.00    +0.000 A 
ATOM     22  C   UNL     1      45.852   6.244  12.908  0.00  0.00    +0.000 A 
ENDBRANCH  13  14
ENDBRANCH   4  13
TORSDOF 5
ENDMDL
MODEL 3
REMARK VINA RESULT:    -6.607      1.738      6.474
REMARK INTER + INTRA:          -9.028
REMARK INTER:                  -8.391
REMARK INTRA:                  -0.637
REMARK UNBOUND:                -0.682
REMARK  Name = 
REMARK  5 active torsions:
REMARK  status: ('A' for Active; 'I' for Inactive)
REMARK    1  A    between atoms: N_1  and  C_2
REMARK    2  A    between atoms: C_2  and  C_3
REMARK    3  A    between atoms: C_3  and  C_4
REMARK    4  A    between atoms: C_7  and  C_8
REMARK    5  A    between atoms: C_8  and  N_9
REMARK                            x       y       z     vdW  Elec       q    Type
REMARK                         _______ _______ _______ _____ _____    ______ ____
ROOT
ATOM      1  C   UNL     1      46.274   4.679  13.726  0.00  0.00    +0.000 A 
ATOM      2  C   UNL     1      46.378   3.349  13.300  0.00  0.00    +0.000 A 
ATOM      3  C   UNL     1      45.740   2.924  12.130  0.00  0.00    +0.000 A 
ATOM      4  C   UNL     1      44.969   3.817  11.371  0.00  0.00    +0.000 A 
ATOM      5  C   UNL     1      44.824   5.124  11.840  0.00  0.00    +0.000 A 
ATOM      6  F   UNL     1      44.031   5.986  11.189  0.00  0.00    +0.000 F 
ATOM      7  C   UNL     1      45.468   5.559  12.997  0.00  0.00    +0.000 A 
ENDROOT
BRANCH   1   8
ATOM      8  C   UNL     1      47.015   5.154  14.951  0.00  0.00    +0.000 C 
BRANCH   8   9
ATOM      9  C   UNL     1      47.168   4.051  16.002  0.00  0.00    +0.000 C 
BRANCH   9  10
ATOM     10  N   UNL     1      46.861   4.558  17.339  0.00  0.00    +0.000 NA
ATOM     11  H   UNL     1      46.424   3.818  17.886  0.00  0.00    +0.000 HD
ATOM     12  H   UNL     1      46.171   5.306  17.273  0.00  0.00    +0.000 HD
ENDBRANCH   9  10
ENDBRANCH   8   9
ENDBRANCH   1   8
BRANCH   4  13
ATOM     13  C   UNL     1      44.315   3.375  10.092  0.00  0.00    +0.000 C 
BRANCH  13  14
ATOM     14  N   UNL     1      45.188   3.517   8.924  0.00  0.00    +0.000 N 
ATOM     15  C   UNL     1      45.613   4.724   8.418  0.00  0.00    +0.000 A 
ATOM     16  C   UNL     1      46.603   4.477   7.495  0.00  0.00    +0.000 A 
ATOM     17  C   UNL     1      46.790   3.071   7.424  0.00  0.00    +0.000 A 
ATOM     18  C   UNL     1      47.664   2.238   6.711  0.00  0.00    +0.000 A 
ATOM     19  N   UNL     1      47.613   0.894   6.856  0.00  0.00    +0.000 NA
ATOM     20  C   UNL     1      46.695   0.367   7.694  0.00  0.00    +0.000 A 
ATOM     21  C   UNL     1      45.790   1.100   8.443  0.00  0.00    +0.000 A 
ATOM     22  C   UNL     1      45.872   2.491   8.301  0.00  0.00    +0.000 A 
ENDBRANCH  13  14
ENDBRANCH   4  13
TORSDOF 5
ENDMDL
MODEL 4
REMARK VINA RESULT:    -6.145      1.830      2.346
REMARK INTER + INTRA:          -8.444
REMARK INTER:                  -7.922
REMARK INTRA:                  -0.521
REMARK UNBOUND:                -0.682
REMARK  Name = 
REMARK  5 active torsions:
REMARK  status: ('A' for Active; 'I' for Inactive)
REMARK    1  A    between atoms: N_1  and  C_2
REMARK    2  A    between atoms: C_2  and  C_3
REMARK    3  A    between atoms: C_3  and  C_4
REMARK    4  A    between atoms: C_7  and  C_8
REMARK    5  A    between atoms: C_8  and  N_9
REMARK                            x       y       z     vdW  Elec       q    Type
REMARK                         _______ _______ _______ _____ _____    ______ ____
ROOT
ATOM      1  C   UNL     1      45.076   2.604   9.245  0.00  0.00    +0.000 A 
ATOM      2  C   UNL     1      44.448   2.571  10.497  0.00  0.00    +0.000 A 
ATOM      3  C   UNL     1      44.348   3.730  11.273  0.00  0.00    +0.000 A 
ATOM      4  C   UNL     1      44.889   4.943  10.822  0.00  0.00    +0.000 A 
ATOM      5  C   UNL     1      45.565   4.947   9.600  0.00  0.00    +0.000 A 
ATOM      6  F   UNL     1      46.166   6.065   9.171  0.00  0.00    +0.000 F 
ATOM      7  C   UNL     1      45.657   3.801   8.814  0.00  0.00    +0.000 A 
ENDROOT
BRANCH   1   8
ATOM      8  C   UNL     1      45.127   1.371   8.377  0.00  0.00    +0.000 C 
BRANCH   8   9
ATOM      9  C   UNL     1      46.522   1.128   7.794  0.00  0.00    +0.000 C 
BRANCH   9  10
ATOM     10  N   UNL     1      46.826  -0.301   7.747  0.00  0.00    +0.000 NA
ATOM     11  H   UNL     1      47.636  -0.453   7.147  0.00  0.00    +0.000 HD
ATOM     12  H   UNL     1      46.053  -0.804   7.310  0.00  0.00    +0.000 HD
ENDBRANCH   9  10
ENDBRANCH   8   9
ENDBRANCH   1   8
BRANCH   4  13
ATOM     13  C   UNL     1      44.747   6.199  11.635  0.00  0.00    +0.000 C 
BRANCH  13  14
ATOM     14  N   UNL     1      46.007   6.634  12.241  0.00  0.00    +0.000 N 
ATOM     15  C   UNL     1      46.614   7.843  11.983  0.00  0.00    +0.000 A 
ATOM     16  C   UNL     1      47.624   8.020  12.899  0.00  0.00    +0.000 A 
ATOM     17  C   UNL     1      47.647   6.880  13.747  0.00  0.00    +0.000 A 
ATOM     18  C   UNL     1      48.409   6.511  14.864  0.00  0.00    +0.000 A 
ATOM     19  N   UNL     1      48.196   5.330  15.490  0.00  0.00    +0.000 NA
ATOM     20  C   UNL     1      47.240   4.507  15.010  0.00  0.00    +0.000 A 
ATOM     21  C   UNL     1      46.434   4.777  13.916  0.00  0.00    +0.000 A 
ATOM     22  C   UNL     1      46.651   6.014  13.295  0.00  0.00    +0.000 A 
ENDBRANCH  13  14
ENDBRANCH   4  13
TORSDOF 5
ENDMDL
MODEL 5
REMARK VINA RESULT:    -5.896      2.618      5.978
REMARK INTER + INTRA:          -8.129
REMARK INTER:                  -7.553
REMARK INTRA:                  -0.577
REMARK UNBOUND:                -0.682
REMARK  Name = 
REMARK  5 active torsions:
REMARK  status: ('A' for Active; 'I' for Inactive)
REMARK    1  A    between atoms: N_1  and  C_2
REMARK    2  A    between atoms: C_2  and  C_3
REMARK    3  A    between atoms: C_3  and  C_4
REMARK    4  A    between atoms: C_7  and  C_8
REMARK    5  A    between atoms: C_8  and  N_9
REMARK                            x       y       z     vdW  Elec       q    Type
REMARK                         _______ _______ _______ _____ _____    ______ ____
ROOT
ATOM      1  C   UNL     1      48.450   7.213  13.192  0.00  0.00    +0.000 A 
ATOM      2  C   UNL     1      47.730   7.793  12.139  0.00  0.00    +0.000 A 
ATOM      3  C   UNL     1      46.425   7.377  11.855  0.00  0.00    +0.000 A 
ATOM      4  C   UNL     1      45.818   6.362  12.607  0.00  0.00    +0.000 A 
ATOM      5  C   UNL     1      46.569   5.751  13.615  0.00  0.00    +0.000 A 
ATOM      6  F   UNL     1      46.055   4.722  14.303  0.00  0.00    +0.000 F 
ATOM      7  C   UNL     1      47.864   6.168  13.913  0.00  0.00    +0.000 A 
ENDROOT
BRANCH   1   8
ATOM      8  C   UNL     1      49.833   7.705  13.541  0.00  0.00    +0.000 C 
BRANCH   8   9
ATOM      9  C   UNL     1      50.495   8.451  12.379  0.00  0.00    +0.000 C 
BRANCH   9  10
ATOM     10  N   UNL     1      51.388   7.566  11.633  0.00  0.00    +0.000 NA
ATOM     11  H   UNL     1      51.685   6.800  12.237  0.00  0.00    +0.000 HD
ATOM     12  H   UNL     1      52.238   8.070  11.379  0.00  0.00    +0.000 HD
ENDBRANCH   9  10
ENDBRANCH   8   9
ENDBRANCH   1   8
BRANCH   4  13
ATOM     13  C   UNL     1      44.402   5.941  12.332  0.00  0.00    +0.000 C 
BRANCH  13  14
ATOM     14  N   UNL     1      44.301   4.578  11.804  0.00  0.00    +0.000 N 
ATOM     15  C   UNL     1      43.613   3.559  12.421  0.00  0.00    +0.000 A 
ATOM     16  C   UNL     1      43.518   2.510  11.536  0.00  0.00    +0.000 A 
ATOM     17  C   UNL     1      44.176   2.891  10.337  0.00  0.00    +0.000 A 
ATOM     18  C   UNL     1      44.371   2.275   9.093  0.00  0.00    +0.000 A 
ATOM     19  N   UNL     1      45.053   2.903   8.108  0.00  0.00    +0.000 NA
ATOM     20  C   UNL     1      45.553   4.133   8.349  0.00  0.00    +0.000 A 
ATOM     21  C   UNL     1      45.415   4.828   9.539  0.00  0.00    +0.000 A 
ATOM     22  C   UNL     1      44.686   4.174  10.540  0.00  0.00    +0.000 A 
ENDBRANCH  13  14
ENDBRANCH   4  13
TORSDOF 5
ENDMDL
MODEL 6
REMARK VINA RESULT:    -5.320      3.769      7.543
REMARK INTER + INTRA:          -7.402
REMARK INTER:                  -6.779
REMARK INTRA:                  -0.623
REMARK UNBOUND:                -0.682
REMARK  Name = 
REMARK  5 active torsions:
REMARK  status: ('A' for Active; 'I' for Inactive)
REMARK    1  A    between atoms: N_1  and  C_2
REMARK    2  A    between atoms: C_2  and  C_3
REMARK    3  A    between atoms: C_3  and  C_4
REMARK    4  A    between atoms: C_7  and  C_8
REMARK    5  A    between atoms: C_8  and  N_9
REMARK                            x       y       z     vdW  Elec       q    Type
REMARK                         _______ _______ _______ _____ _____    ______ ____
ROOT
ATOM      1  C   UNL     1      48.294   5.645  17.499  0.00  0.00    +0.000 A 
ATOM      2  C   UNL     1      48.693   6.727  16.704  0.00  0.00    +0.000 A 
ATOM      3  C   UNL     1      48.496   6.703  15.320  0.00  0.00    +0.000 A 
ATOM      4  C   UNL     1      47.914   5.589  14.698  0.00  0.00    +0.000 A 
ATOM      5  C   UNL     1      47.577   4.493  15.495  0.00  0.00    +0.000 A 
ATOM      6  F   UNL     1      47.093   3.377  14.932  0.00  0.00    +0.000 F 
ATOM      7  C   UNL     1      47.756   4.514  16.877  0.00  0.00    +0.000 A 
ENDROOT
BRANCH   1   8
ATOM      8  C   UNL     1      48.444   5.696  19.000  0.00  0.00    +0.000 C 
BRANCH   8   9
ATOM      9  C   UNL     1      49.245   4.510  19.544  0.00  0.00    +0.000 C 
BRANCH   9  10
ATOM     10  N   UNL     1      48.389   3.614  20.320  0.00  0.00    +0.000 NA
ATOM     11  H   UNL     1      48.409   3.895  21.300  0.00  0.00    +0.000 HD
ATOM     12  H   UNL     1      48.766   2.667  20.290  0.00  0.00    +0.000 HD
ENDBRANCH   9  10
ENDBRANCH   8   9
ENDBRANCH   1   8
BRANCH   4  13
ATOM     13  C   UNL     1      47.664   5.576  13.217  0.00  0.00    +0.000 C 
BRANCH  13  14
ATOM     14  N   UNL     1      46.302   5.982  12.861  0.00  0.00    +0.000 N 
ATOM     15  C   UNL     1      45.903   7.289  12.696  0.00  0.00    +0.000 A 
ATOM     16  C   UNL     1      44.650   7.285  12.127  0.00  0.00    +0.000 A 
ATOM     17  C   UNL     1      44.260   5.932  11.942  0.00  0.00    +0.000 A 
ATOM     18  C   UNL     1      43.136   5.309  11.384  0.00  0.00    +0.000 A 
ATOM     19  N   UNL     1      43.042   3.960  11.338  0.00  0.00    +0.000 NA
ATOM     20  C   UNL     1      44.050   3.223  11.850  0.00  0.00    +0.000 A 
ATOM     21  C   UNL     1      45.202   3.739  12.421  0.00  0.00    +0.000 A 
ATOM     22  C   UNL     1      45.294   5.137  12.439  0.00  0.00    +0.000 A 
ENDBRANCH  13  14
ENDBRANCH   4  13
TORSDOF 5
ENDMDL
MODEL 7
REMARK VINA RESULT:    -5.212      2.878      4.255
REMARK INTER + INTRA:          -7.265
REMARK INTER:                  -6.649
REMARK INTRA:                  -0.617
REMARK UNBOUND:                -0.682
REMARK  Name = 
REMARK  5 active torsions:
REMARK  status: ('A' for Active; 'I' for Inactive)
REMARK    1  A    between atoms: N_1  and  C_2
REMARK    2  A    between atoms: C_2  and  C_3
REMARK    3  A    between atoms: C_3  and  C_4
REMARK    4  A    between atoms: C_7  and  C_8
REMARK    5  A    between atoms: C_8  and  N_9
REMARK                            x       y       z     vdW  Elec       q    Type
REMARK                         _______ _______ _______ _____ _____    ______ ____
ROOT
ATOM      1  C   UNL     1      44.780   3.836  11.078  0.00  0.00    +0.000 A 
ATOM      2  C   UNL     1      45.512   3.627  12.254  0.00  0.00    +0.000 A 
ATOM      3  C   UNL     1      46.050   4.709  12.959  0.00  0.00    +0.000 A 
ATOM      4  C   UNL     1      45.882   6.021  12.494  0.00  0.00    +0.000 A 
ATOM      5  C   UNL     1      45.203   6.210  11.289  0.00  0.00    +0.000 A 
ATOM      6  F   UNL     1      45.090   7.439  10.767  0.00  0.00    +0.000 F 
ATOM      7  C   UNL     1      44.652   5.139  10.587  0.00  0.00    +0.000 A 
ENDROOT
BRANCH   1   8
ATOM      8  C   UNL     1      44.144   2.676  10.352  0.00  0.00    +0.000 C 
BRANCH   8   9
ATOM      9  C   UNL     1      44.681   2.517   8.927  0.00  0.00    +0.000 C 
BRANCH   9  10
ATOM     10  N   UNL     1      45.443   1.276   8.792  0.00  0.00    +0.000 NA
ATOM     11  H   UNL     1      44.873   0.496   9.117  0.00  0.00    +0.000 HD
ATOM     12  H   UNL     1      46.258   1.305   9.404  0.00  0.00    +0.000 HD
ENDBRANCH   9  10
ENDBRANCH   8   9
ENDBRANCH   1   8
BRANCH   4  13
ATOM     13  C   UNL     1      46.423   7.189  13.270  0.00  0.00    +0.000 C 
BRANCH  13  14
ATOM     14  N   UNL     1      47.851   7.419  13.038  0.00  0.00    +0.000 N 
ATOM     15  C   UNL     1      48.369   7.972  11.889  0.00  0.00    +0.000 A 
ATOM     16  C   UNL     1      49.692   8.269  12.116  0.00  0.00    +0.000 A 
ATOM     17  C   UNL     1      50.004   7.880  13.446  0.00  0.00    +0.000 A 
ATOM     18  C   UNL     1      51.154   7.966  14.242  0.00  0.00    +0.000 A 
ATOM     19  N   UNL     1      51.152   7.504  15.514  0.00  0.00    +0.000 NA
ATOM     20  C   UNL     1      50.022   6.947  15.999  0.00  0.00    +0.000 A 
ATOM     21  C   UNL     1      48.836   6.816  15.296  0.00  0.00    +0.000 A 
ATOM     22  C   UNL     1      48.847   7.321  13.990  0.00  0.00    +0.000 A 
ENDBRANCH  13  14
ENDBRANCH   4  13
TORSDOF 5
ENDMDL
MODEL 8
REMARK VINA RESULT:    -5.154      4.176      5.906
REMARK INTER + INTRA:          -7.192
REMARK INTER:                  -6.502
REMARK INTRA:                  -0.689
REMARK UNBOUND:                -0.682
REMARK  Name = 
REMARK  5 active torsions:
REMARK  status: ('A' for Active; 'I' for Inactive)
REMARK    1  A    between atoms: N_1  and  C_2
REMARK    2  A    between atoms: C_2  and  C_3
REMARK    3  A    between atoms: C_3  and  C_4
REMARK    4  A    between atoms: C_7  and  C_8
REMARK    5  A    between atoms: C_8  and  N_9
REMARK                            x       y       z     vdW  Elec       q    Type
REMARK                         _______ _______ _______ _____ _____    ______ ____
ROOT
ATOM      1  C   UNL     1      44.801   5.220  13.022  0.00  0.00    +0.000 A 
ATOM      2  C   UNL     1      45.845   4.491  13.607  0.00  0.00    +0.000 A 
ATOM      3  C   UNL     1      47.084   5.091  13.847  0.00  0.00    +0.000 A 
ATOM      4  C   UNL     1      47.314   6.428  13.490  0.00  0.00    +0.000 A 
ATOM      5  C   UNL     1      46.284   7.124  12.853  0.00  0.00    +0.000 A 
ATOM      6  F   UNL     1      46.488   8.377  12.423  0.00  0.00    +0.000 F 
ATOM      7  C   UNL     1      45.041   6.538  12.623  0.00  0.00    +0.000 A 
ENDROOT
BRANCH   1   8
ATOM      8  C   UNL     1      43.442   4.593  12.823  0.00  0.00    +0.000 C 
BRANCH   8   9
ATOM      9  C   UNL     1      43.462   3.486  11.767  0.00  0.00    +0.000 C 
BRANCH   9  10
ATOM     10  N   UNL     1      43.452   2.165  12.394  0.00  0.00    +0.000 NA
ATOM     11  H   UNL     1      42.924   1.519  11.808  0.00  0.00    +0.000 HD
ATOM     12  H   UNL     1      42.954   2.211  13.283  0.00  0.00    +0.000 HD
ENDBRANCH   9  10
ENDBRANCH   8   9
ENDBRANCH   1   8
BRANCH   4  13
ATOM     13  C   UNL     1      48.631   7.089  13.783  0.00  0.00    +0.000 C 
BRANCH  13  14
ATOM     14  N   UNL     1      48.655   7.768  15.080  0.00  0.00    +0.000 N 
ATOM     15  C   UNL     1      48.240   9.065  15.282  0.00  0.00    +0.000 A 
ATOM     16  C   UNL     1      48.165   9.284  16.638  0.00  0.00    +0.000 A 
ATOM     17  C   UNL     1      48.554   8.086  17.295  0.00  0.00    +0.000 A 
ATOM     18  C   UNL     1      48.637   7.693  18.637  0.00  0.00    +0.000 A 
ATOM     19  N   UNL     1      49.046   6.447  18.971  0.00  0.00    +0.000 NA
ATOM     20  C   UNL     1      49.384   5.591  17.984  0.00  0.00    +0.000 A 
ATOM     21  C   UNL     1      49.337   5.880  16.630  0.00  0.00    +0.000 A 
ATOM     22  C   UNL     1      48.888   7.165  16.301  0.00  0.00    +0.000 A 
ENDBRANCH  13  14
ENDBRANCH   4  13
TORSDOF 5
ENDMDL
MODEL 9
REMARK VINA RESULT:    -5.126      3.828      5.712
REMARK INTER + INTRA:          -7.156
REMARK INTER:                  -6.568
REMARK INTRA:                  -0.588
REMARK UNBOUND:                -0.682
REMARK  Name = 
REMARK  5 active torsions:
REMARK  status: ('A' for Active; 'I' for Inactive)
REMARK    1  A    between atoms: N_1  and  C_2
REMARK    2  A    between atoms: C_2  and  C_3
REMARK    3  A    between atoms: C_3  and  C_4
REMARK    4  A    between atoms: C_7  and  C_8
REMARK    5  A    between atoms: C_8  and  N_9
REMARK                            x       y       z     vdW  Elec       q    Type
REMARK                         _______ _______ _______ _____ _____    ______ ____
ROOT
ATOM      1  C   UNL     1      45.000   5.055  11.561  0.00  0.00    +0.000 A 
ATOM      2  C   UNL     1      46.100   5.106  12.428  0.00  0.00    +0.000 A 
ATOM      3  C   UNL     1      46.546   6.329  12.939  0.00  0.00    +0.000 A 
ATOM      4  C   UNL     1      45.914   7.529  12.581  0.00  0.00    +0.000 A 
ATOM      5  C   UNL     1      44.858   7.469  11.670  0.00  0.00    +0.000 A 
ATOM      6  F   UNL     1      44.279   8.598  11.239  0.00  0.00    +0.000 F 
ATOM      7  C   UNL     1      44.397   6.254  11.166  0.00  0.00    +0.000 A 
ENDROOT
BRANCH   1   8
ATOM      8  C   UNL     1      44.475   3.732  11.061  0.00  0.00    +0.000 C 
BRANCH   8   9
ATOM      9  C   UNL     1      43.471   3.101  12.030  0.00  0.00    +0.000 C 
BRANCH   9  10
ATOM     10  N   UNL     1      43.117   1.747  11.607  0.00  0.00    +0.000 NA
ATOM     11  H   UNL     1      43.821   1.094  11.949  0.00  0.00    +0.000 HD
ATOM     12  H   UNL     1      43.146   1.686  10.589  0.00  0.00    +0.000 HD
ENDBRANCH   9  10
ENDBRANCH   8   9
ENDBRANCH   1   8
BRANCH   4  13
ATOM     13  C   UNL     1      46.365   8.840  13.160  0.00  0.00    +0.000 C 
BRANCH  13  14
ATOM     14  N   UNL     1      47.089   9.673  12.197  0.00  0.00    +0.000 N 
ATOM     15  C   UNL     1      46.595  10.839  11.658  0.00  0.00    +0.000 A 
ATOM     16  C   UNL     1      47.623  11.477  11.003  0.00  0.00    +0.000 A 
ATOM     17  C   UNL     1      48.788  10.675  11.136  0.00  0.00    +0.000 A 
ATOM     18  C   UNL     1      50.121  10.817  10.727  0.00  0.00    +0.000 A 
ATOM     19  N   UNL     1      51.038   9.864  11.011  0.00  0.00    +0.000 NA
ATOM     20  C   UNL     1      50.642   8.765  11.689  0.00  0.00    +0.000 A 
ATOM     21  C   UNL     1      49.353   8.530  12.138  0.00  0.00    +0.000 A 
ATOM     22  C   UNL     1      48.421   9.537  11.857  0.00  0.00    +0.000 A 
ENDBRANCH  13  14
ENDBRANCH   4  13
TORSDOF 5
ENDMDL
