MODEL 1
REMARK VINA RESULT:    -7.369      0.000      0.000
REMARK INTER + INTRA:          -9.203
REMARK INTER:                  -8.662
REMARK INTRA:                  -0.542
REMARK UNBOUND:                -0.542
REMARK  Name = 
REMARK  5 active torsions:
REMARK  status: ('A' for Active; 'I' for Inactive)
REMARK    1  A    between atoms: C_1  and  C_2
REMARK    2  A    between atoms: C_9  and  C_10
REMARK    3  A    between atoms: C_10  and  N_11
REMARK    4  A    between atoms: N_11  and  C_12
REMARK    5  A    between atoms: C_21  and  C_22
REMARK                            x       y       z     vdW  Elec       q    Type
REMARK                         _______ _______ _______ _____ _____    ______ ____
ROOT
ATOM      1  C   UNL     1      47.544   7.846  13.780  0.00  0.00    +0.000 C 
ATOM      2  C   UNL     1      48.528   6.680  13.859  0.00  0.00    +0.000 C 
ATOM      3  C   UNL     1      48.116   5.485  12.976  0.00  0.00    +0.000 C 
ATOM      4  N   UNL     1      47.008   4.764  13.590  0.00  0.00    +0.000 N 
ATOM      5  C   UNL     1      45.806   4.627  12.955  0.00  0.00    +0.000 A 
ATOM      6  N   UNL     1      44.795   4.006  13.583  0.00  0.00    +0.000 NA
ATOM      7  C   UNL     1      43.641   3.846  12.909  0.00  0.00    +0.000 A 
ATOM      8  C   UNL     1      43.448   4.279  11.622  0.00  0.00    +0.000 A 
ATOM      9  C   UNL     1      44.532   4.892  11.035  0.00  0.00    +0.000 A 
ATOM     10  N   UNL     1      45.693   5.086  11.698  0.00  0.00    +0.000 NA
ATOM     11  C   UNL     1      47.203   4.370  14.981  0.00  0.00    +0.000 C 
ATOM     12  C   UNL     1      47.630   5.599  15.812  0.00  0.00    +0.000 C 
ATOM     13  C   UNL     1      48.044   5.181  17.218  0.00  0.00    +0.000 C 
ATOM     14  O   UNL     1      48.760   6.279  15.224  0.00  0.00    +0.000 OA
ENDROOT
BRANCH   9  15
ATOM     15  C   UNL     1      44.486   5.314   9.583  0.00  0.00    +0.000 C 
BRANCH  15  16
ATOM     16  N   UNL     1      44.137   4.203   8.711  0.00  0.00    +0.000 N 
ATOM     17  H   UNL     1      43.598   4.474   7.889  0.00  0.00    +0.000 HD
BRANCH  16  18
ATOM     18  C   UNL     1      45.190   3.406   8.255  0.00  0.00    +0.000 A 
ATOM     19  N   UNL     1      46.060   4.025   7.429  0.00  0.00    +0.000 NA
ATOM     20  C   UNL     1      47.070   3.294   6.896  0.00  0.00    +0.000 A 
ATOM     21  C   UNL     1      47.275   1.952   7.160  0.00  0.00    +0.000 A 
ATOM     22  C   UNL     1      46.384   1.316   8.011  0.00  0.00    +0.000 A 
ATOM     23  C   UNL     1      45.330   2.044   8.550  0.00  0.00    +0.000 A 
ATOM     24  F   UNL     1      44.474   1.401   9.357  0.00  0.00    +0.000 F 
ENDBRANCH  16  18
ENDBRANCH  15  16
ENDBRANCH   9  15
TORSDOF 3
ENDMDL
MODEL 2
REMARK VINA RESULT:    -7.250      2.129      3.750
REMARK INTER + INTRA:          -9.063
REMARK INTER:                  -8.681
REMARK INTRA:                  -0.382
REMARK UNBOUND:                -0.542
REMARK  Name = 
REMARK  5 active torsions:
REMARK  status: ('A' for Active; 'I' for Inactive)
REMARK    1  A    between atoms: C_1  and  C_2
REMARK    2  A    between atoms: C_9  and  C_10
REMARK    3  A    between atoms: C_10  and  N_11
REMARK    4  A    between atoms: N_11  and  C_12
REMARK    5  A    between atoms: C_21  and  C_22
REMARK                            x       y       z     vdW  Elec       q    Type
REMARK                         _______ _______ _______ _____ _____    ______ ____
ROOT
ATOM      1  C   UNL     1      49.009   2.103  16.605  0.00  0.00    +0.000 C 
ATOM      2  C   UNL     1      48.408   2.967  17.712  0.00  0.00    +0.000 C 
ATOM      3  C   UNL     1      47.297   3.908  17.204  0.00  0.00    +0.000 C 
ATOM      4  N   UNL     1      47.880   5.024  16.470  0.00  0.00    +0.000 N 
ATOM      5  C   UNL     1      47.574   5.251  15.157  0.00  0.00    +0.000 A 
ATOM      6  N   UNL     1      48.181   6.255  14.503  0.00  0.00    +0.000 NA
ATOM      7  C   UNL     1      47.820   6.481  13.226  0.00  0.00    +0.000 A 
ATOM      8  C   UNL     1      46.871   5.745  12.565  0.00  0.00    +0.000 A 
ATOM      9  C   UNL     1      46.279   4.742  13.301  0.00  0.00    +0.000 A 
ATOM     10  N   UNL     1      46.640   4.480  14.577  0.00  0.00    +0.000 NA
ATOM     11  C   UNL     1      48.936   5.754  17.160  0.00  0.00    +0.000 C 
ATOM     12  C   UNL     1      50.009   4.763  17.662  0.00  0.00    +0.000 C 
ATOM     13  C   UNL     1      51.012   5.467  18.566  0.00  0.00    +0.000 C 
ATOM     14  O   UNL     1      49.428   3.688  18.431  0.00  0.00    +0.000 OA
ENDROOT
BRANCH   9  15
ATOM     15  C   UNL     1      45.139   3.932  12.725  0.00  0.00    +0.000 C 
BRANCH  15  16
ATOM     16  N   UNL     1      44.556   4.578  11.559  0.00  0.00    +0.000 N 
ATOM     17  H   UNL     1      44.803   5.563  11.463  0.00  0.00    +0.000 HD
BRANCH  16  18
ATOM     18  C   UNL     1      44.801   3.982  10.320  0.00  0.00    +0.000 A 
ATOM     19  N   UNL     1      44.391   2.700  10.212  0.00  0.00    +0.000 NA
ATOM     20  C   UNL     1      44.655   2.037   9.058  0.00  0.00    +0.000 A 
ATOM     21  C   UNL     1      45.308   2.599   7.976  0.00  0.00    +0.000 A 
ATOM     22  C   UNL     1      45.725   3.917   8.085  0.00  0.00    +0.000 A 
ATOM     23  C   UNL     1      45.481   4.606   9.267  0.00  0.00    +0.000 A 
ATOM     24  F   UNL     1      45.911   5.873   9.353  0.00  0.00    +0.000 F 
ENDBRANCH  16  18
ENDBRANCH  15  16
ENDBRANCH   9  15
TORSDOF 3
ENDMDL
MODEL 3
REMARK VINA RESULT:    -7.164      1.648      2.091
REMARK INTER + INTRA:          -8.962
REMARK INTER:                  -8.860
REMARK INTRA:                  -0.102
REMARK UNBOUND:                -0.542
REMARK  Name = 
REMARK  5 active torsions:
REMARK  status: ('A' for Active; 'I' for Inactive)
REMARK    1  A    between atoms: C_1  and  C_2
REMARK    2  A    between atoms: C_9  and  C_10
REMARK    3  A    between atoms: C_10  and  N_11
REMARK    4  A    between atoms: N_11  and  C_12
REMARK    5  A    between atoms: C_21  and  C_22
REMARK                            x       y       z     vdW  Elec       q    Type
REMARK                         _______ _______ _______ _____ _____    ______ ____
ROOT
ATOM      1  C   UNL     1      45.670   9.050  13.138  0.00  0.00    +0.000 C 
ATOM      2  C   UNL     1      47.011   9.019  12.407  0.00  0.00    +0.000 C 
ATOM      3  C   UNL     1      47.200   7.749  11.552  0.00  0.00    +0.000 C 
ATOM      4  N   UNL     1      47.491   6.605  12.408  0.00  0.00    +0.000 N 
ATOM      5  C   UNL     1      46.677   5.507  12.431  0.00  0.00    +0.000 A 
ATOM      6  N   UNL     1      46.950   4.502  13.278  0.00  0.00    +0.000 NA
ATOM      7  C   UNL     1      46.156   3.416  13.239  0.00  0.00    +0.000 A 
ATOM      8  C   UNL     1      45.093   3.283  12.384  0.00  0.00    +0.000 A 
ATOM      9  C   UNL     1      44.882   4.346  11.533  0.00  0.00    +0.000 A 
ATOM     10  N   UNL     1      45.649   5.457  11.568  0.00  0.00    +0.000 NA
ATOM     11  C   UNL     1      48.580   6.786  13.359  0.00  0.00    +0.000 C 
ATOM     12  C   UNL     1      48.348   8.078  14.173  0.00  0.00    +0.000 C 
ATOM     13  C   UNL     1      49.569   8.406  15.024  0.00  0.00    +0.000 C 
ATOM     14  O   UNL     1      48.111   9.217  13.318  0.00  0.00    +0.000 OA
ENDROOT
BRANCH   9  15
ATOM     15  C   UNL     1      43.812   4.278  10.465  0.00  0.00    +0.000 C 
BRANCH  15  16
ATOM     16  N   UNL     1      44.336   4.634   9.155  0.00  0.00    +0.000 N 
ATOM     17  H   UNL     1      44.760   5.561   9.116  0.00  0.00    +0.000 HD
BRANCH  16  18
ATOM     18  C   UNL     1      45.253   3.750   8.582  0.00  0.00    +0.000 A 
ATOM     19  N   UNL     1      46.181   4.325   7.786  0.00  0.00    +0.000 NA
ATOM     20  C   UNL     1      47.064   3.519   7.145  0.00  0.00    +0.000 A 
ATOM     21  C   UNL     1      47.084   2.141   7.269  0.00  0.00    +0.000 A 
ATOM     22  C   UNL     1      46.134   1.552   8.089  0.00  0.00    +0.000 A 
ATOM     23  C   UNL     1      45.208   2.359   8.738  0.00  0.00    +0.000 A 
ATOM     24  F   UNL     1      44.290   1.762   9.512  0.00  0.00    +0.000 F 
ENDBRANCH  16  18
ENDBRANCH  15  16
ENDBRANCH   9  15
TORSDOF 3
ENDMDL
MODEL 4
REMARK VINA RESULT:    -6.778      3.428      6.511
REMARK INTER + INTRA:          -8.509
REMARK INTER:                  -8.332
REMARK INTRA:                  -0.177
REMARK UNBOUND:                -0.542
REMARK  Name = 
REMARK  5 active torsions:
REMARK  status: ('A' for Active; 'I' for Inactive)
REMARK    1  A    between atoms: C_1  and  C_2
REMARK    2  A    between atoms: C_9  and  C_10
REMARK    3  A    between atoms: C_10  and  N_11
REMARK    4  A    between atoms: N_11  and  C_12
REMARK    5  A    between atoms: C_21  and  C_22
REMARK                            x       y       z     vdW  Elec       q    Type
REMARK                         _______ _______ _______ _____ _____    ______ ____
ROOT
ATOM      1  C   UNL     1      46.998   4.374   7.732  0.00  0.00    +0.000 C 
ATOM      2  C   UNL     1      45.928   3.561   7.005  0.00  0.00    +0.000 C 
ATOM      3  C   UNL     1      44.548   3.638   7.688  0.00  0.00    +0.000 C 
ATOM      4  N   UNL     1      44.537   2.820   8.895  0.00  0.00    +0.000 N 
ATOM      5  C   UNL     1      44.291   3.366  10.123  0.00  0.00    +0.000 A 
ATOM      6  N   UNL     1      44.350   2.586  11.215  0.00  0.00    +0.000 NA
ATOM      7  C   UNL     1      44.055   3.145  12.403  0.00  0.00    +0.000 A 
ATOM      8  C   UNL     1      43.697   4.460  12.554  0.00  0.00    +0.000 A 
ATOM      9  C   UNL     1      43.642   5.197  11.391  0.00  0.00    +0.000 A 
ATOM     10  N   UNL     1      43.957   4.665  10.189  0.00  0.00    +0.000 NA
ATOM     11  C   UNL     1      44.985   1.443   8.730  0.00  0.00    +0.000 C 
ATOM     12  C   UNL     1      46.360   1.426   8.027  0.00  0.00    +0.000 C 
ATOM     13  C   UNL     1      46.756   0.003   7.653  0.00  0.00    +0.000 C 
ATOM     14  O   UNL     1      46.349   2.197   6.807  0.00  0.00    +0.000 OA
ENDROOT
BRANCH   9  15
ATOM     15  C   UNL     1      43.152   6.628  11.407  0.00  0.00    +0.000 C 
BRANCH  15  16
ATOM     16  N   UNL     1      44.164   7.548  10.908  0.00  0.00    +0.000 N 
ATOM     17  H   UNL     1      43.815   8.488  10.725  0.00  0.00    +0.000 HD
BRANCH  16  18
ATOM     18  C   UNL     1      45.319   7.692  11.680  0.00  0.00    +0.000 A 
ATOM     19  N   UNL     1      46.264   6.750  11.476  0.00  0.00    +0.000 NA
ATOM     20  C   UNL     1      47.386   6.791  12.238  0.00  0.00    +0.000 A 
ATOM     21  C   UNL     1      47.628   7.751  13.205  0.00  0.00    +0.000 A 
ATOM     22  C   UNL     1      46.659   8.720  13.412  0.00  0.00    +0.000 A 
ATOM     23  C   UNL     1      45.495   8.682  12.655  0.00  0.00    +0.000 A 
ATOM     24  F   UNL     1      44.566   9.622  12.887  0.00  0.00    +0.000 F 
ENDBRANCH  16  18
ENDBRANCH  15  16
ENDBRANCH   9  15
TORSDOF 3
ENDMDL
MODEL 5
REMARK VINA RESULT:    -6.598      2.277      3.226
REMARK INTER + INTRA:          -8.297
REMARK INTER:                  -7.866
REMARK INTRA:                  -0.431
REMARK UNBOUND:                -0.542
REMARK  Name = 
REMARK  5 active torsions:
REMARK  status: ('A' for Active; 'I' for Inactive)
REMARK    1  A    between atoms: C_1  and  C_2
REMARK    2  A    between atoms: C_9  and  C_10
REMARK    3  A    between atoms: C_10  and  N_11
REMARK    4  A    between atoms: N_11  and  C_12
REMARK    5  A    between atoms: C_21  and  C_22
REMARK                            x       y       z     vdW  Elec       q    Type
REMARK                         _______ _______ _______ _____ _____    ______ ____
ROOT
ATOM      1  C   UNL     1      47.871  10.263  12.925  0.00  0.00    +0.000 C 
ATOM      2  C   UNL     1      49.123   9.729  12.232  0.00  0.00    +0.000 C 
ATOM      3  C   UNL     1      48.918   8.331  11.614  0.00  0.00    +0.000 C 
ATOM      4  N   UNL     1      48.905   7.316  12.660  0.00  0.00    +0.000 N 
ATOM      5  C   UNL     1      47.818   6.514  12.862  0.00  0.00    +0.000 A 
ATOM      6  N   UNL     1      47.826   5.633  13.875  0.00  0.00    +0.000 NA
ATOM      7  C   UNL     1      46.758   4.825  14.014  0.00  0.00    +0.000 A 
ATOM      8  C   UNL     1      45.672   4.854  13.178  0.00  0.00    +0.000 A 
ATOM      9  C   UNL     1      45.738   5.771  12.152  0.00  0.00    +0.000 A 
ATOM     10  N   UNL     1      46.788   6.609  12.005  0.00  0.00    +0.000 NA
ATOM     11  C   UNL     1      50.034   7.342  13.582  0.00  0.00    +0.000 C 
ATOM     12  C   UNL     1      50.203   8.767  14.155  0.00  0.00    +0.000 C 
ATOM     13  C   UNL     1      51.496   8.877  14.954  0.00  0.00    +0.000 C 
ATOM     14  O   UNL     1      50.266   9.761  13.110  0.00  0.00    +0.000 OA
ENDROOT
BRANCH   9  15
ATOM     15  C   UNL     1      44.656   5.826  11.097  0.00  0.00    +0.000 C 
BRANCH  15  16
ATOM     16  N   UNL     1      45.197   5.624   9.761  0.00  0.00    +0.000 N 
ATOM     17  H   UNL     1      46.134   6.005   9.631  0.00  0.00    +0.000 HD
BRANCH  16  18
ATOM     18  C   UNL     1      45.230   4.311   9.287  0.00  0.00    +0.000 A 
ATOM     19  N   UNL     1      44.410   3.451   9.928  0.00  0.00    +0.000 NA
ATOM     20  C   UNL     1      44.437   2.145   9.564  0.00  0.00    +0.000 A 
ATOM     21  C   UNL     1      45.245   1.639   8.560  0.00  0.00    +0.000 A 
ATOM     22  C   UNL     1      46.084   2.523   7.899  0.00  0.00    +0.000 A 
ATOM     23  C   UNL     1      46.084   3.861   8.272  0.00  0.00    +0.000 A 
ATOM     24  F   UNL     1      46.918   4.691   7.628  0.00  0.00    +0.000 F 
ENDBRANCH  16  18
ENDBRANCH  15  16
ENDBRANCH   9  15
TORSDOF 3
ENDMDL
MODEL 6
REMARK VINA RESULT:    -6.349      2.371      4.108
REMARK INTER + INTRA:          -8.005
REMARK INTER:                  -7.388
REMARK INTRA:                  -0.617
REMARK UNBOUND:                -0.542
REMARK  Name = 
REMARK  5 active torsions:
REMARK  status: ('A' for Active; 'I' for Inactive)
REMARK    1  A    between atoms: C_1  and  C_2
REMARK    2  A    between atoms: C_9  and  C_10
REMARK    3  A    between atoms: C_10  and  N_11
REMARK    4  A    between atoms: N_11  and  C_12
REMARK    5  A    between atoms: C_21  and  C_22
REMARK                            x       y       z     vdW  Elec       q    Type
REMARK                         _______ _______ _______ _____ _____    ______ ____
ROOT
ATOM      1  C   UNL     1      47.132   9.253  12.261  0.00  0.00    +0.000 C 
ATOM      2  C   UNL     1      48.572   8.979  11.832  0.00  0.00    +0.000 C 
ATOM      3  C   UNL     1      48.988   7.506  12.026  0.00  0.00    +0.000 C 
ATOM      4  N   UNL     1      49.218   7.231  13.439  0.00  0.00    +0.000 N 
ATOM      5  C   UNL     1      48.492   6.286  14.108  0.00  0.00    +0.000 A 
ATOM      6  N   UNL     1      48.696   6.107  15.423  0.00  0.00    +0.000 NA
ATOM      7  C   UNL     1      47.999   5.135  16.040  0.00  0.00    +0.000 A 
ATOM      8  C   UNL     1      47.100   4.322  15.399  0.00  0.00    +0.000 A 
ATOM      9  C   UNL     1      46.953   4.551  14.048  0.00  0.00    +0.000 A 
ATOM     10  N   UNL     1      47.623   5.536  13.411  0.00  0.00    +0.000 NA
ATOM     11  C   UNL     1      50.123   8.146  14.123  0.00  0.00    +0.000 C 
ATOM     12  C   UNL     1      49.671   9.602  13.880  0.00  0.00    +0.000 C 
ATOM     13  C   UNL     1      50.712  10.584  14.403  0.00  0.00    +0.000 C 
ATOM     14  O   UNL     1      49.494   9.882  12.475  0.00  0.00    +0.000 OA
ENDROOT
BRANCH   9  15
ATOM     15  C   UNL     1      46.078   3.652  13.204  0.00  0.00    +0.000 C 
BRANCH  15  16
ATOM     16  N   UNL     1      45.092   4.413  12.451  0.00  0.00    +0.000 N 
ATOM     17  H   UNL     1      45.171   5.423  12.567  0.00  0.00    +0.000 HD
BRANCH  16  18
ATOM     18  C   UNL     1      45.027   4.171  11.077  0.00  0.00    +0.000 A 
ATOM     19  N   UNL     1      44.471   2.990  10.730  0.00  0.00    +0.000 NA
ATOM     20  C   UNL     1      44.433   2.661   9.415  0.00  0.00    +0.000 A 
ATOM     21  C   UNL     1      44.916   3.469   8.401  0.00  0.00    +0.000 A 
ATOM     22  C   UNL     1      45.483   4.683   8.757  0.00  0.00    +0.000 A 
ATOM     23  C   UNL     1      45.549   5.029  10.101  0.00  0.00    +0.000 A 
ATOM     24  F   UNL     1      46.118   6.201  10.419  0.00  0.00    +0.000 F 
ENDBRANCH  16  18
ENDBRANCH  15  16
ENDBRANCH   9  15
TORSDOF 3
ENDMDL
MODEL 7
REMARK VINA RESULT:    -6.284      3.226      5.127
REMARK INTER + INTRA:          -7.928
REMARK INTER:                  -7.462
REMARK INTRA:                  -0.466
REMARK UNBOUND:                -0.542
REMARK  Name = 
REMARK  5 active torsions:
REMARK  status: ('A' for Active; 'I' for Inactive)
REMARK    1  A    between atoms: C_1  and  C_2
REMARK    2  A    between atoms: C_9  and  C_10
REMARK    3  A    between atoms: C_10  and  N_11
REMARK    4  A    between atoms: N_11  and  C_12
REMARK    5  A    between atoms: C_21  and  C_22
REMARK                            x       y       z     vdW  Elec       q    Type
REMARK                         _______ _______ _______ _____ _____    ______ ____
ROOT
ATOM      1  C   UNL     1      48.727   2.603  16.683  0.00  0.00    +0.000 C 
ATOM      2  C   UNL     1      48.030   3.415  17.773  0.00  0.00    +0.000 C 
ATOM      3  C   UNL     1      47.476   4.760  17.258  0.00  0.00    +0.000 C 
ATOM      4  N   UNL     1      48.563   5.710  17.062  0.00  0.00    +0.000 N 
ATOM      5  C   UNL     1      48.821   6.255  15.836  0.00  0.00    +0.000 A 
ATOM      6  N   UNL     1      49.871   7.080  15.689  0.00  0.00    +0.000 NA
ATOM      7  C   UNL     1      50.066   7.637  14.479  0.00  0.00    +0.000 A 
ATOM      8  C   UNL     1      49.254   7.409  13.398  0.00  0.00    +0.000 A 
ATOM      9  C   UNL     1      48.189   6.565  13.626  0.00  0.00    +0.000 A 
ATOM     10  N   UNL     1      47.984   5.975  14.824  0.00  0.00    +0.000 NA
ATOM     11  C   UNL     1      49.459   5.891  18.198  0.00  0.00    +0.000 C 
ATOM     12  C   UNL     1      49.968   4.515  18.681  0.00  0.00    +0.000 C 
ATOM     13  C   UNL     1      50.733   4.653  19.992  0.00  0.00    +0.000 C 
ATOM     14  O   UNL     1      48.881   3.595  18.922  0.00  0.00    +0.000 OA
ENDROOT
BRANCH   9  15
ATOM     15  C   UNL     1      47.156   6.320  12.549  0.00  0.00    +0.000 C 
BRANCH  15  16
ATOM     16  N   UNL     1      45.817   6.190  13.107  0.00  0.00    +0.000 N 
ATOM     17  H   UNL     1      45.287   7.061  13.118  0.00  0.00    +0.000 HD
BRANCH  16  18
ATOM     18  C   UNL     1      44.988   5.223  12.535  0.00  0.00    +0.000 A 
ATOM     19  N   UNL     1      43.858   5.699  11.971  0.00  0.00    +0.000 NA
ATOM     20  C   UNL     1      42.975   4.809  11.454  0.00  0.00    +0.000 A 
ATOM     21  C   UNL     1      43.167   3.439  11.455  0.00  0.00    +0.000 A 
ATOM     22  C   UNL     1      44.330   2.950  12.030  0.00  0.00    +0.000 A 
ATOM     23  C   UNL     1      45.238   3.845  12.583  0.00  0.00    +0.000 A 
ATOM     24  F   UNL     1      46.346   3.344  13.149  0.00  0.00    +0.000 F 
ENDBRANCH  16  18
ENDBRANCH  15  16
ENDBRANCH   9  15
TORSDOF 3
ENDMDL
MODEL 8
REMARK VINA RESULT:    -5.811      3.012      5.104
REMARK INTER + INTRA:          -7.372
REMARK INTER:                  -7.038
REMARK INTRA:                  -0.334
REMARK UNBOUND:                -0.542
REMARK  Name = 
REMARK  5 active torsions:
REMARK  status: ('A' for Active; 'I' for Inactive)
REMARK    1  A    between atoms: C_1  and  C_2
REMARK    2  A    between atoms: C_9  and  C_10
REMARK    3  A    between atoms: C_10  and  N_11
REMARK    4  A    between atoms: N_11  and  C_12
REMARK    5  A    between atoms: C_21  and  C_22
REMARK                            x       y       z     vdW  Elec       q    Type
REMARK                         _______ _______ _______ _____ _____    ______ ____
ROOT
ATOM      1  C   UNL     1      48.629   9.337  15.630  0.00  0.00    +0.000 C 
ATOM      2  C   UNL     1      50.102   8.940  15.554  0.00  0.00    +0.000 C 
ATOM      3  C   UNL     1      50.307   7.423  15.367  0.00  0.00    +0.000 C 
ATOM      4  N   UNL     1      50.048   6.722  16.618  0.00  0.00    +0.000 N 
ATOM      5  C   UNL     1      49.070   5.773  16.714  0.00  0.00    +0.000 A 
ATOM      6  N   UNL     1      48.825   5.196  17.901  0.00  0.00    +0.000 NA
ATOM      7  C   UNL     1      47.888   4.230  17.949  0.00  0.00    +0.000 A 
ATOM      8  C   UNL     1      47.178   3.809  16.855  0.00  0.00    +0.000 A 
ATOM      9  C   UNL     1      47.491   4.434  15.668  0.00  0.00    +0.000 A 
ATOM     10  N   UNL     1      48.411   5.421  15.598  0.00  0.00    +0.000 NA
ATOM     11  C   UNL     1      50.760   7.227  17.786  0.00  0.00    +0.000 C 
ATOM     12  C   UNL     1      50.534   8.749  17.913  0.00  0.00    +0.000 C 
ATOM     13  C   UNL     1      51.431   9.338  18.995  0.00  0.00    +0.000 C 
ATOM     14  O   UNL     1      50.841   9.442  16.685  0.00  0.00    +0.000 OA
ENDROOT
BRANCH   9  15
ATOM     15  C   UNL     1      46.860   3.983  14.369  0.00  0.00    +0.000 C 
BRANCH  15  16
ATOM     16  N   UNL     1      45.811   4.895  13.936  0.00  0.00    +0.000 N 
ATOM     17  H   UNL     1      46.114   5.865  13.852  0.00  0.00    +0.000 HD
BRANCH  16  18
ATOM     18  C   UNL     1      45.153   4.576  12.746  0.00  0.00    +0.000 A 
ATOM     19  N   UNL     1      44.225   3.600  12.850  0.00  0.00    +0.000 NA
ATOM     20  C   UNL     1      43.592   3.194  11.721  0.00  0.00    +0.000 A 
ATOM     21  C   UNL     1      43.827   3.731  10.467  0.00  0.00    +0.000 A 
ATOM     22  C   UNL     1      44.776   4.736  10.362  0.00  0.00    +0.000 A 
ATOM     23  C   UNL     1      45.450   5.151  11.504  0.00  0.00    +0.000 A 
ATOM     24  F   UNL     1      46.375   6.113  11.371  0.00  0.00    +0.000 F 
ENDBRANCH  16  18
ENDBRANCH  15  16
ENDBRANCH   9  15
TORSDOF 3
ENDMDL
MODEL 9
REMARK VINA RESULT:    -5.740      2.644      3.857
REMARK INTER + INTRA:          -7.289
REMARK INTER:                  -6.827
REMARK INTRA:                  -0.462
REMARK UNBOUND:                -0.542
REMARK  Name = 
REMARK  5 active torsions:
REMARK  status: ('A' for Active; 'I' for Inactive)
REMARK    1  A    between atoms: C_1  and  C_2
REMARK    2  A    between atoms: C_9  and  C_10
REMARK    3  A    between atoms: C_10  and  N_11
REMARK    4  A    between atoms: N_11  and  C_12
REMARK    5  A    between atoms: C_21  and  C_22
REMARK                            x       y       z     vdW  Elec       q    Type
REMARK                         _______ _______ _______ _____ _____    ______ ____
ROOT
ATOM      1  C   UNL     1      49.558   7.044  12.010  0.00  0.00    +0.000 C 
ATOM      2  C   UNL     1      49.425   7.393  13.491  0.00  0.00    +0.000 C 
ATOM      3  C   UNL     1      47.959   7.545  13.944  0.00  0.00    +0.000 C 
ATOM      4  N   UNL     1      47.412   8.807  13.463  0.00  0.00    +0.000 N 
ATOM      5  C   UNL     1      46.326   8.843  12.633  0.00  0.00    +0.000 A 
ATOM      6  N   UNL     1      45.893  10.025  12.166  0.00  0.00    +0.000 NA
ATOM      7  C   UNL     1      44.792  10.028  11.391  0.00  0.00    +0.000 A 
ATOM      8  C   UNL     1      44.096   8.895  11.058  0.00  0.00    +0.000 A 
ATOM      9  C   UNL     1      44.588   7.721  11.584  0.00  0.00    +0.000 A 
ATOM     10  N   UNL     1      45.704   7.688  12.345  0.00  0.00    +0.000 NA
ATOM     11  C   UNL     1      48.199   9.996  13.767  0.00  0.00    +0.000 C 
ATOM     12  C   UNL     1      49.658   9.781  13.309  0.00  0.00    +0.000 C 
ATOM     13  C   UNL     1      50.549  10.916  13.800  0.00  0.00    +0.000 C 
ATOM     14  O   UNL     1      50.210   8.554  13.831  0.00  0.00    +0.000 OA
ENDROOT
BRANCH   9  15
ATOM     15  C   UNL     1      43.849   6.417  11.385  0.00  0.00    +0.000 C 
BRANCH  15  16
ATOM     16  N   UNL     1      44.735   5.270  11.517  0.00  0.00    +0.000 N 
ATOM     17  H   UNL     1      44.485   4.637  12.276  0.00  0.00    +0.000 HD
BRANCH  16  18
ATOM     18  C   UNL     1      44.916   4.480  10.379  0.00  0.00    +0.000 A 
ATOM     19  N   UNL     1      45.640   5.054   9.394  0.00  0.00    +0.000 NA
ATOM     20  C   UNL     1      45.801   4.370   8.234  0.00  0.00    +0.000 A 
ATOM     21  C   UNL     1      45.280   3.109   8.002  0.00  0.00    +0.000 A 
ATOM     22  C   UNL     1      44.540   2.519   9.014  0.00  0.00    +0.000 A 
ATOM     23  C   UNL     1      44.348   3.213  10.203  0.00  0.00    +0.000 A 
ATOM     24  F   UNL     1      43.613   2.626  11.159  0.00  0.00    +0.000 F 
ENDBRANCH  16  18
ENDBRANCH  15  16
ENDBRANCH   9  15
TORSDOF 3
ENDMDL
