MODEL 1
REMARK VINA RESULT:    -7.236      0.000      0.000
REMARK INTER + INTRA:         -11.355
REMARK INTER:                 -10.197
REMARK INTRA:                  -1.158
REMARK UNBOUND:                -1.158
REMARK  Name = 
REMARK  8 active torsions:
REMARK  status: ('A' for Active; 'I' for Inactive)
REMARK    1  A    between atoms: C_1  and  O_2
REMARK    2  A    between atoms: O_2  and  C_3
REMARK    3  A    between atoms: C_8  and  C_9
REMARK    4  A    between atoms: N_11  and  C_12
REMARK    5  A    between atoms: C_12  and  C_13
REMARK    6  A    between atoms: C_16  and  C_17
REMARK    7  A    between atoms: C_17  and  N_18
REMARK    8  A    between atoms: C_19  and  C_21
REMARK                            x       y       z     vdW  Elec       q    Type
REMARK                         _______ _______ _______ _____ _____    ______ ____
ROOT
ATOM      1  C   UNL     1      50.265   7.414  15.347  0.00  0.00    +0.000 A 
ATOM      2  C   UNL     1      50.565   8.224  14.242  0.00  0.00    +0.000 A 
ATOM      3  C   UNL     1      49.667   8.337  13.171  0.00  0.00    +0.000 A 
ATOM      4  C   UNL     1      48.441   7.656  13.193  0.00  0.00    +0.000 A 
ATOM      5  C   UNL     1      48.152   6.834  14.290  0.00  0.00    +0.000 A 
ATOM      6  C   UNL     1      49.048   6.724  15.360  0.00  0.00    +0.000 A 
ENDROOT
BRANCH   1   7
ATOM      7  C   UNL     1      51.222   7.300  16.508  0.00  0.00    +0.000 C 
BRANCH   7  10
ATOM      8  C   UNL     1      51.190   5.117  17.647  0.00  0.00    +0.000 C 
ATOM      9  O   UNL     1      50.336   5.498  18.441  0.00  0.00    +0.000 OA
ATOM     10  N   UNL     1      51.706   5.952  16.681  0.00  0.00    +0.000 N 
ATOM     11  H   UNL     1      52.422   5.595  16.059  0.00  0.00    +0.000 HD
BRANCH   8  17
ATOM     12  C   UNL     1      50.968   2.575  17.211  0.00  0.00    +0.000 A 
ATOM     13  C   UNL     1      51.505   1.291  17.400  0.00  0.00    +0.000 A 
ATOM     14  C   UNL     1      52.742   1.109  18.022  0.00  0.00    +0.000 A 
ATOM     15  C   UNL     1      53.470   2.210  18.452  0.00  0.00    +0.000 A 
ATOM     16  C   UNL     1      52.942   3.492  18.289  0.00  0.00    +0.000 A 
ATOM     17  C   UNL     1      51.682   3.694  17.689  0.00  0.00    +0.000 A 
BRANCH  12  19
ATOM     18  C   UNL     1      48.581   2.605  17.344  0.00  0.00    +0.000 C 
ATOM     19  O   UNL     1      49.768   2.795  16.580  0.00  0.00    +0.000 OA
ENDBRANCH  12  19
ENDBRANCH   8  17
ENDBRANCH   7  10
ENDBRANCH   1   7
BRANCH   4  20
ATOM     20  C   UNL     1      47.453   7.776  12.056  0.00  0.00    +0.000 C 
BRANCH  20  21
ATOM     21  N   UNL     1      46.772   6.531  11.814  0.00  0.00    +0.000 N 
ATOM     22  C   UNL     1      45.411   6.480  11.639  0.00  0.00    +0.000 C 
ATOM     23  O   UNL     1      44.711   7.490  11.654  0.00  0.00    +0.000 OA
ATOM     24  H   UNL     1      47.269   5.683  12.061  0.00  0.00    +0.000 HD
BRANCH  22  25
ATOM     25  C   UNL     1      44.839   5.155  11.362  0.00  0.00    +0.000 A 
ATOM     26  C   UNL     1      44.074   4.514  12.324  0.00  0.00    +0.000 A 
ATOM     27  S   UNL     1      43.441   3.014  11.807  0.00  0.00    +0.000 S 
ATOM     28  C   UNL     1      44.216   3.145  10.298  0.00  0.00    +0.000 A 
ATOM     29  N   UNL     1      44.106   2.161   9.367  0.00  0.00    +0.000 NA
ATOM     30  C   UNL     1      44.771   2.380   8.280  0.00  0.00    +0.000 A 
ATOM     31  N   UNL     1      45.530   3.496   8.040  0.00  0.00    +0.000 N 
ATOM     32  C   UNL     1      45.645   4.528   8.939  0.00  0.00    +0.000 A 
ATOM     33  O   UNL     1      46.298   5.534   8.674  0.00  0.00    +0.000 OA
ATOM     34  C   UNL     1      44.929   4.328  10.184  0.00  0.00    +0.000 A 
ATOM     35  H   UNL     1      46.019   3.612   7.166  0.00  0.00    +0.000 HD
ENDBRANCH  22  25
ENDBRANCH  20  21
ENDBRANCH   4  20
TORSDOF 7
ENDMDL
MODEL 2
REMARK VINA RESULT:    -7.207      3.312      5.460
REMARK INTER + INTRA:         -11.315
REMARK INTER:                 -10.166
REMARK INTRA:                  -1.149
REMARK UNBOUND:                -1.158
REMARK  Name = 
REMARK  8 active torsions:
REMARK  status: ('A' for Active; 'I' for Inactive)
REMARK    1  A    between atoms: C_1  and  O_2
REMARK    2  A    between atoms: O_2  and  C_3
REMARK    3  A    between atoms: C_8  and  C_9
REMARK    4  A    between atoms: N_11  and  C_12
REMARK    5  A    between atoms: C_12  and  C_13
REMARK    6  A    between atoms: C_16  and  C_17
REMARK    7  A    between atoms: C_17  and  N_18
REMARK    8  A    between atoms: C_19  and  C_21
REMARK                            x       y       z     vdW  Elec       q    Type
REMARK                         _______ _______ _______ _____ _____    ______ ____
ROOT
ATOM      1  C   UNL     1      51.363   2.974  17.754  0.00  0.00    +0.000 A 
ATOM      2  C   UNL     1      50.587   1.970  17.158  0.00  0.00    +0.000 A 
ATOM      3  C   UNL     1      49.222   2.170  16.911  0.00  0.00    +0.000 A 
ATOM      4  C   UNL     1      48.608   3.388  17.238  0.00  0.00    +0.000 A 
ATOM      5  C   UNL     1      49.382   4.383  17.851  0.00  0.00    +0.000 A 
ATOM      6  C   UNL     1      50.746   4.183  18.094  0.00  0.00    +0.000 A 
ENDROOT
BRANCH   1   7
ATOM      7  C   UNL     1      52.836   2.769  18.009  0.00  0.00    +0.000 C 
BRANCH   7  10
ATOM      8  C   UNL     1      54.337   0.950  17.298  0.00  0.00    +0.000 C 
ATOM      9  O   UNL     1      55.053   1.730  16.677  0.00  0.00    +0.000 OA
ATOM     10  N   UNL     1      53.205   1.375  17.958  0.00  0.00    +0.000 N 
ATOM     11  H   UNL     1      52.637   0.690  18.442  0.00  0.00    +0.000 HD
BRANCH   8  17
ATOM     12  C   UNL     1      54.887  -1.230  18.581  0.00  0.00    +0.000 A 
ATOM     13  C   UNL     1      55.320  -2.565  18.514  0.00  0.00    +0.000 A 
ATOM     14  C   UNL     1      55.534  -3.195  17.286  0.00  0.00    +0.000 A 
ATOM     15  C   UNL     1      55.307  -2.503  16.104  0.00  0.00    +0.000 A 
ATOM     16  C   UNL     1      54.896  -1.170  16.153  0.00  0.00    +0.000 A 
ATOM     17  C   UNL     1      54.700  -0.509  17.382  0.00  0.00    +0.000 A 
BRANCH  12  19
ATOM     18  C   UNL     1      55.764  -0.218  20.562  0.00  0.00    +0.000 C 
ATOM     19  O   UNL     1      54.640  -0.586  19.769  0.00  0.00    +0.000 OA
ENDBRANCH  12  19
ENDBRANCH   8  17
ENDBRANCH   7  10
ENDBRANCH   1   7
BRANCH   4  20
ATOM     20  C   UNL     1      47.142   3.629  16.967  0.00  0.00    +0.000 C 
BRANCH  20  21
ATOM     21  N   UNL     1      46.951   4.618  15.938  0.00  0.00    +0.000 N 
ATOM     22  C   UNL     1      47.071   4.301  14.607  0.00  0.00    +0.000 C 
ATOM     23  O   UNL     1      47.320   3.159  14.227  0.00  0.00    +0.000 OA
ATOM     24  H   UNL     1      47.013   5.589  16.220  0.00  0.00    +0.000 HD
BRANCH  22  25
ATOM     25  C   UNL     1      46.816   5.388  13.653  0.00  0.00    +0.000 A 
ATOM     26  C   UNL     1      47.840   6.250  13.291  0.00  0.00    +0.000 A 
ATOM     27  S   UNL     1      47.378   7.412  12.127  0.00  0.00    +0.000 S 
ATOM     28  C   UNL     1      45.777   6.837  12.110  0.00  0.00    +0.000 A 
ATOM     29  N   UNL     1      44.831   7.423  11.327  0.00  0.00    +0.000 NA
ATOM     30  C   UNL     1      43.653   6.903  11.437  0.00  0.00    +0.000 A 
ATOM     31  N   UNL     1      43.337   5.848  12.254  0.00  0.00    +0.000 N 
ATOM     32  C   UNL     1      44.265   5.207  13.038  0.00  0.00    +0.000 A 
ATOM     33  O   UNL     1      43.958   4.237  13.725  0.00  0.00    +0.000 OA
ATOM     34  C   UNL     1      45.604   5.760  12.964  0.00  0.00    +0.000 A 
ATOM     35  H   UNL     1      42.398   5.482  12.288  0.00  0.00    +0.000 HD
ENDBRANCH  22  25
ENDBRANCH  20  21
ENDBRANCH   4  20
TORSDOF 7
ENDMDL
MODEL 3
REMARK VINA RESULT:    -7.009      2.929      8.959
REMARK INTER + INTRA:         -11.035
REMARK INTER:                  -9.912
REMARK INTRA:                  -1.123
REMARK UNBOUND:                -1.158
REMARK  Name = 
REMARK  8 active torsions:
REMARK  status: ('A' for Active; 'I' for Inactive)
REMARK    1  A    between atoms: C_1  and  O_2
REMARK    2  A    between atoms: O_2  and  C_3
REMARK    3  A    between atoms: C_8  and  C_9
REMARK    4  A    between atoms: N_11  and  C_12
REMARK    5  A    between atoms: C_12  and  C_13
REMARK    6  A    between atoms: C_16  and  C_17
REMARK    7  A    between atoms: C_17  and  N_18
REMARK    8  A    between atoms: C_19  and  C_21
REMARK                            x       y       z     vdW  Elec       q    Type
REMARK                         _______ _______ _______ _____ _____    ______ ____
ROOT
ATOM      1  C   UNL     1      47.966   7.862  13.422  0.00  0.00    +0.000 A 
ATOM      2  C   UNL     1      48.296   6.634  14.013  0.00  0.00    +0.000 A 
ATOM      3  C   UNL     1      48.681   6.566  15.358  0.00  0.00    +0.000 A 
ATOM      4  C   UNL     1      48.727   7.725  16.147  0.00  0.00    +0.000 A 
ATOM      5  C   UNL     1      48.414   8.953  15.549  0.00  0.00    +0.000 A 
ATOM      6  C   UNL     1      48.026   9.020  14.206  0.00  0.00    +0.000 A 
ENDROOT
BRANCH   1   7
ATOM      7  C   UNL     1      47.536   7.939  11.977  0.00  0.00    +0.000 C 
BRANCH   7  10
ATOM      8  C   UNL     1      45.664   6.519  11.240  0.00  0.00    +0.000 C 
ATOM      9  O   UNL     1      44.851   7.414  11.448  0.00  0.00    +0.000 OA
ATOM     10  N   UNL     1      47.006   6.683  11.503  0.00  0.00    +0.000 N 
ATOM     11  H   UNL     1      47.636   5.908  11.331  0.00  0.00    +0.000 HD
BRANCH   8  17
ATOM     12  C   UNL     1      44.581   4.172  11.370  0.00  0.00    +0.000 A 
ATOM     13  C   UNL     1      44.300   2.960  10.717  0.00  0.00    +0.000 A 
ATOM     14  C   UNL     1      44.606   2.779   9.366  0.00  0.00    +0.000 A 
ATOM     15  C   UNL     1      45.185   3.813   8.644  0.00  0.00    +0.000 A 
ATOM     16  C   UNL     1      45.489   5.016   9.282  0.00  0.00    +0.000 A 
ATOM     17  C   UNL     1      45.214   5.208  10.652  0.00  0.00    +0.000 A 
BRANCH  12  19
ATOM     18  C   UNL     1      42.959   4.866  12.984  0.00  0.00    +0.000 C 
ATOM     19  O   UNL     1      44.270   4.395  12.690  0.00  0.00    +0.000 OA
ENDBRANCH  12  19
ENDBRANCH   8  17
ENDBRANCH   7  10
ENDBRANCH   1   7
BRANCH   4  20
ATOM     20  C   UNL     1      49.125   7.671  17.603  0.00  0.00    +0.000 C 
BRANCH  20  21
ATOM     21  N   UNL     1      50.181   6.718  17.828  0.00  0.00    +0.000 N 
ATOM     22  C   UNL     1      50.017   5.654  18.681  0.00  0.00    +0.000 C 
ATOM     23  O   UNL     1      48.961   5.447  19.273  0.00  0.00    +0.000 OA
ATOM     24  H   UNL     1      51.118   7.006  17.575  0.00  0.00    +0.000 HD
BRANCH  22  25
ATOM     25  C   UNL     1      51.154   4.731  18.797  0.00  0.00    +0.000 A 
ATOM     26  C   UNL     1      52.269   5.092  19.539  0.00  0.00    +0.000 A 
ATOM     27  S   UNL     1      53.465   3.874  19.614  0.00  0.00    +0.000 S 
ATOM     28  C   UNL     1      52.556   2.844  18.610  0.00  0.00    +0.000 A 
ATOM     29  N   UNL     1      53.029   1.621  18.249  0.00  0.00    +0.000 NA
ATOM     30  C   UNL     1      52.248   0.960  17.461  0.00  0.00    +0.000 A 
ATOM     31  N   UNL     1      51.035   1.408  17.005  0.00  0.00    +0.000 N 
ATOM     32  C   UNL     1      50.505   2.623  17.366  0.00  0.00    +0.000 A 
ATOM     33  O   UNL     1      49.396   2.976  16.974  0.00  0.00    +0.000 OA
ATOM     34  C   UNL     1      51.348   3.414  18.241  0.00  0.00    +0.000 A 
ATOM     35  H   UNL     1      50.467   0.839  16.396  0.00  0.00    +0.000 HD
ENDBRANCH  22  25
ENDBRANCH  20  21
ENDBRANCH   4  20
TORSDOF 7
ENDMDL
MODEL 4
REMARK VINA RESULT:    -6.770      5.459      8.622
REMARK INTER + INTRA:         -10.699
REMARK INTER:                  -9.449
REMARK INTRA:                  -1.251
REMARK UNBOUND:                -1.158
REMARK  Name = 
REMARK  8 active torsions:
REMARK  status: ('A' for Active; 'I' for Inactive)
REMARK    1  A    between atoms: C_1  and  O_2
REMARK    2  A    between atoms: O_2  and  C_3
REMARK    3  A    between atoms: C_8  and  C_9
REMARK    4  A    between atoms: N_11  and  C_12
REMARK    5  A    between atoms: C_12  and  C_13
REMARK    6  A    between atoms: C_16  and  C_17
REMARK    7  A    between atoms: C_17  and  N_18
REMARK    8  A    between atoms: C_19  and  C_21
REMARK                            x       y       z     vdW  Elec       q    Type
REMARK                         _______ _______ _______ _____ _____    ______ ____
ROOT
ATOM      1  C   UNL     1      48.230   8.099  12.489  0.00  0.00    +0.000 A 
ATOM      2  C   UNL     1      49.339   7.305  12.164  0.00  0.00    +0.000 A 
ATOM      3  C   UNL     1      50.486   7.875  11.594  0.00  0.00    +0.000 A 
ATOM      4  C   UNL     1      50.555   9.254  11.355  0.00  0.00    +0.000 A 
ATOM      5  C   UNL     1      49.438  10.043  11.665  0.00  0.00    +0.000 A 
ATOM      6  C   UNL     1      48.294   9.474  12.237  0.00  0.00    +0.000 A 
ENDROOT
BRANCH   1   7
ATOM      7  C   UNL     1      46.998   7.493  13.116  0.00  0.00    +0.000 C 
BRANCH   7  10
ATOM      8  C   UNL     1      45.604   6.376  11.422  0.00  0.00    +0.000 C 
ATOM      9  O   UNL     1      45.045   7.428  11.130  0.00  0.00    +0.000 OA
ATOM     10  N   UNL     1      46.558   6.313  12.413  0.00  0.00    +0.000 N 
ATOM     11  H   UNL     1      46.979   5.417  12.629  0.00  0.00    +0.000 HD
BRANCH   8  17
ATOM     12  C   UNL     1      44.791   3.924  11.256  0.00  0.00    +0.000 A 
ATOM     13  C   UNL     1      44.621   2.785  10.450  0.00  0.00    +0.000 A 
ATOM     14  C   UNL     1      44.894   2.821   9.081  0.00  0.00    +0.000 A 
ATOM     15  C   UNL     1      45.330   4.001   8.493  0.00  0.00    +0.000 A 
ATOM     16  C   UNL     1      45.523   5.136   9.283  0.00  0.00    +0.000 A 
ATOM     17  C   UNL     1      45.279   5.111  10.671  0.00  0.00    +0.000 A 
BRANCH  12  19
ATOM     18  C   UNL     1      43.191   4.316  12.990  0.00  0.00    +0.000 C 
ATOM     19  O   UNL     1      44.507   3.933  12.600  0.00  0.00    +0.000 OA
ENDBRANCH  12  19
ENDBRANCH   8  17
ENDBRANCH   7  10
ENDBRANCH   1   7
BRANCH   4  20
ATOM     20  C   UNL     1      51.787   9.890  10.756  0.00  0.00    +0.000 C 
BRANCH  20  21
ATOM     21  N   UNL     1      52.136   9.284   9.497  0.00  0.00    +0.000 N 
ATOM     22  C   UNL     1      53.358   8.688   9.301  0.00  0.00    +0.000 C 
ATOM     23  O   UNL     1      54.201   8.618  10.192  0.00  0.00    +0.000 OA
ATOM     24  H   UNL     1      51.587   9.558   8.691  0.00  0.00    +0.000 HD
BRANCH  22  25
ATOM     25  C   UNL     1      53.579   8.072   7.986  0.00  0.00    +0.000 A 
ATOM     26  C   UNL     1      53.682   8.868   6.855  0.00  0.00    +0.000 A 
ATOM     27  S   UNL     1      54.000   7.988   5.426  0.00  0.00    +0.000 S 
ATOM     28  C   UNL     1      53.955   6.507   6.263  0.00  0.00    +0.000 A 
ATOM     29  N   UNL     1      54.128   5.328   5.609  0.00  0.00    +0.000 NA
ATOM     30  C   UNL     1      54.039   4.283   6.364  0.00  0.00    +0.000 A 
ATOM     31  N   UNL     1      53.796   4.311   7.713  0.00  0.00    +0.000 N 
ATOM     32  C   UNL     1      53.644   5.479   8.419  0.00  0.00    +0.000 A 
ATOM     33  O   UNL     1      53.471   5.471   9.635  0.00  0.00    +0.000 OA
ATOM     34  C   UNL     1      53.722   6.685   7.617  0.00  0.00    +0.000 A 
ATOM     35  H   UNL     1      53.746   3.458   8.248  0.00  0.00    +0.000 HD
ENDBRANCH  22  25
ENDBRANCH  20  21
ENDBRANCH   4  20
TORSDOF 7
ENDMDL
MODEL 5
REMARK VINA RESULT:    -6.688      4.421      5.912
REMARK INTER + INTRA:         -10.583
REMARK INTER:                  -9.303
REMARK INTRA:                  -1.280
REMARK UNBOUND:                -1.158
REMARK  Name = 
REMARK  8 active torsions:
REMARK  status: ('A' for Active; 'I' for Inactive)
REMARK    1  A    between atoms: C_1  and  O_2
REMARK    2  A    between atoms: O_2  and  C_3
REMARK    3  A    between atoms: C_8  and  C_9
REMARK    4  A    between atoms: N_11  and  C_12
REMARK    5  A    between atoms: C_12  and  C_13
REMARK    6  A    between atoms: C_16  and  C_17
REMARK    7  A    between atoms: C_17  and  N_18
REMARK    8  A    between atoms: C_19  and  C_21
REMARK                            x       y       z     vdW  Elec       q    Type
REMARK                         _______ _______ _______ _____ _____    ______ ____
ROOT
ATOM      1  C   UNL     1      50.857   8.131  12.041  0.00  0.00    +0.000 A 
ATOM      2  C   UNL     1      49.851   7.843  11.108  0.00  0.00    +0.000 A 
ATOM      3  C   UNL     1      48.514   7.719  11.510  0.00  0.00    +0.000 A 
ATOM      4  C   UNL     1      48.152   7.901  12.852  0.00  0.00    +0.000 A 
ATOM      5  C   UNL     1      49.162   8.171  13.786  0.00  0.00    +0.000 A 
ATOM      6  C   UNL     1      50.496   8.298  13.384  0.00  0.00    +0.000 A 
ENDROOT
BRANCH   1   7
ATOM      7  C   UNL     1      52.296   8.280  11.612  0.00  0.00    +0.000 C 
BRANCH   7  10
ATOM      8  C   UNL     1      53.239   7.361   9.531  0.00  0.00    +0.000 C 
ATOM      9  O   UNL     1      53.286   8.473   9.014  0.00  0.00    +0.000 OA
ATOM     10  N   UNL     1      52.735   7.172  10.799  0.00  0.00    +0.000 N 
ATOM     11  H   UNL     1      52.701   6.232  11.175  0.00  0.00    +0.000 HD
BRANCH   8  17
ATOM     12  C   UNL     1      54.736   5.263   9.293  0.00  0.00    +0.000 A 
ATOM     13  C   UNL     1      55.212   4.237   8.459  0.00  0.00    +0.000 A 
ATOM     14  C   UNL     1      54.719   4.072   7.163  0.00  0.00    +0.000 A 
ATOM     15  C   UNL     1      53.733   4.924   6.684  0.00  0.00    +0.000 A 
ATOM     16  C   UNL     1      53.264   5.961   7.492  0.00  0.00    +0.000 A 
ATOM     17  C   UNL     1      53.768   6.159   8.793  0.00  0.00    +0.000 A 
BRANCH  12  19
ATOM     18  C   UNL     1      55.279   4.280  11.404  0.00  0.00    +0.000 C 
ATOM     19  O   UNL     1      55.177   5.438  10.582  0.00  0.00    +0.000 OA
ENDBRANCH  12  19
ENDBRANCH   8  17
ENDBRANCH   7  10
ENDBRANCH   1   7
BRANCH   4  20
ATOM     20  C   UNL     1      46.715   7.787  13.303  0.00  0.00    +0.000 C 
BRANCH  20  21
ATOM     21  N   UNL     1      46.139   6.523  12.920  0.00  0.00    +0.000 N 
ATOM     22  C   UNL     1      45.171   6.441  11.949  0.00  0.00    +0.000 C 
ATOM     23  O   UNL     1      44.768   7.431  11.343  0.00  0.00    +0.000 OA
ATOM     24  H   UNL     1      46.251   5.755  13.570  0.00  0.00    +0.000 HD
BRANCH  22  25
ATOM     25  C   UNL     1      44.690   5.093  11.621  0.00  0.00    +0.000 A 
ATOM     26  C   UNL     1      43.978   4.361  12.560  0.00  0.00    +0.000 A 
ATOM     27  S   UNL     1      43.446   2.843  11.986  0.00  0.00    +0.000 S 
ATOM     28  C   UNL     1      44.199   3.089  10.480  0.00  0.00    +0.000 A 
ATOM     29  N   UNL     1      44.150   2.137   9.510  0.00  0.00    +0.000 NA
ATOM     30  C   UNL     1      44.790   2.445   8.430  0.00  0.00    +0.000 A 
ATOM     31  N   UNL     1      45.468   3.620   8.231  0.00  0.00    +0.000 N 
ATOM     32  C   UNL     1      45.519   4.620   9.171  0.00  0.00    +0.000 A 
ATOM     33  O   UNL     1      46.098   5.679   8.944  0.00  0.00    +0.000 OA
ATOM     34  C   UNL     1      44.828   4.321  10.410  0.00  0.00    +0.000 A 
ATOM     35  H   UNL     1      45.941   3.804   7.360  0.00  0.00    +0.000 HD
ENDBRANCH  22  25
ENDBRANCH  20  21
ENDBRANCH   4  20
TORSDOF 7
ENDMDL
MODEL 6
REMARK VINA RESULT:    -6.681      3.594      9.241
REMARK INTER + INTRA:         -10.574
REMARK INTER:                  -9.850
REMARK INTRA:                  -0.723
REMARK UNBOUND:                -1.158
REMARK  Name = 
REMARK  8 active torsions:
REMARK  status: ('A' for Active; 'I' for Inactive)
REMARK    1  A    between atoms: C_1  and  O_2
REMARK    2  A    between atoms: O_2  and  C_3
REMARK    3  A    between atoms: C_8  and  C_9
REMARK    4  A    between atoms: N_11  and  C_12
REMARK    5  A    between atoms: C_12  and  C_13
REMARK    6  A    between atoms: C_16  and  C_17
REMARK    7  A    between atoms: C_17  and  N_18
REMARK    8  A    between atoms: C_19  and  C_21
REMARK                            x       y       z     vdW  Elec       q    Type
REMARK                         _______ _______ _______ _____ _____    ______ ____
ROOT
ATOM      1  C   UNL     1      45.038   4.684  12.186  0.00  0.00    +0.000 A 
ATOM      2  C   UNL     1      46.112   4.884  13.066  0.00  0.00    +0.000 A 
ATOM      3  C   UNL     1      46.533   6.179  13.400  0.00  0.00    +0.000 A 
ATOM      4  C   UNL     1      45.876   7.301  12.876  0.00  0.00    +0.000 A 
ATOM      5  C   UNL     1      44.815   7.097  11.983  0.00  0.00    +0.000 A 
ATOM      6  C   UNL     1      44.392   5.805  11.652  0.00  0.00    +0.000 A 
ENDROOT
BRANCH   1   7
ATOM      7  C   UNL     1      44.572   3.292  11.835  0.00  0.00    +0.000 C 
BRANCH   7  10
ATOM      8  C   UNL     1      44.869   2.799   9.441  0.00  0.00    +0.000 C 
ATOM      9  O   UNL     1      43.780   3.291   9.163  0.00  0.00    +0.000 OA
ATOM     10  N   UNL     1      45.323   2.730  10.739  0.00  0.00    +0.000 N 
ATOM     11  H   UNL     1      46.222   2.299  10.920  0.00  0.00    +0.000 HD
BRANCH   8  17
ATOM     12  C   UNL     1      46.292   3.051   7.293  0.00  0.00    +0.000 A 
ATOM     13  C   UNL     1      47.038   2.416   6.286  0.00  0.00    +0.000 A 
ATOM     14  C   UNL     1      47.292   1.044   6.332  0.00  0.00    +0.000 A 
ATOM     15  C   UNL     1      46.815   0.286   7.393  0.00  0.00    +0.000 A 
ATOM     16  C   UNL     1      46.056   0.899   8.392  0.00  0.00    +0.000 A 
ATOM     17  C   UNL     1      45.765   2.277   8.349  0.00  0.00    +0.000 A 
BRANCH  12  19
ATOM     18  C   UNL     1      46.553   5.160   8.390  0.00  0.00    +0.000 C 
ATOM     19  O   UNL     1      46.045   4.403   7.296  0.00  0.00    +0.000 OA
ENDBRANCH  12  19
ENDBRANCH   8  17
ENDBRANCH   7  10
ENDBRANCH   1   7
BRANCH   4  20
ATOM     20  C   UNL     1      46.305   8.704  13.235  0.00  0.00    +0.000 C 
BRANCH  20  21
ATOM     21  N   UNL     1      47.010   8.737  14.490  0.00  0.00    +0.000 N 
ATOM     22  C   UNL     1      48.285   9.239  14.584  0.00  0.00    +0.000 C 
ATOM     23  O   UNL     1      48.876   9.707  13.615  0.00  0.00    +0.000 OA
ATOM     24  H   UNL     1      46.664   8.130  15.224  0.00  0.00    +0.000 HD
BRANCH  22  25
ATOM     25  C   UNL     1      48.882   9.252  15.926  0.00  0.00    +0.000 A 
ATOM     26  C   UNL     1      49.059  10.453  16.596  0.00  0.00    +0.000 A 
ATOM     27  S   UNL     1      49.708  10.272  18.166  0.00  0.00    +0.000 S 
ATOM     28  C   UNL     1      49.827   8.585  17.981  0.00  0.00    +0.000 A 
ATOM     29  N   UNL     1      50.340   7.807  18.971  0.00  0.00    +0.000 NA
ATOM     30  C   UNL     1      50.398   6.548  18.683  0.00  0.00    +0.000 A 
ATOM     31  N   UNL     1      49.985   5.999  17.497  0.00  0.00    +0.000 N 
ATOM     32  C   UNL     1      49.434   6.741  16.482  0.00  0.00    +0.000 A 
ATOM     33  O   UNL     1      49.033   6.211  15.449  0.00  0.00    +0.000 OA
ATOM     34  C   UNL     1      49.357   8.165  16.747  0.00  0.00    +0.000 A 
ATOM     35  H   UNL     1      50.049   5.005  17.336  0.00  0.00    +0.000 HD
ENDBRANCH  22  25
ENDBRANCH  20  21
ENDBRANCH   4  20
TORSDOF 7
ENDMDL
MODEL 7
REMARK VINA RESULT:    -6.546      2.787      8.897
REMARK INTER + INTRA:         -10.383
REMARK INTER:                  -9.120
REMARK INTRA:                  -1.263
REMARK UNBOUND:                -1.158
REMARK  Name = 
REMARK  8 active torsions:
REMARK  status: ('A' for Active; 'I' for Inactive)
REMARK    1  A    between atoms: C_1  and  O_2
REMARK    2  A    between atoms: O_2  and  C_3
REMARK    3  A    between atoms: C_8  and  C_9
REMARK    4  A    between atoms: N_11  and  C_12
REMARK    5  A    between atoms: C_12  and  C_13
REMARK    6  A    between atoms: C_16  and  C_17
REMARK    7  A    between atoms: C_17  and  N_18
REMARK    8  A    between atoms: C_19  and  C_21
REMARK                            x       y       z     vdW  Elec       q    Type
REMARK                         _______ _______ _______ _____ _____    ______ ____
ROOT
ATOM      1  C   UNL     1      48.628   7.916  13.083  0.00  0.00    +0.000 A 
ATOM      2  C   UNL     1      49.331   9.091  13.383  0.00  0.00    +0.000 A 
ATOM      3  C   UNL     1      50.029   9.220  14.592  0.00  0.00    +0.000 A 
ATOM      4  C   UNL     1      50.053   8.168  15.518  0.00  0.00    +0.000 A 
ATOM      5  C   UNL     1      49.334   7.001  15.223  0.00  0.00    +0.000 A 
ATOM      6  C   UNL     1      48.640   6.872  14.014  0.00  0.00    +0.000 A 
ENDROOT
BRANCH   1   7
ATOM      7  C   UNL     1      47.888   7.767  11.776  0.00  0.00    +0.000 C 
BRANCH   7  10
ATOM      8  C   UNL     1      45.720   6.598  11.755  0.00  0.00    +0.000 C 
ATOM      9  O   UNL     1      45.104   7.654  11.860  0.00  0.00    +0.000 OA
ATOM     10  N   UNL     1      47.096   6.560  11.738  0.00  0.00    +0.000 N 
ATOM     11  H   UNL     1      47.559   5.662  11.667  0.00  0.00    +0.000 HD
BRANCH   8  17
ATOM     12  C   UNL     1      44.882   4.546  10.419  0.00  0.00    +0.000 A 
ATOM     13  C   UNL     1      44.072   3.398  10.397  0.00  0.00    +0.000 A 
ATOM     14  C   UNL     1      43.387   2.975  11.539  0.00  0.00    +0.000 A 
ATOM     15  C   UNL     1      43.513   3.686  12.724  0.00  0.00    +0.000 A 
ATOM     16  C   UNL     1      44.298   4.840  12.758  0.00  0.00    +0.000 A 
ATOM     17  C   UNL     1      44.974   5.298  11.609  0.00  0.00    +0.000 A 
BRANCH  12  19
ATOM     18  C   UNL     1      45.634   4.117   8.190  0.00  0.00    +0.000 C 
ATOM     19  O   UNL     1      45.591   4.977   9.324  0.00  0.00    +0.000 OA
ENDBRANCH  12  19
ENDBRANCH   8  17
ENDBRANCH   7  10
ENDBRANCH   1   7
BRANCH   4  20
ATOM     20  C   UNL     1      50.810   8.281  16.820  0.00  0.00    +0.000 C 
BRANCH  20  21
ATOM     21  N   UNL     1      51.545   7.077  17.110  0.00  0.00    +0.000 N 
ATOM     22  C   UNL     1      51.191   6.254  18.151  0.00  0.00    +0.000 C 
ATOM     23  O   UNL     1      50.220   6.486  18.867  0.00  0.00    +0.000 OA
ATOM     24  H   UNL     1      52.478   7.006  16.723  0.00  0.00    +0.000 HD
BRANCH  22  25
ATOM     25  C   UNL     1      51.996   5.036  18.321  0.00  0.00    +0.000 A 
ATOM     26  C   UNL     1      53.258   5.112  18.889  0.00  0.00    +0.000 A 
ATOM     27  S   UNL     1      54.022   3.594  19.066  0.00  0.00    +0.000 S 
ATOM     28  C   UNL     1      52.712   2.790  18.336  0.00  0.00    +0.000 A 
ATOM     29  N   UNL     1      52.734   1.443  18.149  0.00  0.00    +0.000 NA
ATOM     30  C   UNL     1      51.687   0.971  17.557  0.00  0.00    +0.000 A 
ATOM     31  N   UNL     1      50.619   1.723  17.140  0.00  0.00    +0.000 N 
ATOM     32  C   UNL     1      50.541   3.081  17.334  0.00  0.00    +0.000 A 
ATOM     33  O   UNL     1      49.550   3.718  16.987  0.00  0.00    +0.000 OA
ATOM     34  C   UNL     1      51.698   3.666  17.984  0.00  0.00    +0.000 A 
ATOM     35  H   UNL     1      49.826   1.293  16.689  0.00  0.00    +0.000 HD
ENDBRANCH  22  25
ENDBRANCH  20  21
ENDBRANCH   4  20
TORSDOF 7
ENDMDL
MODEL 8
REMARK VINA RESULT:    -6.314      3.266      9.248
REMARK INTER + INTRA:         -10.056
REMARK INTER:                  -9.092
REMARK INTRA:                  -0.964
REMARK UNBOUND:                -1.158
REMARK  Name = 
REMARK  8 active torsions:
REMARK  status: ('A' for Active; 'I' for Inactive)
REMARK    1  A    between atoms: C_1  and  O_2
REMARK    2  A    between atoms: O_2  and  C_3
REMARK    3  A    between atoms: C_8  and  C_9
REMARK    4  A    between atoms: N_11  and  C_12
REMARK    5  A    between atoms: C_12  and  C_13
REMARK    6  A    between atoms: C_16  and  C_17
REMARK    7  A    between atoms: C_17  and  N_18
REMARK    8  A    between atoms: C_19  and  C_21
REMARK                            x       y       z     vdW  Elec       q    Type
REMARK                         _______ _______ _______ _____ _____    ______ ____
ROOT
ATOM      1  C   UNL     1      47.489   7.591  12.541  0.00  0.00    +0.000 A 
ATOM      2  C   UNL     1      48.718   7.718  11.879  0.00  0.00    +0.000 A 
ATOM      3  C   UNL     1      49.916   7.804  12.601  0.00  0.00    +0.000 A 
ATOM      4  C   UNL     1      49.912   7.744  14.002  0.00  0.00    +0.000 A 
ATOM      5  C   UNL     1      48.680   7.635  14.662  0.00  0.00    +0.000 A 
ATOM      6  C   UNL     1      47.484   7.546  13.940  0.00  0.00    +0.000 A 
ENDROOT
BRANCH   1   7
ATOM      7  C   UNL     1      46.197   7.484  11.768  0.00  0.00    +0.000 C 
BRANCH   7  10
ATOM      8  C   UNL     1      44.925   5.684  10.671  0.00  0.00    +0.000 C 
ATOM      9  O   UNL     1      43.859   6.137  11.073  0.00  0.00    +0.000 OA
ATOM     10  N   UNL     1      46.130   6.268  10.994  0.00  0.00    +0.000 N 
ATOM     11  H   UNL     1      46.985   5.846  10.651  0.00  0.00    +0.000 HD
BRANCH   8  17
ATOM     12  C   UNL     1      44.188   3.301   9.979  0.00  0.00    +0.000 A 
ATOM     13  C   UNL     1      44.374   2.208   9.115  0.00  0.00    +0.000 A 
ATOM     14  C   UNL     1      45.266   2.279   8.043  0.00  0.00    +0.000 A 
ATOM     15  C   UNL     1      45.977   3.448   7.809  0.00  0.00    +0.000 A 
ATOM     16  C   UNL     1      45.818   4.536   8.670  0.00  0.00    +0.000 A 
ATOM     17  C   UNL     1      44.944   4.474   9.774  0.00  0.00    +0.000 A 
BRANCH  12  19
ATOM     18  C   UNL     1      43.702   2.597  12.212  0.00  0.00    +0.000 C 
ATOM     19  O   UNL     1      43.301   3.277  11.028  0.00  0.00    +0.000 OA
ENDBRANCH  12  19
ENDBRANCH   8  17
ENDBRANCH   7  10
ENDBRANCH   1   7
BRANCH   4  20
ATOM     20  C   UNL     1      51.193   7.819  14.798  0.00  0.00    +0.000 C 
BRANCH  20  21
ATOM     21  N   UNL     1      50.997   7.384  16.157  0.00  0.00    +0.000 N 
ATOM     22  C   UNL     1      51.894   6.551  16.780  0.00  0.00    +0.000 C 
ATOM     23  O   UNL     1      52.917   6.159  16.224  0.00  0.00    +0.000 OA
ATOM     24  H   UNL     1      50.060   7.467  16.533  0.00  0.00    +0.000 HD
BRANCH  22  25
ATOM     25  C   UNL     1      51.602   6.209  18.179  0.00  0.00    +0.000 A 
ATOM     26  C   UNL     1      52.493   6.564  19.181  0.00  0.00    +0.000 A 
ATOM     27  S   UNL     1      51.962   6.142  20.749  0.00  0.00    +0.000 S 
ATOM     28  C   UNL     1      50.550   5.419  20.135  0.00  0.00    +0.000 A 
ATOM     29  N   UNL     1      49.649   4.827  20.964  0.00  0.00    +0.000 NA
ATOM     30  C   UNL     1      48.639   4.293  20.359  0.00  0.00    +0.000 A 
ATOM     31  N   UNL     1      48.447   4.303  19.002  0.00  0.00    +0.000 N 
ATOM     32  C   UNL     1      49.314   4.914  18.130  0.00  0.00    +0.000 A 
ATOM     33  O   UNL     1      49.090   4.943  16.922  0.00  0.00    +0.000 OA
ATOM     34  C   UNL     1      50.474   5.519  18.755  0.00  0.00    +0.000 A 
ATOM     35  H   UNL     1      47.632   3.875  18.591  0.00  0.00    +0.000 HD
ENDBRANCH  22  25
ENDBRANCH  20  21
ENDBRANCH   4  20
TORSDOF 7
ENDMDL
MODEL 9
REMARK VINA RESULT:    -6.171      3.413      6.074
REMARK INTER + INTRA:          -9.854
REMARK INTER:                  -8.492
REMARK INTRA:                  -1.362
REMARK UNBOUND:                -1.158
REMARK  Name = 
REMARK  8 active torsions:
REMARK  status: ('A' for Active; 'I' for Inactive)
REMARK    1  A    between atoms: C_1  and  O_2
REMARK    2  A    between atoms: O_2  and  C_3
REMARK    3  A    between atoms: C_8  and  C_9
REMARK    4  A    between atoms: N_11  and  C_12
REMARK    5  A    between atoms: C_12  and  C_13
REMARK    6  A    between atoms: C_16  and  C_17
REMARK    7  A    between atoms: C_17  and  N_18
REMARK    8  A    between atoms: C_19  and  C_21
REMARK                            x       y       z     vdW  Elec       q    Type
REMARK                         _______ _______ _______ _____ _____    ______ ____
ROOT
ATOM      1  C   UNL     1      51.971   3.016  17.867  0.00  0.00    +0.000 A 
ATOM      2  C   UNL     1      50.998   2.082  17.482  0.00  0.00    +0.000 A 
ATOM      3  C   UNL     1      49.650   2.451  17.383  0.00  0.00    +0.000 A 
ATOM      4  C   UNL     1      49.249   3.768  17.646  0.00  0.00    +0.000 A 
ATOM      5  C   UNL     1      50.220   4.696  18.047  0.00  0.00    +0.000 A 
ATOM      6  C   UNL     1      51.567   4.328  18.144  0.00  0.00    +0.000 A 
ENDROOT
BRANCH   1   7
ATOM      7  C   UNL     1      53.426   2.628  17.962  0.00  0.00    +0.000 C 
BRANCH   7  10
ATOM      8  C   UNL     1      54.666   0.621  17.257  0.00  0.00    +0.000 C 
ATOM      9  O   UNL     1      55.471   1.292  16.620  0.00  0.00    +0.000 OA
ATOM     10  N   UNL     1      53.608   1.197  17.924  0.00  0.00    +0.000 N 
ATOM     11  H   UNL     1      52.960   0.598  18.422  0.00  0.00    +0.000 HD
BRANCH   8  17
ATOM     12  C   UNL     1      54.872  -1.607  18.559  0.00  0.00    +0.000 A 
ATOM     13  C   UNL     1      55.132  -2.987  18.510  0.00  0.00    +0.000 A 
ATOM     14  C   UNL     1      55.322  -3.643  17.293  0.00  0.00    +0.000 A 
ATOM     15  C   UNL     1      55.241  -2.933  16.103  0.00  0.00    +0.000 A 
ATOM     16  C   UNL     1      55.002  -1.558  16.135  0.00  0.00    +0.000 A 
ATOM     17  C   UNL     1      54.835  -0.872  17.355  0.00  0.00    +0.000 A 
BRANCH  12  19
ATOM     18  C   UNL     1      55.773  -0.720  20.589  0.00  0.00    +0.000 C 
ATOM     19  O   UNL     1      54.653  -0.932  19.736  0.00  0.00    +0.000 OA
ENDBRANCH  12  19
ENDBRANCH   8  17
ENDBRANCH   7  10
ENDBRANCH   1   7
BRANCH   4  20
ATOM     20  C   UNL     1      47.803   4.190  17.530  0.00  0.00    +0.000 C 
BRANCH  20  21
ATOM     21  N   UNL     1      47.585   5.017  16.371  0.00  0.00    +0.000 N 
ATOM     22  C   UNL     1      47.473   4.475  15.114  0.00  0.00    +0.000 C 
ATOM     23  O   UNL     1      47.526   3.264  14.917  0.00  0.00    +0.000 OA
ATOM     24  H   UNL     1      47.803   6.002  16.465  0.00  0.00    +0.000 HD
BRANCH  22  25
ATOM     25  C   UNL     1      47.215   5.420  14.018  0.00  0.00    +0.000 A 
ATOM     26  C   UNL     1      46.092   5.266  13.220  0.00  0.00    +0.000 A 
ATOM     27  S   UNL     1      45.919   6.489  12.039  0.00  0.00    +0.000 S 
ATOM     28  C   UNL     1      47.372   7.233  12.519  0.00  0.00    +0.000 A 
ATOM     29  N   UNL     1      47.833   8.343  11.884  0.00  0.00    +0.000 NA
ATOM     30  C   UNL     1      48.962   8.783  12.334  0.00  0.00    +0.000 A 
ATOM     31  N   UNL     1      49.667   8.217  13.364  0.00  0.00    +0.000 N 
ATOM     32  C   UNL     1      49.225   7.114  14.053  0.00  0.00    +0.000 A 
ATOM     33  O   UNL     1      49.860   6.658  15.001  0.00  0.00    +0.000 OA
ATOM     34  C   UNL     1      47.967   6.570  13.580  0.00  0.00    +0.000 A 
ATOM     35  H   UNL     1      50.540   8.614  13.675  0.00  0.00    +0.000 HD
ENDBRANCH  22  25
ENDBRANCH  20  21
ENDBRANCH   4  20
TORSDOF 7
ENDMDL
