MODEL 1
REMARK VINA RESULT:    -8.571      0.000      0.000
REMARK INTER + INTRA:         -12.539
REMARK INTER:                 -11.578
REMARK INTRA:                  -0.961
REMARK UNBOUND:                -0.961
REMARK  Name = 
REMARK  6 active torsions:
REMARK  status: ('A' for Active; 'I' for Inactive)
REMARK    1  A    between atoms: C_2  and  C_19
REMARK    2  A    between atoms: N_3  and  C_4
REMARK    3  A    between atoms: C_4  and  C_5
REMARK    4  A    between atoms: C_8  and  C_9
REMARK    5  A    between atoms: C_9  and  O_10
REMARK    6  A    between atoms: O_10  and  C_11
REMARK                            x       y       z     vdW  Elec       q    Type
REMARK                         _______ _______ _______ _____ _____    ______ ____
ROOT
ATOM      1  O   UNL     1      49.028   6.579  13.283  0.00  0.00    +0.000 OA
ATOM      2  C   UNL     1      48.398   6.755  14.321  0.00  0.00    +0.000 C 
ATOM      3  N   UNL     1      47.198   7.415  14.356  0.00  0.00    +0.000 N 
ATOM      4  H   UNL     1      46.803   7.697  15.249  0.00  0.00    +0.000 HD
ENDROOT
BRANCH   2   5
ATOM      5  C   UNL     1      48.880   6.224  15.595  0.00  0.00    +0.000 A 
ATOM      6  C   UNL     1      49.927   6.828  16.276  0.00  0.00    +0.000 A 
ATOM      7  S   UNL     1      50.289   6.069  17.762  0.00  0.00    +0.000 S 
ATOM      8  C   UNL     1      49.044   4.926  17.546  0.00  0.00    +0.000 A 
ATOM      9  N   UNL     1      48.783   3.976  18.480  0.00  0.00    +0.000 NA
ATOM     10  C   UNL     1      47.789   3.203  18.186  0.00  0.00    +0.000 A 
ATOM     11  N   UNL     1      47.040   3.283  17.046  0.00  0.00    +0.000 N 
ATOM     12  C   UNL     1      47.313   4.180  16.044  0.00  0.00    +0.000 A 
ATOM     13  O   UNL     1      46.711   4.128  14.975  0.00  0.00    +0.000 OA
ATOM     14  C   UNL     1      48.384   5.100  16.344  0.00  0.00    +0.000 A 
ATOM     15  H   UNL     1      46.301   2.620  16.851  0.00  0.00    +0.000 HD
ENDBRANCH   2   5
BRANCH   3  16
ATOM     16  C   UNL     1      46.619   7.990  13.172  0.00  0.00    +0.000 C 
BRANCH  16  17
ATOM     17  C   UNL     1      45.939   6.986  12.288  0.00  0.00    +0.000 A 
ATOM     18  C   UNL     1      46.402   6.722  10.998  0.00  0.00    +0.000 A 
ATOM     19  C   UNL     1      45.804   5.721  10.232  0.00  0.00    +0.000 A 
ATOM     20  C   UNL     1      44.729   5.012  10.764  0.00  0.00    +0.000 A 
ATOM     21  N   UNL     1      44.237   5.277  12.002  0.00  0.00    +0.000 NA
ATOM     22  C   UNL     1      44.846   6.248  12.725  0.00  0.00    +0.000 A 
BRANCH  20  23
ATOM     23  C   UNL     1      44.060   3.908   9.967  0.00  0.00    +0.000 C 
BRANCH  23  24
ATOM     24  O   UNL     1      44.344   4.062   8.573  0.00  0.00    +0.000 OA
BRANCH  24  25
ATOM     25  C   UNL     1      45.317   3.261   8.036  0.00  0.00    +0.000 A 
ATOM     26  C   UNL     1      46.260   3.634   7.075  0.00  0.00    +0.000 A 
ATOM     27  C   UNL     1      47.231   2.718   6.647  0.00  0.00    +0.000 A 
ATOM     28  C   UNL     1      47.266   1.428   7.175  0.00  0.00    +0.000 A 
ATOM     29  C   UNL     1      46.321   1.047   8.123  0.00  0.00    +0.000 A 
ATOM     30  C   UNL     1      45.347   1.958   8.542  0.00  0.00    +0.000 A 
ENDBRANCH  24  25
ENDBRANCH  23  24
ENDBRANCH  20  23
ENDBRANCH  16  17
ENDBRANCH   3  16
TORSDOF 6
ENDMDL
MODEL 2
REMARK VINA RESULT:    -8.193      1.904      2.366
REMARK INTER + INTRA:         -12.028
REMARK INTER:                 -11.266
REMARK INTRA:                  -0.762
REMARK UNBOUND:                -0.961
REMARK  Name = 
REMARK  6 active torsions:
REMARK  status: ('A' for Active; 'I' for Inactive)
REMARK    1  A    between atoms: C_2  and  C_19
REMARK    2  A    between atoms: N_3  and  C_4
REMARK    3  A    between atoms: C_4  and  C_5
REMARK    4  A    between atoms: C_8  and  C_9
REMARK    5  A    between atoms: C_9  and  O_10
REMARK    6  A    between atoms: O_10  and  C_11
REMARK                            x       y       z     vdW  Elec       q    Type
REMARK                         _______ _______ _______ _____ _____    ______ ____
ROOT
ATOM      1  O   UNL     1      50.138   6.627  15.527  0.00  0.00    +0.000 OA
ATOM      2  C   UNL     1      48.986   6.663  15.948  0.00  0.00    +0.000 C 
ATOM      3  N   UNL     1      47.895   6.506  15.135  0.00  0.00    +0.000 N 
ATOM      4  H   UNL     1      46.967   6.722  15.489  0.00  0.00    +0.000 HD
ENDROOT
BRANCH   2   5
ATOM      5  C   UNL     1      48.710   6.835  17.374  0.00  0.00    +0.000 A 
ATOM      6  C   UNL     1      48.275   8.051  17.880  0.00  0.00    +0.000 A 
ATOM      7  S   UNL     1      47.968   8.010  19.559  0.00  0.00    +0.000 S 
ATOM      8  C   UNL     1      48.389   6.361  19.652  0.00  0.00    +0.000 A 
ATOM      9  N   UNL     1      48.322   5.677  20.823  0.00  0.00    +0.000 NA
ATOM     10  C   UNL     1      48.644   4.428  20.725  0.00  0.00    +0.000 A 
ATOM     11  N   UNL     1      49.031   3.803  19.574  0.00  0.00    +0.000 N 
ATOM     12  C   UNL     1      49.180   4.471  18.385  0.00  0.00    +0.000 A 
ATOM     13  O   UNL     1      49.667   3.908  17.408  0.00  0.00    +0.000 OA
ATOM     14  C   UNL     1      48.788   5.859  18.428  0.00  0.00    +0.000 A 
ATOM     15  H   UNL     1      49.312   2.831  19.569  0.00  0.00    +0.000 HD
ENDBRANCH   2   5
BRANCH   3  16
ATOM     16  C   UNL     1      48.032   6.334  13.714  0.00  0.00    +0.000 C 
BRANCH  16  17
ATOM     17  C   UNL     1      46.901   5.571  13.089  0.00  0.00    +0.000 A 
ATOM     18  C   UNL     1      46.116   6.131  12.081  0.00  0.00    +0.000 A 
ATOM     19  C   UNL     1      45.129   5.368  11.458  0.00  0.00    +0.000 A 
ATOM     20  C   UNL     1      44.927   4.053  11.873  0.00  0.00    +0.000 A 
ATOM     21  N   UNL     1      45.653   3.498  12.878  0.00  0.00    +0.000 NA
ATOM     22  C   UNL     1      46.610   4.262  13.456  0.00  0.00    +0.000 A 
BRANCH  20  23
ATOM     23  C   UNL     1      43.871   3.187  11.212  0.00  0.00    +0.000 C 
BRANCH  23  24
ATOM     24  O   UNL     1      43.790   3.485   9.815  0.00  0.00    +0.000 OA
BRANCH  24  25
ATOM     25  C   UNL     1      44.795   3.014   9.011  0.00  0.00    +0.000 A 
ATOM     26  C   UNL     1      45.267   1.701   8.957  0.00  0.00    +0.000 A 
ATOM     27  C   UNL     1      46.276   1.351   8.049  0.00  0.00    +0.000 A 
ATOM     28  C   UNL     1      46.817   2.308   7.191  0.00  0.00    +0.000 A 
ATOM     29  C   UNL     1      46.360   3.621   7.249  0.00  0.00    +0.000 A 
ATOM     30  C   UNL     1      45.361   3.972   8.162  0.00  0.00    +0.000 A 
ENDBRANCH  24  25
ENDBRANCH  23  24
ENDBRANCH  20  23
ENDBRANCH  16  17
ENDBRANCH   3  16
TORSDOF 6
ENDMDL
MODEL 3
REMARK VINA RESULT:    -7.892      2.216      2.778
REMARK INTER + INTRA:         -11.621
REMARK INTER:                 -10.838
REMARK INTRA:                  -0.783
REMARK UNBOUND:                -0.961
REMARK  Name = 
REMARK  6 active torsions:
REMARK  status: ('A' for Active; 'I' for Inactive)
REMARK    1  A    between atoms: C_2  and  C_19
REMARK    2  A    between atoms: N_3  and  C_4
REMARK    3  A    between atoms: C_4  and  C_5
REMARK    4  A    between atoms: C_8  and  C_9
REMARK    5  A    between atoms: C_9  and  O_10
REMARK    6  A    between atoms: O_10  and  C_11
REMARK                            x       y       z     vdW  Elec       q    Type
REMARK                         _______ _______ _______ _____ _____    ______ ____
ROOT
ATOM      1  O   UNL     1      50.051   6.764  15.596  0.00  0.00    +0.000 OA
ATOM      2  C   UNL     1      48.959   6.353  15.974  0.00  0.00    +0.000 C 
ATOM      3  N   UNL     1      47.890   6.206  15.130  0.00  0.00    +0.000 N 
ATOM      4  H   UNL     1      46.963   6.039  15.514  0.00  0.00    +0.000 HD
ENDROOT
BRANCH   2   5
ATOM      5  C   UNL     1      48.746   5.949  17.363  0.00  0.00    +0.000 A 
ATOM      6  C   UNL     1      48.979   4.645  17.776  0.00  0.00    +0.000 A 
ATOM      7  S   UNL     1      48.712   4.411  19.447  0.00  0.00    +0.000 S 
ATOM      8  C   UNL     1      48.298   6.049  19.667  0.00  0.00    +0.000 A 
ATOM      9  N   UNL     1      47.979   6.542  20.891  0.00  0.00    +0.000 NA
ATOM     10  C   UNL     1      47.718   7.808  20.901  0.00  0.00    +0.000 A 
ATOM     11  N   UNL     1      47.740   8.625  19.805  0.00  0.00    +0.000 N 
ATOM     12  C   UNL     1      47.987   8.156  18.540  0.00  0.00    +0.000 A 
ATOM     13  O   UNL     1      47.856   8.890  17.564  0.00  0.00    +0.000 OA
ATOM     14  C   UNL     1      48.332   6.756  18.480  0.00  0.00    +0.000 A 
ATOM     15  H   UNL     1      47.484   9.602  19.869  0.00  0.00    +0.000 HD
ENDBRANCH   2   5
BRANCH   3  16
ATOM     16  C   UNL     1      47.969   6.573  13.743  0.00  0.00    +0.000 C 
BRANCH  16  17
ATOM     17  C   UNL     1      46.926   5.917  12.887  0.00  0.00    +0.000 A 
ATOM     18  C   UNL     1      46.616   6.405  11.616  0.00  0.00    +0.000 A 
ATOM     19  C   UNL     1      45.705   5.724  10.809  0.00  0.00    +0.000 A 
ATOM     20  C   UNL     1      45.098   4.569  11.299  0.00  0.00    +0.000 A 
ATOM     21  N   UNL     1      45.355   4.097  12.546  0.00  0.00    +0.000 NA
ATOM     22  C   UNL     1      46.251   4.775  13.302  0.00  0.00    +0.000 A 
BRANCH  20  23
ATOM     23  C   UNL     1      44.111   3.793  10.446  0.00  0.00    +0.000 C 
BRANCH  23  24
ATOM     24  O   UNL     1      44.378   4.012   9.058  0.00  0.00    +0.000 OA
BRANCH  24  25
ATOM     25  C   UNL     1      45.315   3.210   8.462  0.00  0.00    +0.000 A 
ATOM     26  C   UNL     1      45.491   1.841   8.675  0.00  0.00    +0.000 A 
ATOM     27  C   UNL     1      46.467   1.135   7.959  0.00  0.00    +0.000 A 
ATOM     28  C   UNL     1      47.270   1.790   7.026  0.00  0.00    +0.000 A 
ATOM     29  C   UNL     1      47.108   3.156   6.818  0.00  0.00    +0.000 A 
ATOM     30  C   UNL     1      46.142   3.862   7.541  0.00  0.00    +0.000 A 
ENDBRANCH  24  25
ENDBRANCH  23  24
ENDBRANCH  20  23
ENDBRANCH  16  17
ENDBRANCH   3  16
TORSDOF 6
ENDMDL
MODEL 4
REMARK VINA RESULT:    -7.766      1.986      3.418
REMARK INTER + INTRA:         -11.452
REMARK INTER:                 -10.443
REMARK INTRA:                  -1.009
REMARK UNBOUND:                -0.961
REMARK  Name = 
REMARK  6 active torsions:
REMARK  status: ('A' for Active; 'I' for Inactive)
REMARK    1  A    between atoms: C_2  and  C_19
REMARK    2  A    between atoms: N_3  and  C_4
REMARK    3  A    between atoms: C_4  and  C_5
REMARK    4  A    between atoms: C_8  and  C_9
REMARK    5  A    between atoms: C_9  and  O_10
REMARK    6  A    between atoms: O_10  and  C_11
REMARK                            x       y       z     vdW  Elec       q    Type
REMARK                         _______ _______ _______ _____ _____    ______ ____
ROOT
ATOM      1  O   UNL     1      48.877   4.513  16.662  0.00  0.00    +0.000 OA
ATOM      2  C   UNL     1      48.512   5.523  16.070  0.00  0.00    +0.000 C 
ATOM      3  N   UNL     1      47.498   5.517  15.149  0.00  0.00    +0.000 N 
ATOM      4  H   UNL     1      47.351   6.328  14.555  0.00  0.00    +0.000 HD
ENDROOT
BRANCH   2   5
ATOM      5  C   UNL     1      49.122   6.823  16.351  0.00  0.00    +0.000 A 
ATOM      6  C   UNL     1      49.191   7.320  17.644  0.00  0.00    +0.000 A 
ATOM      7  S   UNL     1      49.986   8.828  17.743  0.00  0.00    +0.000 S 
ATOM      8  C   UNL     1      50.277   8.847  16.064  0.00  0.00    +0.000 A 
ATOM      9  N   UNL     1      50.953   9.866  15.473  0.00  0.00    +0.000 NA
ATOM     10  C   UNL     1      51.120   9.722  14.199  0.00  0.00    +0.000 A 
ATOM     11  N   UNL     1      50.670   8.663  13.461  0.00  0.00    +0.000 N 
ATOM     12  C   UNL     1      49.923   7.649  14.004  0.00  0.00    +0.000 A 
ATOM     13  O   UNL     1      49.415   6.792  13.286  0.00  0.00    +0.000 OA
ATOM     14  C   UNL     1      49.748   7.737  15.433  0.00  0.00    +0.000 A 
ATOM     15  H   UNL     1      50.794   8.628  12.457  0.00  0.00    +0.000 HD
ENDBRANCH   2   5
BRANCH   3  16
ATOM     16  C   UNL     1      46.821   4.303  14.781  0.00  0.00    +0.000 C 
BRANCH  16  17
ATOM     17  C   UNL     1      46.135   4.378  13.449  0.00  0.00    +0.000 A 
ATOM     18  C   UNL     1      46.075   5.571  12.728  0.00  0.00    +0.000 A 
ATOM     19  C   UNL     1      45.507   5.591  11.454  0.00  0.00    +0.000 A 
ATOM     20  C   UNL     1      44.985   4.411  10.928  0.00  0.00    +0.000 A 
ATOM     21  N   UNL     1      44.999   3.246  11.625  0.00  0.00    +0.000 NA
ATOM     22  C   UNL     1      45.565   3.258  12.856  0.00  0.00    +0.000 A 
BRANCH  20  23
ATOM     23  C   UNL     1      44.370   4.389   9.540  0.00  0.00    +0.000 C 
BRANCH  23  24
ATOM     24  O   UNL     1      44.382   3.058   9.015  0.00  0.00    +0.000 OA
BRANCH  24  25
ATOM     25  C   UNL     1      45.435   2.707   8.210  0.00  0.00    +0.000 A 
ATOM     26  C   UNL     1      46.106   3.541   7.314  0.00  0.00    +0.000 A 
ATOM     27  C   UNL     1      47.201   3.057   6.584  0.00  0.00    +0.000 A 
ATOM     28  C   UNL     1      47.630   1.740   6.746  0.00  0.00    +0.000 A 
ATOM     29  C   UNL     1      46.956   0.900   7.628  0.00  0.00    +0.000 A 
ATOM     30  C   UNL     1      45.859   1.381   8.348  0.00  0.00    +0.000 A 
ENDBRANCH  24  25
ENDBRANCH  23  24
ENDBRANCH  20  23
ENDBRANCH  16  17
ENDBRANCH   3  16
TORSDOF 6
ENDMDL
MODEL 5
REMARK VINA RESULT:    -7.532      1.876      2.703
REMARK INTER + INTRA:         -11.136
REMARK INTER:                 -10.374
REMARK INTRA:                  -0.762
REMARK UNBOUND:                -0.961
REMARK  Name = 
REMARK  6 active torsions:
REMARK  status: ('A' for Active; 'I' for Inactive)
REMARK    1  A    between atoms: C_2  and  C_19
REMARK    2  A    between atoms: N_3  and  C_4
REMARK    3  A    between atoms: C_4  and  C_5
REMARK    4  A    between atoms: C_8  and  C_9
REMARK    5  A    between atoms: C_9  and  O_10
REMARK    6  A    between atoms: O_10  and  C_11
REMARK                            x       y       z     vdW  Elec       q    Type
REMARK                         _______ _______ _______ _____ _____    ______ ____
ROOT
ATOM      1  O   UNL     1      49.086   8.187  15.573  0.00  0.00    +0.000 OA
ATOM      2  C   UNL     1      48.785   7.003  15.684  0.00  0.00    +0.000 C 
ATOM      3  N   UNL     1      48.099   6.318  14.716  0.00  0.00    +0.000 N 
ATOM      4  H   UNL     1      47.714   5.401  14.923  0.00  0.00    +0.000 HD
ENDROOT
BRANCH   2   5
ATOM      5  C   UNL     1      49.185   6.231  16.860  0.00  0.00    +0.000 A 
ATOM      6  C   UNL     1      48.243   5.721  17.741  0.00  0.00    +0.000 A 
ATOM      7  S   UNL     1      48.931   4.813  19.012  0.00  0.00    +0.000 S 
ATOM      8  C   UNL     1      50.506   5.060  18.409  0.00  0.00    +0.000 A 
ATOM      9  N   UNL     1      51.592   4.519  19.020  0.00  0.00    +0.000 NA
ATOM     10  C   UNL     1      52.713   4.770  18.426  0.00  0.00    +0.000 A 
ATOM     11  N   UNL     1      52.851   5.514  17.288  0.00  0.00    +0.000 N 
ATOM     12  C   UNL     1      51.791   6.136  16.679  0.00  0.00    +0.000 A 
ATOM     13  O   UNL     1      51.974   6.912  15.744  0.00  0.00    +0.000 OA
ATOM     14  C   UNL     1      50.509   5.849  17.275  0.00  0.00    +0.000 A 
ATOM     15  H   UNL     1      53.762   5.712  16.893  0.00  0.00    +0.000 HD
ENDBRANCH   2   5
BRANCH   3  16
ATOM     16  C   UNL     1      47.644   6.965  13.515  0.00  0.00    +0.000 C 
BRANCH  16  17
ATOM     17  C   UNL     1      46.666   6.146  12.726  0.00  0.00    +0.000 A 
ATOM     18  C   UNL     1      46.111   6.624  11.537  0.00  0.00    +0.000 A 
ATOM     19  C   UNL     1      45.272   5.806  10.780  0.00  0.00    +0.000 A 
ATOM     20  C   UNL     1      44.981   4.523  11.239  0.00  0.00    +0.000 A 
ATOM     21  N   UNL     1      45.480   4.051  12.411  0.00  0.00    +0.000 NA
ATOM     22  C   UNL     1      46.299   4.865  13.119  0.00  0.00    +0.000 A 
BRANCH  20  23
ATOM     23  C   UNL     1      44.083   3.600  10.437  0.00  0.00    +0.000 C 
BRANCH  23  24
ATOM     24  O   UNL     1      44.305   3.786   9.037  0.00  0.00    +0.000 OA
BRANCH  24  25
ATOM     25  C   UNL     1      45.277   3.023   8.445  0.00  0.00    +0.000 A 
ATOM     26  C   UNL     1      45.487   1.655   8.636  0.00  0.00    +0.000 A 
ATOM     27  C   UNL     1      46.497   0.991   7.926  0.00  0.00    +0.000 A 
ATOM     28  C   UNL     1      47.300   1.687   7.024  0.00  0.00    +0.000 A 
ATOM     29  C   UNL     1      47.105   3.052   6.839  0.00  0.00    +0.000 A 
ATOM     30  C   UNL     1      46.104   3.716   7.555  0.00  0.00    +0.000 A 
ENDBRANCH  24  25
ENDBRANCH  23  24
ENDBRANCH  20  23
ENDBRANCH  16  17
ENDBRANCH   3  16
TORSDOF 6
ENDMDL
MODEL 6
REMARK VINA RESULT:    -7.509      2.461      4.057
REMARK INTER + INTRA:         -11.105
REMARK INTER:                 -10.019
REMARK INTRA:                  -1.085
REMARK UNBOUND:                -0.961
REMARK  Name = 
REMARK  6 active torsions:
REMARK  status: ('A' for Active; 'I' for Inactive)
REMARK    1  A    between atoms: C_2  and  C_19
REMARK    2  A    between atoms: N_3  and  C_4
REMARK    3  A    between atoms: C_4  and  C_5
REMARK    4  A    between atoms: C_8  and  C_9
REMARK    5  A    between atoms: C_9  and  O_10
REMARK    6  A    between atoms: O_10  and  C_11
REMARK                            x       y       z     vdW  Elec       q    Type
REMARK                         _______ _______ _______ _____ _____    ______ ____
ROOT
ATOM      1  O   UNL     1      49.486   5.797  15.860  0.00  0.00    +0.000 OA
ATOM      2  C   UNL     1      48.874   6.663  15.245  0.00  0.00    +0.000 C 
ATOM      3  N   UNL     1      47.702   6.412  14.581  0.00  0.00    +0.000 N 
ATOM      4  H   UNL     1      47.327   7.105  13.939  0.00  0.00    +0.000 HD
ENDROOT
BRANCH   2   5
ATOM      5  C   UNL     1      49.345   8.047  15.220  0.00  0.00    +0.000 A 
ATOM      6  C   UNL     1      49.400   8.809  16.378  0.00  0.00    +0.000 A 
ATOM      7  S   UNL     1      50.027  10.377  16.124  0.00  0.00    +0.000 S 
ATOM      8  C   UNL     1      50.262  10.073  14.463  0.00  0.00    +0.000 A 
ATOM      9  N   UNL     1      50.805  11.008  13.641  0.00  0.00    +0.000 NA
ATOM     10  C   UNL     1      50.947  10.617  12.417  0.00  0.00    +0.000 A 
ATOM     11  N   UNL     1      50.593   9.388  11.936  0.00  0.00    +0.000 N 
ATOM     12  C   UNL     1      49.979   8.440  12.715  0.00  0.00    +0.000 A 
ATOM     13  O   UNL     1      49.546   7.404  12.215  0.00  0.00    +0.000 OA
ATOM     14  C   UNL     1      49.840   8.808  14.103  0.00  0.00    +0.000 A 
ATOM     15  H   UNL     1      50.690   9.155  10.956  0.00  0.00    +0.000 HD
ENDBRANCH   2   5
BRANCH   3  16
ATOM     16  C   UNL     1      47.136   5.091  14.525  0.00  0.00    +0.000 C 
BRANCH  16  17
ATOM     17  C   UNL     1      46.407   4.804  13.246  0.00  0.00    +0.000 A 
ATOM     18  C   UNL     1      45.924   3.527  12.956  0.00  0.00    +0.000 A 
ATOM     19  C   UNL     1      45.174   3.309  11.800  0.00  0.00    +0.000 A 
ATOM     20  C   UNL     1      44.937   4.375  10.935  0.00  0.00    +0.000 A 
ATOM     21  N   UNL     1      45.428   5.618  11.178  0.00  0.00    +0.000 NA
ATOM     22  C   UNL     1      46.144   5.800  12.313  0.00  0.00    +0.000 A 
BRANCH  20  23
ATOM     23  C   UNL     1      44.115   4.181   9.674  0.00  0.00    +0.000 C 
BRANCH  23  24
ATOM     24  O   UNL     1      44.305   2.860   9.159  0.00  0.00    +0.000 OA
BRANCH  24  25
ATOM     25  C   UNL     1      45.333   2.670   8.273  0.00  0.00    +0.000 A 
ATOM     26  C   UNL     1      45.784   3.584   7.319  0.00  0.00    +0.000 A 
ATOM     27  C   UNL     1      46.881   3.271   6.505  0.00  0.00    +0.000 A 
ATOM     28  C   UNL     1      47.533   2.045   6.640  0.00  0.00    +0.000 A 
ATOM     29  C   UNL     1      47.080   1.125   7.580  0.00  0.00    +0.000 A 
ATOM     30  C   UNL     1      45.979   1.434   8.385  0.00  0.00    +0.000 A 
ENDBRANCH  24  25
ENDBRANCH  23  24
ENDBRANCH  20  23
ENDBRANCH  16  17
ENDBRANCH   3  16
TORSDOF 6
ENDMDL
MODEL 7
REMARK VINA RESULT:    -7.259      2.551      3.283
REMARK INTER + INTRA:         -10.766
REMARK INTER:                 -10.082
REMARK INTRA:                  -0.684
REMARK UNBOUND:                -0.961
REMARK  Name = 
REMARK  6 active torsions:
REMARK  status: ('A' for Active; 'I' for Inactive)
REMARK    1  A    between atoms: C_2  and  C_19
REMARK    2  A    between atoms: N_3  and  C_4
REMARK    3  A    between atoms: C_4  and  C_5
REMARK    4  A    between atoms: C_8  and  C_9
REMARK    5  A    between atoms: C_9  and  O_10
REMARK    6  A    between atoms: O_10  and  C_11
REMARK                            x       y       z     vdW  Elec       q    Type
REMARK                         _______ _______ _______ _____ _____    ______ ____
ROOT
ATOM      1  O   UNL     1      48.572   5.033  16.997  0.00  0.00    +0.000 OA
ATOM      2  C   UNL     1      48.424   5.923  16.166  0.00  0.00    +0.000 C 
ATOM      3  N   UNL     1      47.660   5.765  15.039  0.00  0.00    +0.000 N 
ATOM      4  H   UNL     1      47.711   6.454  14.294  0.00  0.00    +0.000 HD
ENDROOT
BRANCH   2   5
ATOM      5  C   UNL     1      49.032   7.239  16.355  0.00  0.00    +0.000 A 
ATOM      6  C   UNL     1      49.955   7.742  15.450  0.00  0.00    +0.000 A 
ATOM      7  S   UNL     1      50.495   9.313  15.842  0.00  0.00    +0.000 S 
ATOM      8  C   UNL     1      49.494   9.373  17.220  0.00  0.00    +0.000 A 
ATOM      9  N   UNL     1      49.446  10.473  18.015  0.00  0.00    +0.000 NA
ATOM     10  C   UNL     1      48.618  10.377  19.003  0.00  0.00    +0.000 A 
ATOM     11  N   UNL     1      47.840   9.287  19.274  0.00  0.00    +0.000 N 
ATOM     12  C   UNL     1      47.908   8.130  18.540  0.00  0.00    +0.000 A 
ATOM     13  O   UNL     1      47.302   7.124  18.900  0.00  0.00    +0.000 OA
ATOM     14  C   UNL     1      48.784   8.201  17.396  0.00  0.00    +0.000 A 
ATOM     15  H   UNL     1      47.240   9.255  20.089  0.00  0.00    +0.000 HD
ENDBRANCH   2   5
BRANCH   3  16
ATOM     16  C   UNL     1      47.014   4.517  14.735  0.00  0.00    +0.000 C 
BRANCH  16  17
ATOM     17  C   UNL     1      46.268   4.528  13.434  0.00  0.00    +0.000 A 
ATOM     18  C   UNL     1      46.225   5.668  12.630  0.00  0.00    +0.000 A 
ATOM     19  C   UNL     1      45.598   5.622  11.385  0.00  0.00    +0.000 A 
ATOM     20  C   UNL     1      44.999   4.433  10.972  0.00  0.00    +0.000 A 
ATOM     21  N   UNL     1      44.995   3.322  11.753  0.00  0.00    +0.000 NA
ATOM     22  C   UNL     1      45.621   3.396  12.952  0.00  0.00    +0.000 A 
BRANCH  20  23
ATOM     23  C   UNL     1      44.317   4.340   9.619  0.00  0.00    +0.000 C 
BRANCH  23  24
ATOM     24  O   UNL     1      44.375   2.998   9.128  0.00  0.00    +0.000 OA
BRANCH  24  25
ATOM     25  C   UNL     1      45.433   2.666   8.322  0.00  0.00    +0.000 A 
ATOM     26  C   UNL     1      46.162   3.539   7.512  0.00  0.00    +0.000 A 
ATOM     27  C   UNL     1      47.255   3.066   6.771  0.00  0.00    +0.000 A 
ATOM     28  C   UNL     1      47.624   1.723   6.837  0.00  0.00    +0.000 A 
ATOM     29  C   UNL     1      46.894   0.847   7.633  0.00  0.00    +0.000 A 
ATOM     30  C   UNL     1      45.798   1.317   8.363  0.00  0.00    +0.000 A 
ENDBRANCH  24  25
ENDBRANCH  23  24
ENDBRANCH  20  23
ENDBRANCH  16  17
ENDBRANCH   3  16
TORSDOF 6
ENDMDL
MODEL 8
REMARK VINA RESULT:    -7.252      1.739      2.108
REMARK INTER + INTRA:         -10.757
REMARK INTER:                  -9.849
REMARK INTRA:                  -0.908
REMARK UNBOUND:                -0.961
REMARK  Name = 
REMARK  6 active torsions:
REMARK  status: ('A' for Active; 'I' for Inactive)
REMARK    1  A    between atoms: C_2  and  C_19
REMARK    2  A    between atoms: N_3  and  C_4
REMARK    3  A    between atoms: C_4  and  C_5
REMARK    4  A    between atoms: C_8  and  C_9
REMARK    5  A    between atoms: C_9  and  O_10
REMARK    6  A    between atoms: O_10  and  C_11
REMARK                            x       y       z     vdW  Elec       q    Type
REMARK                         _______ _______ _______ _____ _____    ______ ____
ROOT
ATOM      1  O   UNL     1      48.074   8.673  15.665  0.00  0.00    +0.000 OA
ATOM      2  C   UNL     1      48.737   7.880  15.006  0.00  0.00    +0.000 C 
ATOM      3  N   UNL     1      48.364   7.460  13.756  0.00  0.00    +0.000 N 
ATOM      4  H   UNL     1      48.840   6.672  13.325  0.00  0.00    +0.000 HD
ENDROOT
BRANCH   2   5
ATOM      5  C   UNL     1      50.009   7.361  15.508  0.00  0.00    +0.000 A 
ATOM      6  C   UNL     1      51.216   7.935  15.139  0.00  0.00    +0.000 A 
ATOM      7  S   UNL     1      52.566   7.199  15.882  0.00  0.00    +0.000 S 
ATOM      8  C   UNL     1      51.573   6.107  16.734  0.00  0.00    +0.000 A 
ATOM      9  N   UNL     1      52.095   5.195  17.593  0.00  0.00    +0.000 NA
ATOM     10  C   UNL     1      51.212   4.459  18.185  0.00  0.00    +0.000 A 
ATOM     11  N   UNL     1      49.861   4.543  17.994  0.00  0.00    +0.000 N 
ATOM     12  C   UNL     1      49.296   5.401  17.085  0.00  0.00    +0.000 A 
ATOM     13  O   UNL     1      48.094   5.348  16.838  0.00  0.00    +0.000 OA
ATOM     14  C   UNL     1      50.235   6.280  16.431  0.00  0.00    +0.000 A 
ATOM     15  H   UNL     1      49.222   3.909  18.456  0.00  0.00    +0.000 HD
ENDBRANCH   2   5
BRANCH   3  16
ATOM     16  C   UNL     1      47.133   7.893  13.152  0.00  0.00    +0.000 C 
BRANCH  16  17
ATOM     17  C   UNL     1      46.238   6.763  12.736  0.00  0.00    +0.000 A 
ATOM     18  C   UNL     1      45.147   6.974  11.892  0.00  0.00    +0.000 A 
ATOM     19  C   UNL     1      44.384   5.892  11.452  0.00  0.00    +0.000 A 
ATOM     20  C   UNL     1      44.715   4.610  11.885  0.00  0.00    +0.000 A 
ATOM     21  N   UNL     1      45.749   4.385  12.736  0.00  0.00    +0.000 NA
ATOM     22  C   UNL     1      46.476   5.454  13.138  0.00  0.00    +0.000 A 
BRANCH  20  23
ATOM     23  C   UNL     1      43.918   3.406  11.419  0.00  0.00    +0.000 C 
BRANCH  23  24
ATOM     24  O   UNL     1      43.608   3.527  10.027  0.00  0.00    +0.000 OA
BRANCH  24  25
ATOM     25  C   UNL     1      44.604   3.237   9.132  0.00  0.00    +0.000 A 
ATOM     26  C   UNL     1      45.266   4.148   8.306  0.00  0.00    +0.000 A 
ATOM     27  C   UNL     1      46.302   3.715   7.467  0.00  0.00    +0.000 A 
ATOM     28  C   UNL     1      46.682   2.373   7.449  0.00  0.00    +0.000 A 
ATOM     29  C   UNL     1      46.018   1.459   8.260  0.00  0.00    +0.000 A 
ATOM     30  C   UNL     1      44.978   1.890   9.089  0.00  0.00    +0.000 A 
ENDBRANCH  24  25
ENDBRANCH  23  24
ENDBRANCH  20  23
ENDBRANCH  16  17
ENDBRANCH   3  16
TORSDOF 6
ENDMDL
MODEL 9
REMARK VINA RESULT:    -7.230      2.180      2.640
REMARK INTER + INTRA:         -10.728
REMARK INTER:                  -9.850
REMARK INTRA:                  -0.878
REMARK UNBOUND:                -0.961
REMARK  Name = 
REMARK  6 active torsions:
REMARK  status: ('A' for Active; 'I' for Inactive)
REMARK    1  A    between atoms: C_2  and  C_19
REMARK    2  A    between atoms: N_3  and  C_4
REMARK    3  A    between atoms: C_4  and  C_5
REMARK    4  A    between atoms: C_8  and  C_9
REMARK    5  A    between atoms: C_9  and  O_10
REMARK    6  A    between atoms: O_10  and  C_11
REMARK                            x       y       z     vdW  Elec       q    Type
REMARK                         _______ _______ _______ _____ _____    ______ ____
ROOT
ATOM      1  O   UNL     1      48.061   6.217  17.484  0.00  0.00    +0.000 OA
ATOM      2  C   UNL     1      48.916   5.817  16.702  0.00  0.00    +0.000 C 
ATOM      3  N   UNL     1      48.825   5.998  15.346  0.00  0.00    +0.000 N 
ATOM      4  H   UNL     1      49.455   5.497  14.727  0.00  0.00    +0.000 HD
ENDROOT
BRANCH   2   5
ATOM      5  C   UNL     1      50.125   5.150  17.184  0.00  0.00    +0.000 A 
ATOM      6  C   UNL     1      51.159   5.868  17.766  0.00  0.00    +0.000 A 
ATOM      7  S   UNL     1      52.447   4.881  18.298  0.00  0.00    +0.000 S 
ATOM      8  C   UNL     1      51.649   3.466  17.785  0.00  0.00    +0.000 A 
ATOM      9  N   UNL     1      52.196   2.237  17.967  0.00  0.00    +0.000 NA
ATOM     10  C   UNL     1      51.456   1.261  17.553  0.00  0.00    +0.000 A 
ATOM     11  N   UNL     1      50.229   1.397  16.968  0.00  0.00    +0.000 N 
ATOM     12  C   UNL     1      49.670   2.621  16.701  0.00  0.00    +0.000 A 
ATOM     13  O   UNL     1      48.634   2.707  16.047  0.00  0.00    +0.000 OA
ATOM     14  C   UNL     1      50.434   3.744  17.188  0.00  0.00    +0.000 A 
ATOM     15  H   UNL     1      49.715   0.596  16.624  0.00  0.00    +0.000 HD
ENDBRANCH   2   5
BRANCH   3  16
ATOM     16  C   UNL     1      47.684   6.634  14.746  0.00  0.00    +0.000 C 
BRANCH  16  17
ATOM     17  C   UNL     1      46.872   5.719  13.878  0.00  0.00    +0.000 A 
ATOM     18  C   UNL     1      46.233   6.185  12.729  0.00  0.00    +0.000 A 
ATOM     19  C   UNL     1      45.558   5.294  11.894  0.00  0.00    +0.000 A 
ATOM     20  C   UNL     1      45.515   3.944  12.238  0.00  0.00    +0.000 A 
ATOM     21  N   UNL     1      46.099   3.474  13.371  0.00  0.00    +0.000 NA
ATOM     22  C   UNL     1      46.754   4.362  14.156  0.00  0.00    +0.000 A 
BRANCH  20  23
ATOM     23  C   UNL     1      44.802   2.942  11.349  0.00  0.00    +0.000 C 
BRANCH  23  24
ATOM     24  O   UNL     1      44.563   3.508  10.058  0.00  0.00    +0.000 OA
BRANCH  24  25
ATOM     25  C   UNL     1      45.371   3.097   9.030  0.00  0.00    +0.000 A 
ATOM     26  C   UNL     1      45.729   1.780   8.733  0.00  0.00    +0.000 A 
ATOM     27  C   UNL     1      46.530   1.501   7.618  0.00  0.00    +0.000 A 
ATOM     28  C   UNL     1      46.978   2.534   6.794  0.00  0.00    +0.000 A 
ATOM     29  C   UNL     1      46.636   3.849   7.092  0.00  0.00    +0.000 A 
ATOM     30  C   UNL     1      45.845   4.128   8.211  0.00  0.00    +0.000 A 
ENDBRANCH  24  25
ENDBRANCH  23  24
ENDBRANCH  20  23
ENDBRANCH  16  17
ENDBRANCH   3  16
TORSDOF 6
ENDMDL
