MODEL 1
REMARK VINA RESULT:    -6.939      0.000      0.000
REMARK INTER + INTRA:         -11.414
REMARK INTER:                 -10.184
REMARK INTRA:                  -1.230
REMARK UNBOUND:                -1.230
REMARK  Name = 
REMARK  11 active torsions:
REMARK  status: ('A' for Active; 'I' for Inactive)
REMARK    1  A    between atoms: C_1  and  C_2
REMARK    2  A    between atoms: C_2  and  N_3
REMARK    3  A    between atoms: C_2  and  C_21
REMARK    4  A    between atoms: N_3  and  C_4
REMARK    5  A    between atoms: C_4  and  C_5
REMARK    6  A    between atoms: C_8  and  C_9
REMARK    7  A    between atoms: C_9  and  N_10
REMARK    8  A    between atoms: N_10  and  C_11
REMARK    9  A    between atoms: C_11  and  C_12
REMARK   10  A    between atoms: C_11  and  C_13
REMARK   11  A    between atoms: C_11  and  C_14
REMARK                            x       y       z     vdW  Elec       q    Type
REMARK                         _______ _______ _______ _____ _____    ______ ____
ROOT
ATOM      1  C   UNL     1      48.925   7.910  13.380  0.00  0.00    +0.000 A 
ATOM      2  C   UNL     1      47.884   8.679  13.917  0.00  0.00    +0.000 A 
ATOM      3  C   UNL     1      46.600   8.610  13.374  0.00  0.00    +0.000 A 
ATOM      4  C   UNL     1      46.331   7.769  12.286  0.00  0.00    +0.000 A 
ATOM      5  C   UNL     1      47.376   7.020  11.732  0.00  0.00    +0.000 A 
ATOM      6  C   UNL     1      48.657   7.084  12.278  0.00  0.00    +0.000 A 
ENDROOT
BRANCH   1   7
ATOM      7  C   UNL     1      50.327   7.992  13.934  0.00  0.00    +0.000 C 
BRANCH   7   8
ATOM      8  N   UNL     1      50.557   7.028  15.016  0.00  0.00    +0.000 NA
ATOM      9  H   UNL     1      50.251   6.113  14.695  0.00  0.00    +0.000 HD
BRANCH   8  11
ATOM     10  C   UNL     1      50.312   8.636  16.914  0.00  0.00    +0.000 C 
ATOM     11  C   UNL     1      49.783   7.373  16.218  0.00  0.00    +0.000 C 
BRANCH  11  12
ATOM     12  C   UNL     1      49.829   6.211  17.194  0.00  0.00    +0.000 A 
ATOM     13  C   UNL     1      50.622   6.128  18.329  0.00  0.00    +0.000 A 
ATOM     14  S   UNL     1      50.315   4.730  19.265  0.00  0.00    +0.000 S 
ATOM     15  C   UNL     1      49.093   4.208  18.200  0.00  0.00    +0.000 A 
ATOM     16  N   UNL     1      48.356   3.093  18.451  0.00  0.00    +0.000 NA
ATOM     17  C   UNL     1      47.448   2.848  17.565  0.00  0.00    +0.000 A 
ATOM     18  N   UNL     1      47.224   3.599  16.438  0.00  0.00    +0.000 N 
ATOM     19  C   UNL     1      47.959   4.718  16.126  0.00  0.00    +0.000 A 
ATOM     20  O   UNL     1      47.760   5.348  15.094  0.00  0.00    +0.000 OA
ATOM     21  C   UNL     1      48.962   5.059  17.119  0.00  0.00    +0.000 A 
ATOM     22  H   UNL     1      46.510   3.339  15.774  0.00  0.00    +0.000 HD
ENDBRANCH  11  12
ENDBRANCH   8  11
ENDBRANCH   7   8
ENDBRANCH   1   7
BRANCH   4  23
ATOM     23  C   UNL     1      44.936   7.666  11.718  0.00  0.00    +0.000 C 
BRANCH  23  24
ATOM     24  N   UNL     1      44.816   6.523  10.816  0.00  0.00    +0.000 NA
ATOM     25  H   UNL     1      45.753   6.242  10.528  0.00  0.00    +0.000 HD
BRANCH  24  26
ATOM     26  C   UNL     1      44.107   5.340  11.358  0.00  0.00    +0.000 C 
ATOM     27  C   UNL     1      44.628   5.018  12.778  0.00  0.00    +0.000 C 
ATOM     28  C   UNL     1      42.586   5.599  11.412  0.00  0.00    +0.000 C 
BRANCH  26  29
ATOM     29  C   UNL     1      44.352   4.167  10.399  0.00  0.00    +0.000 A 
ATOM     30  C   UNL     1      44.018   2.829  10.552  0.00  0.00    +0.000 A 
ATOM     31  N   UNL     1      44.378   1.979   9.522  0.00  0.00    +0.000 NA
ATOM     32  C   UNL     1      45.009   2.666   8.599  0.00  0.00    +0.000 A 
ATOM     33  S   UNL     1      45.215   4.333   8.910  0.00  0.00    +0.000 S 
ENDBRANCH  26  29
ENDBRANCH  24  26
ENDBRANCH  23  24
ENDBRANCH   4  23
TORSDOF 8
ENDMDL
MODEL 2
REMARK VINA RESULT:    -6.901      3.088      3.835
REMARK INTER + INTRA:         -11.358
REMARK INTER:                 -10.518
REMARK INTRA:                  -0.841
REMARK UNBOUND:                -1.230
REMARK  Name = 
REMARK  11 active torsions:
REMARK  status: ('A' for Active; 'I' for Inactive)
REMARK    1  A    between atoms: C_1  and  C_2
REMARK    2  A    between atoms: C_2  and  N_3
REMARK    3  A    between atoms: C_2  and  C_21
REMARK    4  A    between atoms: N_3  and  C_4
REMARK    5  A    between atoms: C_4  and  C_5
REMARK    6  A    between atoms: C_8  and  C_9
REMARK    7  A    between atoms: C_9  and  N_10
REMARK    8  A    between atoms: N_10  and  C_11
REMARK    9  A    between atoms: C_11  and  C_12
REMARK   10  A    between atoms: C_11  and  C_13
REMARK   11  A    between atoms: C_11  and  C_14
REMARK                            x       y       z     vdW  Elec       q    Type
REMARK                         _______ _______ _______ _____ _____    ______ ____
ROOT
ATOM      1  C   UNL     1      48.314   5.706  15.769  0.00  0.00    +0.000 A 
ATOM      2  C   UNL     1      47.434   4.627  15.609  0.00  0.00    +0.000 A 
ATOM      3  C   UNL     1      46.632   4.530  14.471  0.00  0.00    +0.000 A 
ATOM      4  C   UNL     1      46.696   5.508  13.469  0.00  0.00    +0.000 A 
ATOM      5  C   UNL     1      47.555   6.600  13.640  0.00  0.00    +0.000 A 
ATOM      6  C   UNL     1      48.361   6.694  14.774  0.00  0.00    +0.000 A 
ENDROOT
BRANCH   1   7
ATOM      7  C   UNL     1      49.168   5.846  17.006  0.00  0.00    +0.000 C 
BRANCH   7   8
ATOM      8  N   UNL     1      50.315   4.932  16.997  0.00  0.00    +0.000 NA
ATOM      9  H   UNL     1      50.199   4.286  16.220  0.00  0.00    +0.000 HD
BRANCH   8  11
ATOM     10  C   UNL     1      49.879   4.927  19.458  0.00  0.00    +0.000 C 
ATOM     11  C   UNL     1      50.389   4.146  18.238  0.00  0.00    +0.000 C 
BRANCH  11  12
ATOM     12  C   UNL     1      51.829   3.728  18.481  0.00  0.00    +0.000 A 
ATOM     13  C   UNL     1      52.785   4.456  19.175  0.00  0.00    +0.000 A 
ATOM     14  S   UNL     1      54.262   3.617  19.367  0.00  0.00    +0.000 S 
ATOM     15  C   UNL     1      53.661   2.245  18.555  0.00  0.00    +0.000 A 
ATOM     16  N   UNL     1      54.402   1.111  18.426  0.00  0.00    +0.000 NA
ATOM     17  C   UNL     1      53.794   0.149  17.813  0.00  0.00    +0.000 A 
ATOM     18  N   UNL     1      52.526   0.224  17.293  0.00  0.00    +0.000 N 
ATOM     19  C   UNL     1      51.749   1.355  17.374  0.00  0.00    +0.000 A 
ATOM     20  O   UNL     1      50.633   1.404  16.869  0.00  0.00    +0.000 OA
ATOM     21  C   UNL     1      52.373   2.448  18.098  0.00  0.00    +0.000 A 
ATOM     22  H   UNL     1      52.117  -0.560  16.806  0.00  0.00    +0.000 HD
ENDBRANCH  11  12
ENDBRANCH   8  11
ENDBRANCH   7   8
ENDBRANCH   1   7
BRANCH   4  23
ATOM     23  C   UNL     1      45.855   5.389  12.221  0.00  0.00    +0.000 C 
BRANCH  23  24
ATOM     24  N   UNL     1      45.302   4.043  12.082  0.00  0.00    +0.000 NA
ATOM     25  H   UNL     1      44.934   3.754  12.989  0.00  0.00    +0.000 HD
BRANCH  24  26
ATOM     26  C   UNL     1      44.242   3.879  11.061  0.00  0.00    +0.000 C 
ATOM     27  C   UNL     1      43.344   2.673  11.420  0.00  0.00    +0.000 C 
ATOM     28  C   UNL     1      43.379   5.156  10.968  0.00  0.00    +0.000 C 
BRANCH  26  29
ATOM     29  C   UNL     1      44.928   3.674   9.703  0.00  0.00    +0.000 A 
ATOM     30  C   UNL     1      45.412   4.624   8.816  0.00  0.00    +0.000 A 
ATOM     31  N   UNL     1      45.976   4.150   7.645  0.00  0.00    +0.000 NA
ATOM     32  C   UNL     1      45.895   2.840   7.631  0.00  0.00    +0.000 A 
ATOM     33  S   UNL     1      45.145   2.116   8.984  0.00  0.00    +0.000 S 
ENDBRANCH  26  29
ENDBRANCH  24  26
ENDBRANCH  23  24
ENDBRANCH   4  23
TORSDOF 8
ENDMDL
MODEL 3
REMARK VINA RESULT:    -6.727      2.062      7.433
REMARK INTER + INTRA:         -11.103
REMARK INTER:                  -9.657
REMARK INTRA:                  -1.446
REMARK UNBOUND:                -1.230
REMARK  Name = 
REMARK  11 active torsions:
REMARK  status: ('A' for Active; 'I' for Inactive)
REMARK    1  A    between atoms: C_1  and  C_2
REMARK    2  A    between atoms: C_2  and  N_3
REMARK    3  A    between atoms: C_2  and  C_21
REMARK    4  A    between atoms: N_3  and  C_4
REMARK    5  A    between atoms: C_4  and  C_5
REMARK    6  A    between atoms: C_8  and  C_9
REMARK    7  A    between atoms: C_9  and  N_10
REMARK    8  A    between atoms: N_10  and  C_11
REMARK    9  A    between atoms: C_11  and  C_12
REMARK   10  A    between atoms: C_11  and  C_13
REMARK   11  A    between atoms: C_11  and  C_14
REMARK                            x       y       z     vdW  Elec       q    Type
REMARK                         _______ _______ _______ _____ _____    ______ ____
ROOT
ATOM      1  C   UNL     1      48.256   8.102  13.486  0.00  0.00    +0.000 A 
ATOM      2  C   UNL     1      48.371   9.251  14.279  0.00  0.00    +0.000 A 
ATOM      3  C   UNL     1      48.817   9.159  15.599  0.00  0.00    +0.000 A 
ATOM      4  C   UNL     1      49.159   7.917  16.150  0.00  0.00    +0.000 A 
ATOM      5  C   UNL     1      49.019   6.765  15.367  0.00  0.00    +0.000 A 
ATOM      6  C   UNL     1      48.579   6.858  14.047  0.00  0.00    +0.000 A 
ENDROOT
BRANCH   1   7
ATOM      7  C   UNL     1      47.748   8.177  12.066  0.00  0.00    +0.000 C 
BRANCH   7   8
ATOM      8  N   UNL     1      47.177   6.905  11.611  0.00  0.00    +0.000 NA
ATOM      9  H   UNL     1      47.602   6.668  10.719  0.00  0.00    +0.000 HD
BRANCH   8  11
ATOM     10  C   UNL     1      45.065   7.998  12.384  0.00  0.00    +0.000 C 
ATOM     11  C   UNL     1      45.722   7.007  11.411  0.00  0.00    +0.000 C 
BRANCH  11  12
ATOM     12  C   UNL     1      45.094   5.637  11.595  0.00  0.00    +0.000 A 
ATOM     13  C   UNL     1      44.421   5.192  12.723  0.00  0.00    +0.000 A 
ATOM     14  S   UNL     1      43.730   3.640  12.526  0.00  0.00    +0.000 S 
ATOM     15  C   UNL     1      44.281   3.529  10.919  0.00  0.00    +0.000 A 
ATOM     16  N   UNL     1      43.971   2.465  10.130  0.00  0.00    +0.000 NA
ATOM     17  C   UNL     1      44.437   2.543   8.927  0.00  0.00    +0.000 A 
ATOM     18  N   UNL     1      45.207   3.574   8.447  0.00  0.00    +0.000 N 
ATOM     19  C   UNL     1      45.570   4.656   9.212  0.00  0.00    +0.000 A 
ATOM     20  O   UNL     1      46.289   5.544   8.767  0.00  0.00    +0.000 OA
ATOM     21  C   UNL     1      45.028   4.634  10.559  0.00  0.00    +0.000 A 
ATOM     22  H   UNL     1      45.558   3.562   7.501  0.00  0.00    +0.000 HD
ENDBRANCH  11  12
ENDBRANCH   8  11
ENDBRANCH   7   8
ENDBRANCH   1   7
BRANCH   4  23
ATOM     23  C   UNL     1      49.673   7.817  17.566  0.00  0.00    +0.000 C 
BRANCH  23  24
ATOM     24  N   UNL     1      48.676   7.218  18.450  0.00  0.00    +0.000 NA
ATOM     25  H   UNL     1      47.819   7.074  17.914  0.00  0.00    +0.000 HD
BRANCH  24  26
ATOM     26  C   UNL     1      49.061   5.939  19.091  0.00  0.00    +0.000 C 
ATOM     27  C   UNL     1      50.601   5.824  19.155  0.00  0.00    +0.000 C 
ATOM     28  C   UNL     1      48.476   5.853  20.517  0.00  0.00    +0.000 C 
BRANCH  26  29
ATOM     29  C   UNL     1      48.454   4.798  18.262  0.00  0.00    +0.000 A 
ATOM     30  C   UNL     1      47.136   4.607  17.872  0.00  0.00    +0.000 A 
ATOM     31  N   UNL     1      46.867   3.469  17.134  0.00  0.00    +0.000 NA
ATOM     32  C   UNL     1      47.976   2.782  16.985  0.00  0.00    +0.000 A 
ATOM     33  S   UNL     1      49.373   3.440  17.717  0.00  0.00    +0.000 S 
ENDBRANCH  26  29
ENDBRANCH  24  26
ENDBRANCH  23  24
ENDBRANCH   4  23
TORSDOF 8
ENDMDL
MODEL 4
REMARK VINA RESULT:    -6.614      2.156      2.662
REMARK INTER + INTRA:         -10.937
REMARK INTER:                  -9.325
REMARK INTRA:                  -1.613
REMARK UNBOUND:                -1.230
REMARK  Name = 
REMARK  11 active torsions:
REMARK  status: ('A' for Active; 'I' for Inactive)
REMARK    1  A    between atoms: C_1  and  C_2
REMARK    2  A    between atoms: C_2  and  N_3
REMARK    3  A    between atoms: C_2  and  C_21
REMARK    4  A    between atoms: N_3  and  C_4
REMARK    5  A    between atoms: C_4  and  C_5
REMARK    6  A    between atoms: C_8  and  C_9
REMARK    7  A    between atoms: C_9  and  N_10
REMARK    8  A    between atoms: N_10  and  C_11
REMARK    9  A    between atoms: C_11  and  C_12
REMARK   10  A    between atoms: C_11  and  C_13
REMARK   11  A    between atoms: C_11  and  C_14
REMARK                            x       y       z     vdW  Elec       q    Type
REMARK                         _______ _______ _______ _____ _____    ______ ____
ROOT
ATOM      1  C   UNL     1      48.676   7.798  12.442  0.00  0.00    +0.000 A 
ATOM      2  C   UNL     1      48.688   6.493  12.951  0.00  0.00    +0.000 A 
ATOM      3  C   UNL     1      47.494   5.791  13.131  0.00  0.00    +0.000 A 
ATOM      4  C   UNL     1      46.267   6.381  12.802  0.00  0.00    +0.000 A 
ATOM      5  C   UNL     1      46.251   7.694  12.319  0.00  0.00    +0.000 A 
ATOM      6  C   UNL     1      47.444   8.393  12.134  0.00  0.00    +0.000 A 
ENDROOT
BRANCH   1   7
ATOM      7  C   UNL     1      49.953   8.584  12.268  0.00  0.00    +0.000 C 
BRANCH   7   8
ATOM      8  N   UNL     1      51.040   8.077  13.113  0.00  0.00    +0.000 NA
ATOM      9  H   UNL     1      50.873   7.089  13.284  0.00  0.00    +0.000 HD
BRANCH   8  11
ATOM     10  C   UNL     1      52.323   9.653  14.568  0.00  0.00    +0.000 C 
ATOM     11  C   UNL     1      51.079   8.765  14.412  0.00  0.00    +0.000 C 
BRANCH  11  12
ATOM     12  C   UNL     1      51.061   7.734  15.526  0.00  0.00    +0.000 A 
ATOM     13  C   UNL     1      52.112   6.903  15.888  0.00  0.00    +0.000 A 
ATOM     14  S   UNL     1      51.779   5.960  17.275  0.00  0.00    +0.000 S 
ATOM     15  C   UNL     1      50.234   6.654  17.453  0.00  0.00    +0.000 A 
ATOM     16  N   UNL     1      49.428   6.341  18.503  0.00  0.00    +0.000 NA
ATOM     17  C   UNL     1      48.302   6.974  18.514  0.00  0.00    +0.000 A 
ATOM     18  N   UNL     1      47.895   7.873  17.559  0.00  0.00    +0.000 N 
ATOM     19  C   UNL     1      48.661   8.203  16.467  0.00  0.00    +0.000 A 
ATOM     20  O   UNL     1      48.256   8.982  15.612  0.00  0.00    +0.000 OA
ATOM     21  C   UNL     1      49.957   7.550  16.438  0.00  0.00    +0.000 A 
ATOM     22  H   UNL     1      46.991   8.318  17.617  0.00  0.00    +0.000 HD
ENDBRANCH  11  12
ENDBRANCH   8  11
ENDBRANCH   7   8
ENDBRANCH   1   7
BRANCH   4  23
ATOM     23  C   UNL     1      44.976   5.614  12.964  0.00  0.00    +0.000 C 
BRANCH  23  24
ATOM     24  N   UNL     1      45.067   4.291  12.350  0.00  0.00    +0.000 NA
ATOM     25  H   UNL     1      45.015   3.591  13.091  0.00  0.00    +0.000 HD
BRANCH  24  26
ATOM     26  C   UNL     1      44.045   3.979  11.324  0.00  0.00    +0.000 C 
ATOM     27  C   UNL     1      43.306   2.672  11.695  0.00  0.00    +0.000 C 
ATOM     28  C   UNL     1      43.026   5.133  11.209  0.00  0.00    +0.000 C 
BRANCH  26  29
ATOM     29  C   UNL     1      44.762   3.846   9.974  0.00  0.00    +0.000 A 
ATOM     30  C   UNL     1      45.373   4.829   9.209  0.00  0.00    +0.000 A 
ATOM     31  N   UNL     1      45.935   4.423   8.012  0.00  0.00    +0.000 NA
ATOM     32  C   UNL     1      45.727   3.136   7.855  0.00  0.00    +0.000 A 
ATOM     33  S   UNL     1      44.854   2.357   9.100  0.00  0.00    +0.000 S 
ENDBRANCH  26  29
ENDBRANCH  24  26
ENDBRANCH  23  24
ENDBRANCH   4  23
TORSDOF 8
ENDMDL
MODEL 5
REMARK VINA RESULT:    -6.339      4.477      6.716
REMARK INTER + INTRA:         -10.533
REMARK INTER:                  -9.187
REMARK INTRA:                  -1.346
REMARK UNBOUND:                -1.230
REMARK  Name = 
REMARK  11 active torsions:
REMARK  status: ('A' for Active; 'I' for Inactive)
REMARK    1  A    between atoms: C_1  and  C_2
REMARK    2  A    between atoms: C_2  and  N_3
REMARK    3  A    between atoms: C_2  and  C_21
REMARK    4  A    between atoms: N_3  and  C_4
REMARK    5  A    between atoms: C_4  and  C_5
REMARK    6  A    between atoms: C_8  and  C_9
REMARK    7  A    between atoms: C_9  and  N_10
REMARK    8  A    between atoms: N_10  and  C_11
REMARK    9  A    between atoms: C_11  and  C_12
REMARK   10  A    between atoms: C_11  and  C_13
REMARK   11  A    between atoms: C_11  and  C_14
REMARK                            x       y       z     vdW  Elec       q    Type
REMARK                         _______ _______ _______ _____ _____    ______ ____
ROOT
ATOM      1  C   UNL     1      48.861   7.854  12.259  0.00  0.00    +0.000 A 
ATOM      2  C   UNL     1      47.629   8.376  11.841  0.00  0.00    +0.000 A 
ATOM      3  C   UNL     1      46.443   7.690  12.106  0.00  0.00    +0.000 A 
ATOM      4  C   UNL     1      46.464   6.470  12.795  0.00  0.00    +0.000 A 
ATOM      5  C   UNL     1      47.696   5.935  13.190  0.00  0.00    +0.000 A 
ATOM      6  C   UNL     1      48.881   6.623  12.931  0.00  0.00    +0.000 A 
ENDROOT
BRANCH   1   7
ATOM      7  C   UNL     1      50.158   8.566  11.958  0.00  0.00    +0.000 C 
BRANCH   7   8
ATOM      8  N   UNL     1      51.205   7.647  11.502  0.00  0.00    +0.000 NA
ATOM      9  H   UNL     1      51.332   6.933  12.215  0.00  0.00    +0.000 HD
BRANCH   8  11
ATOM     10  C   UNL     1      52.598   9.612  12.173  0.00  0.00    +0.000 C 
ATOM     11  C   UNL     1      52.489   8.341  11.317  0.00  0.00    +0.000 C 
BRANCH  11  12
ATOM     12  C   UNL     1      52.652   8.710   9.853  0.00  0.00    +0.000 A 
ATOM     13  C   UNL     1      52.526   9.982   9.313  0.00  0.00    +0.000 A 
ATOM     14  S   UNL     1      52.908  10.048   7.648  0.00  0.00    +0.000 S 
ATOM     15  C   UNL     1      53.282   8.387   7.604  0.00  0.00    +0.000 A 
ATOM     16  N   UNL     1      53.755   7.791   6.476  0.00  0.00    +0.000 NA
ATOM     17  C   UNL     1      54.021   6.534   6.612  0.00  0.00    +0.000 A 
ATOM     18  N   UNL     1      53.834   5.810   7.764  0.00  0.00    +0.000 N 
ATOM     19  C   UNL     1      53.334   6.359   8.920  0.00  0.00    +0.000 A 
ATOM     20  O   UNL     1      53.144   5.680   9.922  0.00  0.00    +0.000 OA
ATOM     21  C   UNL     1      53.065   7.783   8.827  0.00  0.00    +0.000 A 
ATOM     22  H   UNL     1      54.043   4.823   7.796  0.00  0.00    +0.000 HD
ENDBRANCH  11  12
ENDBRANCH   8  11
ENDBRANCH   7   8
ENDBRANCH   1   7
BRANCH   4  23
ATOM     23  C   UNL     1      45.180   5.741  13.112  0.00  0.00    +0.000 C 
BRANCH  23  24
ATOM     24  N   UNL     1      45.159   4.416  12.497  0.00  0.00    +0.000 NA
ATOM     25  H   UNL     1      45.052   3.722  13.236  0.00  0.00    +0.000 HD
BRANCH  24  26
ATOM     26  C   UNL     1      44.111   4.192  11.474  0.00  0.00    +0.000 C 
ATOM     27  C   UNL     1      43.349   2.882  11.778  0.00  0.00    +0.000 C 
ATOM     28  C   UNL     1      43.118   5.374  11.450  0.00  0.00    +0.000 C 
BRANCH  26  29
ATOM     29  C   UNL     1      44.800   4.127  10.104  0.00  0.00    +0.000 A 
ATOM     30  C   UNL     1      45.496   5.118   9.428  0.00  0.00    +0.000 A 
ATOM     31  N   UNL     1      46.005   4.783   8.186  0.00  0.00    +0.000 NA
ATOM     32  C   UNL     1      45.672   3.544   7.908  0.00  0.00    +0.000 A 
ATOM     33  S   UNL     1      44.740   2.731   9.086  0.00  0.00    +0.000 S 
ENDBRANCH  26  29
ENDBRANCH  24  26
ENDBRANCH  23  24
ENDBRANCH   4  23
TORSDOF 8
ENDMDL
MODEL 6
REMARK VINA RESULT:    -6.255      2.314      8.320
REMARK INTER + INTRA:         -10.411
REMARK INTER:                  -9.333
REMARK INTRA:                  -1.077
REMARK UNBOUND:                -1.230
REMARK  Name = 
REMARK  11 active torsions:
REMARK  status: ('A' for Active; 'I' for Inactive)
REMARK    1  A    between atoms: C_1  and  C_2
REMARK    2  A    between atoms: C_2  and  N_3
REMARK    3  A    between atoms: C_2  and  C_21
REMARK    4  A    between atoms: N_3  and  C_4
REMARK    5  A    between atoms: C_4  and  C_5
REMARK    6  A    between atoms: C_8  and  C_9
REMARK    7  A    between atoms: C_9  and  N_10
REMARK    8  A    between atoms: N_10  and  C_11
REMARK    9  A    between atoms: C_11  and  C_12
REMARK   10  A    between atoms: C_11  and  C_13
REMARK   11  A    between atoms: C_11  and  C_14
REMARK                            x       y       z     vdW  Elec       q    Type
REMARK                         _______ _______ _______ _____ _____    ______ ____
ROOT
ATOM      1  C   UNL     1      47.618   6.196  13.786  0.00  0.00    +0.000 A 
ATOM      2  C   UNL     1      47.515   5.224  14.789  0.00  0.00    +0.000 A 
ATOM      3  C   UNL     1      48.255   5.340  15.967  0.00  0.00    +0.000 A 
ATOM      4  C   UNL     1      49.110   6.432  16.165  0.00  0.00    +0.000 A 
ATOM      5  C   UNL     1      49.234   7.391  15.152  0.00  0.00    +0.000 A 
ATOM      6  C   UNL     1      48.490   7.277  13.978  0.00  0.00    +0.000 A 
ENDROOT
BRANCH   1   7
ATOM      7  C   UNL     1      46.848   6.073  12.492  0.00  0.00    +0.000 C 
BRANCH   7   8
ATOM      8  N   UNL     1      45.581   6.810  12.526  0.00  0.00    +0.000 NA
ATOM      9  H   UNL     1      45.052   6.494  13.335  0.00  0.00    +0.000 HD
BRANCH   8  11
ATOM     10  C   UNL     1      43.462   7.350  11.314  0.00  0.00    +0.000 C 
ATOM     11  C   UNL     1      44.774   6.552  11.323  0.00  0.00    +0.000 C 
BRANCH  11  12
ATOM     12  C   UNL     1      44.456   5.069  11.243  0.00  0.00    +0.000 A 
ATOM     13  C   UNL     1      43.675   4.352  12.138  0.00  0.00    +0.000 A 
ATOM     14  S   UNL     1      43.422   2.730  11.661  0.00  0.00    +0.000 S 
ATOM     15  C   UNL     1      44.321   2.944  10.230  0.00  0.00    +0.000 A 
ATOM     16  N   UNL     1      44.445   1.949   9.309  0.00  0.00    +0.000 NA
ATOM     17  C   UNL     1      45.131   2.278   8.265  0.00  0.00    +0.000 A 
ATOM     18  N   UNL     1      45.727   3.498   8.066  0.00  0.00    +0.000 N 
ATOM     19  C   UNL     1      45.654   4.524   8.977  0.00  0.00    +0.000 A 
ATOM     20  O   UNL     1      46.226   5.592   8.789  0.00  0.00    +0.000 OA
ATOM     21  C   UNL     1      44.851   4.217  10.148  0.00  0.00    +0.000 A 
ATOM     22  H   UNL     1      46.268   3.682   7.235  0.00  0.00    +0.000 HD
ENDBRANCH  11  12
ENDBRANCH   8  11
ENDBRANCH   7   8
ENDBRANCH   1   7
BRANCH   4  23
ATOM     23  C   UNL     1      49.888   6.580  17.451  0.00  0.00    +0.000 C 
BRANCH  23  24
ATOM     24  N   UNL     1      51.039   5.680  17.479  0.00  0.00    +0.000 NA
ATOM     25  H   UNL     1      51.887   6.246  17.478  0.00  0.00    +0.000 HD
BRANCH  24  26
ATOM     26  C   UNL     1      51.096   4.734  18.618  0.00  0.00    +0.000 C 
ATOM     27  C   UNL     1      52.245   5.129  19.575  0.00  0.00    +0.000 C 
ATOM     28  C   UNL     1      49.758   4.736  19.389  0.00  0.00    +0.000 C 
BRANCH  26  29
ATOM     29  C   UNL     1      51.309   3.326  18.047  0.00  0.00    +0.000 A 
ATOM     30  C   UNL     1      50.396   2.487  17.425  0.00  0.00    +0.000 A 
ATOM     31  N   UNL     1      50.865   1.251  17.018  0.00  0.00    +0.000 NA
ATOM     32  C   UNL     1      52.130   1.142  17.355  0.00  0.00    +0.000 A 
ATOM     33  S   UNL     1      52.811   2.478  18.172  0.00  0.00    +0.000 S 
ENDBRANCH  26  29
ENDBRANCH  24  26
ENDBRANCH  23  24
ENDBRANCH   4  23
TORSDOF 8
ENDMDL
MODEL 7
REMARK VINA RESULT:    -6.253      1.943      2.675
REMARK INTER + INTRA:         -10.407
REMARK INTER:                  -8.989
REMARK INTRA:                  -1.419
REMARK UNBOUND:                -1.230
REMARK  Name = 
REMARK  11 active torsions:
REMARK  status: ('A' for Active; 'I' for Inactive)
REMARK    1  A    between atoms: C_1  and  C_2
REMARK    2  A    between atoms: C_2  and  N_3
REMARK    3  A    between atoms: C_2  and  C_21
REMARK    4  A    between atoms: N_3  and  C_4
REMARK    5  A    between atoms: C_4  and  C_5
REMARK    6  A    between atoms: C_8  and  C_9
REMARK    7  A    between atoms: C_9  and  N_10
REMARK    8  A    between atoms: N_10  and  C_11
REMARK    9  A    between atoms: C_11  and  C_12
REMARK   10  A    between atoms: C_11  and  C_13
REMARK   11  A    between atoms: C_11  and  C_14
REMARK                            x       y       z     vdW  Elec       q    Type
REMARK                         _______ _______ _______ _____ _____    ______ ____
ROOT
ATOM      1  C   UNL     1      48.844   7.849  16.294  0.00  0.00    +0.000 A 
ATOM      2  C   UNL     1      48.169   8.929  15.710  0.00  0.00    +0.000 A 
ATOM      3  C   UNL     1      47.684   8.839  14.404  0.00  0.00    +0.000 A 
ATOM      4  C   UNL     1      47.864   7.667  13.658  0.00  0.00    +0.000 A 
ATOM      5  C   UNL     1      48.561   6.597  14.230  0.00  0.00    +0.000 A 
ATOM      6  C   UNL     1      49.040   6.685  15.537  0.00  0.00    +0.000 A 
ENDROOT
BRANCH   1   7
ATOM      7  C   UNL     1      49.401   7.937  17.694  0.00  0.00    +0.000 C 
BRANCH   7   8
ATOM      8  N   UNL     1      48.435   7.497  18.707  0.00  0.00    +0.000 NA
ATOM      9  H   UNL     1      48.164   8.307  19.259  0.00  0.00    +0.000 HD
BRANCH   8  11
ATOM     10  C   UNL     1      50.021   7.123  20.603  0.00  0.00    +0.000 C 
ATOM     11  C   UNL     1      49.022   6.501  19.616  0.00  0.00    +0.000 C 
BRANCH  11  12
ATOM     12  C   UNL     1      49.729   5.433  18.799  0.00  0.00    +0.000 A 
ATOM     13  C   UNL     1      51.096   5.200  18.768  0.00  0.00    +0.000 A 
ATOM     14  S   UNL     1      51.525   3.830  17.840  0.00  0.00    +0.000 S 
ATOM     15  C   UNL     1      49.896   3.487  17.478  0.00  0.00    +0.000 A 
ATOM     16  N   UNL     1      49.540   2.384  16.765  0.00  0.00    +0.000 NA
ATOM     17  C   UNL     1      48.266   2.248  16.601  0.00  0.00    +0.000 A 
ATOM     18  N   UNL     1      47.315   3.125  17.060  0.00  0.00    +0.000 N 
ATOM     19  C   UNL     1      47.625   4.266  17.761  0.00  0.00    +0.000 A 
ATOM     20  O   UNL     1      46.757   5.049  18.127  0.00  0.00    +0.000 OA
ATOM     21  C   UNL     1      49.045   4.436  18.010  0.00  0.00    +0.000 A 
ATOM     22  H   UNL     1      46.335   2.970  16.879  0.00  0.00    +0.000 HD
ENDBRANCH  11  12
ENDBRANCH   8  11
ENDBRANCH   7   8
ENDBRANCH   1   7
BRANCH   4  23
ATOM     23  C   UNL     1      47.312   7.553  12.256  0.00  0.00    +0.000 C 
BRANCH  23  24
ATOM     24  N   UNL     1      46.829   6.201  11.986  0.00  0.00    +0.000 NA
ATOM     25  H   UNL     1      46.689   5.727  12.879  0.00  0.00    +0.000 HD
BRANCH  24  26
ATOM     26  C   UNL     1      45.584   6.103  11.191  0.00  0.00    +0.000 C 
ATOM     27  C   UNL     1      44.775   7.415  11.313  0.00  0.00    +0.000 C 
ATOM     28  C   UNL     1      45.910   5.834   9.706  0.00  0.00    +0.000 C 
BRANCH  26  29
ATOM     29  C   UNL     1      44.782   4.906  11.721  0.00  0.00    +0.000 A 
ATOM     30  C   UNL     1      44.632   4.465  13.028  0.00  0.00    +0.000 A 
ATOM     31  N   UNL     1      43.854   3.337  13.216  0.00  0.00    +0.000 NA
ATOM     32  C   UNL     1      43.435   2.906  12.049  0.00  0.00    +0.000 A 
ATOM     33  S   UNL     1      43.947   3.800  10.687  0.00  0.00    +0.000 S 
ENDBRANCH  26  29
ENDBRANCH  24  26
ENDBRANCH  23  24
ENDBRANCH   4  23
TORSDOF 8
ENDMDL
MODEL 8
REMARK VINA RESULT:    -5.788      2.428      8.606
REMARK INTER + INTRA:          -9.725
REMARK INTER:                  -8.795
REMARK INTRA:                  -0.930
REMARK UNBOUND:                -1.230
REMARK  Name = 
REMARK  11 active torsions:
REMARK  status: ('A' for Active; 'I' for Inactive)
REMARK    1  A    between atoms: C_1  and  C_2
REMARK    2  A    between atoms: C_2  and  N_3
REMARK    3  A    between atoms: C_2  and  C_21
REMARK    4  A    between atoms: N_3  and  C_4
REMARK    5  A    between atoms: C_4  and  C_5
REMARK    6  A    between atoms: C_8  and  C_9
REMARK    7  A    between atoms: C_9  and  N_10
REMARK    8  A    between atoms: N_10  and  C_11
REMARK    9  A    between atoms: C_11  and  C_12
REMARK   10  A    between atoms: C_11  and  C_13
REMARK   11  A    between atoms: C_11  and  C_14
REMARK                            x       y       z     vdW  Elec       q    Type
REMARK                         _______ _______ _______ _____ _____    ______ ____
ROOT
ATOM      1  C   UNL     1      47.521   5.576  14.171  0.00  0.00    +0.000 A 
ATOM      2  C   UNL     1      47.115   4.397  14.809  0.00  0.00    +0.000 A 
ATOM      3  C   UNL     1      47.489   4.141  16.130  0.00  0.00    +0.000 A 
ATOM      4  C   UNL     1      48.272   5.061  16.839  0.00  0.00    +0.000 A 
ATOM      5  C   UNL     1      48.701   6.228  16.194  0.00  0.00    +0.000 A 
ATOM      6  C   UNL     1      48.323   6.486  14.877  0.00  0.00    +0.000 A 
ENDROOT
BRANCH   1   7
ATOM      7  C   UNL     1      47.152   5.858  12.734  0.00  0.00    +0.000 C 
BRANCH   7   8
ATOM      8  N   UNL     1      46.150   6.922  12.615  0.00  0.00    +0.000 NA
ATOM      9  H   UNL     1      45.567   6.903  13.447  0.00  0.00    +0.000 HD
BRANCH   8  11
ATOM     10  C   UNL     1      44.085   7.678  11.426  0.00  0.00    +0.000 C 
ATOM     11  C   UNL     1      45.283   6.717  11.444  0.00  0.00    +0.000 C 
BRANCH  11  12
ATOM     12  C   UNL     1      44.775   5.286  11.442  0.00  0.00    +0.000 A 
ATOM     13  C   UNL     1      44.045   4.677  12.452  0.00  0.00    +0.000 A 
ATOM     14  S   UNL     1      43.527   3.098  12.051  0.00  0.00    +0.000 S 
ATOM     15  C   UNL     1      44.235   3.190  10.505  0.00  0.00    +0.000 A 
ATOM     16  N   UNL     1      44.104   2.184   9.598  0.00  0.00    +0.000 NA
ATOM     17  C   UNL     1      44.672   2.418   8.462  0.00  0.00    +0.000 A 
ATOM     18  N   UNL     1      45.381   3.553   8.155  0.00  0.00    +0.000 N 
ATOM     19  C   UNL     1      45.565   4.584   9.044  0.00  0.00    +0.000 A 
ATOM     20  O   UNL     1      46.233   5.570   8.754  0.00  0.00    +0.000 OA
ATOM     21  C   UNL     1      44.903   4.386  10.321  0.00  0.00    +0.000 A 
ATOM     22  H   UNL     1      45.819   3.663   7.252  0.00  0.00    +0.000 HD
ENDBRANCH  11  12
ENDBRANCH   8  11
ENDBRANCH   7   8
ENDBRANCH   1   7
BRANCH   4  23
ATOM     23  C   UNL     1      48.651   4.804  18.278  0.00  0.00    +0.000 C 
BRANCH  23  24
ATOM     24  N   UNL     1      49.778   5.639  18.685  0.00  0.00    +0.000 NA
ATOM     25  H   UNL     1      49.584   6.006  19.617  0.00  0.00    +0.000 HD
BRANCH  24  26
ATOM     26  C   UNL     1      51.104   4.979  18.697  0.00  0.00    +0.000 C 
ATOM     27  C   UNL     1      51.550   4.717  20.154  0.00  0.00    +0.000 C 
ATOM     28  C   UNL     1      51.049   3.643  17.926  0.00  0.00    +0.000 C 
BRANCH  26  29
ATOM     29  C   UNL     1      52.094   5.902  17.973  0.00  0.00    +0.000 A 
ATOM     30  C   UNL     1      53.288   5.581  17.345  0.00  0.00    +0.000 A 
ATOM     31  N   UNL     1      53.993   6.629  16.780  0.00  0.00    +0.000 NA
ATOM     32  C   UNL     1      53.346   7.749  17.002  0.00  0.00    +0.000 A 
ATOM     33  S   UNL     1      51.894   7.618  17.892  0.00  0.00    +0.000 S 
ENDBRANCH  26  29
ENDBRANCH  24  26
ENDBRANCH  23  24
ENDBRANCH   4  23
TORSDOF 8
ENDMDL
MODEL 9
REMARK VINA RESULT:    -5.758      1.568      2.122
REMARK INTER + INTRA:          -9.681
REMARK INTER:                  -8.656
REMARK INTRA:                  -1.025
REMARK UNBOUND:                -1.230
REMARK  Name = 
REMARK  11 active torsions:
REMARK  status: ('A' for Active; 'I' for Inactive)
REMARK    1  A    between atoms: C_1  and  C_2
REMARK    2  A    between atoms: C_2  and  N_3
REMARK    3  A    between atoms: C_2  and  C_21
REMARK    4  A    between atoms: N_3  and  C_4
REMARK    5  A    between atoms: C_4  and  C_5
REMARK    6  A    between atoms: C_8  and  C_9
REMARK    7  A    between atoms: C_9  and  N_10
REMARK    8  A    between atoms: N_10  and  C_11
REMARK    9  A    between atoms: C_11  and  C_12
REMARK   10  A    between atoms: C_11  and  C_13
REMARK   11  A    between atoms: C_11  and  C_14
REMARK                            x       y       z     vdW  Elec       q    Type
REMARK                         _______ _______ _______ _____ _____    ______ ____
ROOT
ATOM      1  C   UNL     1      50.260   7.470  14.886  0.00  0.00    +0.000 A 
ATOM      2  C   UNL     1      49.126   6.676  15.102  0.00  0.00    +0.000 A 
ATOM      3  C   UNL     1      48.101   6.632  14.155  0.00  0.00    +0.000 A 
ATOM      4  C   UNL     1      48.193   7.377  12.973  0.00  0.00    +0.000 A 
ATOM      5  C   UNL     1      49.313   8.191  12.767  0.00  0.00    +0.000 A 
ATOM      6  C   UNL     1      50.339   8.231  13.711  0.00  0.00    +0.000 A 
ENDROOT
BRANCH   1   7
ATOM      7  C   UNL     1      51.366   7.554  15.911  0.00  0.00    +0.000 C 
BRANCH   7   8
ATOM      8  N   UNL     1      51.564   6.287  16.623  0.00  0.00    +0.000 NA
ATOM      9  H   UNL     1      50.858   5.630  16.301  0.00  0.00    +0.000 HD
BRANCH   8  11
ATOM     10  C   UNL     1      52.281   5.481  18.878  0.00  0.00    +0.000 C 
ATOM     11  C   UNL     1      51.404   6.454  18.076  0.00  0.00    +0.000 C 
BRANCH  11  12
ATOM     12  C   UNL     1      49.949   6.236  18.448  0.00  0.00    +0.000 A 
ATOM     13  C   UNL     1      49.130   7.141  19.108  0.00  0.00    +0.000 A 
ATOM     14  S   UNL     1      47.510   6.611  19.241  0.00  0.00    +0.000 S 
ATOM     15  C   UNL     1      47.845   5.171  18.396  0.00  0.00    +0.000 A 
ATOM     16  N   UNL     1      46.866   4.276  18.093  0.00  0.00    +0.000 NA
ATOM     17  C   UNL     1      47.274   3.251  17.422  0.00  0.00    +0.000 A 
ATOM     18  N   UNL     1      48.576   3.022  17.048  0.00  0.00    +0.000 N 
ATOM     19  C   UNL     1      49.604   3.880  17.354  0.00  0.00    +0.000 A 
ATOM     20  O   UNL     1      50.762   3.632  17.038  0.00  0.00    +0.000 OA
ATOM     21  C   UNL     1      49.183   5.073  18.068  0.00  0.00    +0.000 A 
ATOM     22  H   UNL     1      48.831   2.187  16.542  0.00  0.00    +0.000 HD
ENDBRANCH  11  12
ENDBRANCH   8  11
ENDBRANCH   7   8
ENDBRANCH   1   7
BRANCH   4  23
ATOM     23  C   UNL     1      47.102   7.306  11.930  0.00  0.00    +0.000 C 
BRANCH  23  24
ATOM     24  N   UNL     1      46.651   5.931  11.731  0.00  0.00    +0.000 NA
ATOM     25  H   UNL     1      47.114   5.339  12.420  0.00  0.00    +0.000 HD
BRANCH  24  26
ATOM     26  C   UNL     1      45.188   5.710  11.814  0.00  0.00    +0.000 C 
ATOM     27  C   UNL     1      44.793   5.336  13.262  0.00  0.00    +0.000 C 
ATOM     28  C   UNL     1      44.424   6.979  11.381  0.00  0.00    +0.000 C 
BRANCH  26  29
ATOM     29  C   UNL     1      44.828   4.585  10.834  0.00  0.00    +0.000 A 
ATOM     30  C   UNL     1      44.158   3.395  11.077  0.00  0.00    +0.000 A 
ATOM     31  N   UNL     1      43.983   2.549   9.997  0.00  0.00    +0.000 NA
ATOM     32  C   UNL     1      44.543   3.086   8.938  0.00  0.00    +0.000 A 
ATOM     33  S   UNL     1      45.307   4.595   9.172  0.00  0.00    +0.000 S 
ENDBRANCH  26  29
ENDBRANCH  24  26
ENDBRANCH  23  24
ENDBRANCH   4  23
TORSDOF 8
ENDMDL
