MODEL 1
REMARK VINA RESULT:    -7.937      0.000      0.000
REMARK INTER + INTRA:         -11.637
REMARK INTER:                 -10.952
REMARK INTRA:                  -0.685
REMARK UNBOUND:                -0.685
REMARK  Name = 
REMARK  8 active torsions:
REMARK  status: ('A' for Active; 'I' for Inactive)
REMARK    1  A    between atoms: C_1  and  O_2
REMARK    2  A    between atoms: O_2  and  C_3
REMARK    3  A    between atoms: C_6  and  C_7
REMARK    4  A    between atoms: C_7  and  O_8
REMARK    5  A    between atoms: C_7  and  C_9
REMARK    6  A    between atoms: C_9  and  O_10
REMARK    7  A    between atoms: O_10  and  C_11
REMARK    8  A    between atoms: C_14  and  C_15
REMARK                            x       y       z     vdW  Elec       q    Type
REMARK                         _______ _______ _______ _____ _____    ______ ____
ROOT
ATOM      1  C   UNL     1      43.332   4.751  11.041  0.00  0.00    +0.000 C 
ENDROOT
BRANCH   1   2
ATOM      2  C   UNL     1      43.739   4.815  12.524  0.00  0.00    +0.000 C 
BRANCH   2   6
ATOM      3  C   UNL     1      47.826   6.253  12.913  0.00  0.00    +0.000 A 
ATOM      4  C   UNL     1      47.012   6.704  11.876  0.00  0.00    +0.000 A 
ATOM      5  C   UNL     1      45.695   6.237  11.753  0.00  0.00    +0.000 A 
ATOM      6  C   UNL     1      45.169   5.314  12.669  0.00  0.00    +0.000 A 
ATOM      7  C   UNL     1      45.996   4.880  13.717  0.00  0.00    +0.000 A 
ATOM      8  C   UNL     1      47.310   5.343  13.833  0.00  0.00    +0.000 A 
BRANCH   3  10
ATOM      9  C   UNL     1      49.736   7.450  12.157  0.00  0.00    +0.000 C 
ATOM     10  O   UNL     1      49.126   6.615  13.135  0.00  0.00    +0.000 OA
ENDBRANCH   3  10
ENDBRANCH   2   6
BRANCH   2  11
ATOM     11  O   UNL     1      42.848   5.673  13.240  0.00  0.00    +0.000 OA
ATOM     12  H   UNL     1      42.431   5.163  13.952  0.00  0.00    +0.000 HD
ENDBRANCH   2  11
ENDBRANCH   1   2
BRANCH   1  13
ATOM     13  O   UNL     1      43.401   3.414  10.520  0.00  0.00    +0.000 OA
BRANCH  13  14
ATOM     14  C   UNL     1      44.352   3.230   9.555  0.00  0.00    +0.000 A 
ATOM     15  C   UNL     1      44.893   4.202   8.737  0.00  0.00    +0.000 A 
ATOM     16  N   UNL     1      45.840   3.980   7.807  0.00  0.00    +0.000 NA
ATOM     17  C   UNL     1      46.262   2.698   7.706  0.00  0.00    +0.000 A 
ATOM     18  N   UNL     1      45.810   1.661   8.439  0.00  0.00    +0.000 NA
ATOM     19  C   UNL     1      44.856   1.960   9.353  0.00  0.00    +0.000 A 
BRANCH  17  20
ATOM     20  C   UNL     1      47.335   2.451   6.670  0.00  0.00    +0.000 C 
ATOM     21  N   UNL     1      47.272   3.258   5.556  0.00  0.00    +0.000 N 
ATOM     22  O   UNL     1      48.216   1.604   6.778  0.00  0.00    +0.000 OA
ATOM     23  H   UNL     1      46.542   3.959   5.474  0.00  0.00    +0.000 HD
ATOM     24  H   UNL     1      47.963   3.142   4.833  0.00  0.00    +0.000 HD
ENDBRANCH  17  20
ENDBRANCH  13  14
ENDBRANCH   1  13
TORSDOF 7
ENDMDL
MODEL 2
REMARK VINA RESULT:    -7.088      3.252      6.421
REMARK INTER + INTRA:         -10.467
REMARK INTER:                  -9.871
REMARK INTRA:                  -0.596
REMARK UNBOUND:                -0.685
REMARK  Name = 
REMARK  8 active torsions:
REMARK  status: ('A' for Active; 'I' for Inactive)
REMARK    1  A    between atoms: C_1  and  O_2
REMARK    2  A    between atoms: O_2  and  C_3
REMARK    3  A    between atoms: C_6  and  C_7
REMARK    4  A    between atoms: C_7  and  O_8
REMARK    5  A    between atoms: C_7  and  C_9
REMARK    6  A    between atoms: C_9  and  O_10
REMARK    7  A    between atoms: O_10  and  C_11
REMARK    8  A    between atoms: C_14  and  C_15
REMARK                            x       y       z     vdW  Elec       q    Type
REMARK                         _______ _______ _______ _____ _____    ______ ____
ROOT
ATOM      1  C   UNL     1      44.084   3.654  12.586  0.00  0.00    +0.000 C 
ENDROOT
BRANCH   1   2
ATOM      2  C   UNL     1      43.396   3.082  11.335  0.00  0.00    +0.000 C 
BRANCH   2   6
ATOM      3  C   UNL     1      46.018   3.368   7.875  0.00  0.00    +0.000 A 
ATOM      4  C   UNL     1      45.562   4.518   8.517  0.00  0.00    +0.000 A 
ATOM      5  C   UNL     1      44.716   4.422   9.631  0.00  0.00    +0.000 A 
ATOM      6  C   UNL     1      44.314   3.172  10.125  0.00  0.00    +0.000 A 
ATOM      7  C   UNL     1      44.792   2.022   9.477  0.00  0.00    +0.000 A 
ATOM      8  C   UNL     1      45.631   2.122   8.363  0.00  0.00    +0.000 A 
BRANCH   3  10
ATOM      9  C   UNL     1      47.855   2.340   6.773  0.00  0.00    +0.000 C 
ATOM     10  O   UNL     1      46.828   3.324   6.775  0.00  0.00    +0.000 OA
ENDBRANCH   3  10
ENDBRANCH   2   6
BRANCH   2  11
ATOM     11  O   UNL     1      43.020   1.722  11.561  0.00  0.00    +0.000 OA
ATOM     12  H   UNL     1      42.651   1.646  12.455  0.00  0.00    +0.000 HD
ENDBRANCH   2  11
ENDBRANCH   1   2
BRANCH   1  13
ATOM     13  O   UNL     1      45.441   3.198  12.711  0.00  0.00    +0.000 OA
BRANCH  13  14
ATOM     14  C   UNL     1      46.275   4.071  13.354  0.00  0.00    +0.000 A 
ATOM     15  C   UNL     1      47.089   3.788  14.433  0.00  0.00    +0.000 A 
ATOM     16  N   UNL     1      47.907   4.676  15.029  0.00  0.00    +0.000 NA
ATOM     17  C   UNL     1      47.896   5.920  14.496  0.00  0.00    +0.000 A 
ATOM     18  N   UNL     1      47.144   6.322  13.452  0.00  0.00    +0.000 NA
ATOM     19  C   UNL     1      46.345   5.375  12.905  0.00  0.00    +0.000 A 
BRANCH  17  20
ATOM     20  C   UNL     1      48.824   6.913  15.157  0.00  0.00    +0.000 C 
ATOM     21  N   UNL     1      48.263   8.135  15.452  0.00  0.00    +0.000 N 
ATOM     22  O   UNL     1      49.999   6.684  15.430  0.00  0.00    +0.000 OA
ATOM     23  H   UNL     1      47.290   8.317  15.226  0.00  0.00    +0.000 HD
ATOM     24  H   UNL     1      48.832   8.837  15.896  0.00  0.00    +0.000 HD
ENDBRANCH  17  20
ENDBRANCH  13  14
ENDBRANCH   1  13
TORSDOF 7
ENDMDL
MODEL 3
REMARK VINA RESULT:    -7.083      2.813      5.754
REMARK INTER + INTRA:         -10.459
REMARK INTER:                  -9.703
REMARK INTRA:                  -0.756
REMARK UNBOUND:                -0.685
REMARK  Name = 
REMARK  8 active torsions:
REMARK  status: ('A' for Active; 'I' for Inactive)
REMARK    1  A    between atoms: C_1  and  O_2
REMARK    2  A    between atoms: O_2  and  C_3
REMARK    3  A    between atoms: C_6  and  C_7
REMARK    4  A    between atoms: C_7  and  O_8
REMARK    5  A    between atoms: C_7  and  C_9
REMARK    6  A    between atoms: C_9  and  O_10
REMARK    7  A    between atoms: O_10  and  C_11
REMARK    8  A    between atoms: C_14  and  C_15
REMARK                            x       y       z     vdW  Elec       q    Type
REMARK                         _______ _______ _______ _____ _____    ______ ____
ROOT
ATOM      1  C   UNL     1      43.245   4.625  12.020  0.00  0.00    +0.000 C 
ENDROOT
BRANCH   1   2
ATOM      2  C   UNL     1      43.342   3.242  11.354  0.00  0.00    +0.000 C 
BRANCH   2   6
ATOM      3  C   UNL     1      46.068   3.377   7.967  0.00  0.00    +0.000 A 
ATOM      4  C   UNL     1      45.635   4.553   8.576  0.00  0.00    +0.000 A 
ATOM      5  C   UNL     1      44.755   4.506   9.667  0.00  0.00    +0.000 A 
ATOM      6  C   UNL     1      44.296   3.279  10.170  0.00  0.00    +0.000 A 
ATOM      7  C   UNL     1      44.752   2.102   9.556  0.00  0.00    +0.000 A 
ATOM      8  C   UNL     1      45.625   2.153   8.465  0.00  0.00    +0.000 A 
BRANCH   3  10
ATOM      9  C   UNL     1      47.640   2.074   6.749  0.00  0.00    +0.000 C 
ATOM     10  O   UNL     1      46.908   3.286   6.891  0.00  0.00    +0.000 OA
ENDBRANCH   3  10
ENDBRANCH   2   6
BRANCH   2  11
ATOM     11  O   UNL     1      43.782   2.270  12.305  0.00  0.00    +0.000 OA
ATOM     12  H   UNL     1      44.751   2.294  12.347  0.00  0.00    +0.000 HD
ENDBRANCH   2  11
ENDBRANCH   1   2
BRANCH   1  13
ATOM     13  O   UNL     1      43.930   4.665  13.283  0.00  0.00    +0.000 OA
BRANCH  13  14
ATOM     14  C   UNL     1      45.158   5.263  13.242  0.00  0.00    +0.000 A 
ATOM     15  C   UNL     1      45.433   6.554  12.835  0.00  0.00    +0.000 A 
ATOM     16  N   UNL     1      46.659   7.110  12.824  0.00  0.00    +0.000 NA
ATOM     17  C   UNL     1      47.661   6.307  13.253  0.00  0.00    +0.000 A 
ATOM     18  N   UNL     1      47.525   5.032  13.668  0.00  0.00    +0.000 NA
ATOM     19  C   UNL     1      46.263   4.540  13.649  0.00  0.00    +0.000 A 
BRANCH  17  20
ATOM     20  C   UNL     1      49.036   6.936  13.252  0.00  0.00    +0.000 C 
ATOM     21  N   UNL     1      49.442   7.458  12.044  0.00  0.00    +0.000 N 
ATOM     22  O   UNL     1      49.767   6.997  14.236  0.00  0.00    +0.000 OA
ATOM     23  H   UNL     1      48.831   7.406  11.235  0.00  0.00    +0.000 HD
ATOM     24  H   UNL     1      50.348   7.892  11.983  0.00  0.00    +0.000 HD
ENDBRANCH  17  20
ENDBRANCH  13  14
ENDBRANCH   1  13
TORSDOF 7
ENDMDL
MODEL 4
REMARK VINA RESULT:    -7.022      3.342      6.555
REMARK INTER + INTRA:         -10.375
REMARK INTER:                 -10.105
REMARK INTRA:                  -0.270
REMARK UNBOUND:                -0.685
REMARK  Name = 
REMARK  8 active torsions:
REMARK  status: ('A' for Active; 'I' for Inactive)
REMARK    1  A    between atoms: C_1  and  O_2
REMARK    2  A    between atoms: O_2  and  C_3
REMARK    3  A    between atoms: C_6  and  C_7
REMARK    4  A    between atoms: C_7  and  O_8
REMARK    5  A    between atoms: C_7  and  C_9
REMARK    6  A    between atoms: C_9  and  O_10
REMARK    7  A    between atoms: O_10  and  C_11
REMARK    8  A    between atoms: C_14  and  C_15
REMARK                            x       y       z     vdW  Elec       q    Type
REMARK                         _______ _______ _______ _____ _____    ______ ____
ROOT
ATOM      1  C   UNL     1      44.373   5.571  11.201  0.00  0.00    +0.000 C 
ENDROOT
BRANCH   1   2
ATOM      2  C   UNL     1      43.609   4.545  10.347  0.00  0.00    +0.000 C 
BRANCH   2   6
ATOM      3  C   UNL     1      46.328   2.373   7.735  0.00  0.00    +0.000 A 
ATOM      4  C   UNL     1      45.578   1.698   8.697  0.00  0.00    +0.000 A 
ATOM      5  C   UNL     1      44.704   2.402   9.538  0.00  0.00    +0.000 A 
ATOM      6  C   UNL     1      44.561   3.793   9.428  0.00  0.00    +0.000 A 
ATOM      7  C   UNL     1      45.311   4.458   8.445  0.00  0.00    +0.000 A 
ATOM      8  C   UNL     1      46.186   3.754   7.612  0.00  0.00    +0.000 A 
BRANCH   3  10
ATOM      9  C   UNL     1      47.393   2.456   5.612  0.00  0.00    +0.000 C 
ATOM     10  O   UNL     1      47.223   1.810   6.869  0.00  0.00    +0.000 OA
ENDBRANCH   3  10
ENDBRANCH   2   6
BRANCH   2  11
ATOM     11  O   UNL     1      42.917   3.623  11.191  0.00  0.00    +0.000 OA
ATOM     12  H   UNL     1      42.043   3.448  10.809  0.00  0.00    +0.000 HD
ENDBRANCH   2  11
ENDBRANCH   1   2
BRANCH   1  13
ATOM     13  O   UNL     1      45.791   5.333  11.191  0.00  0.00    +0.000 OA
BRANCH  13  14
ATOM     14  C   UNL     1      46.347   5.180  12.430  0.00  0.00    +0.000 A 
ATOM     15  C   UNL     1      47.288   6.002  13.018  0.00  0.00    +0.000 A 
ATOM     16  N   UNL     1      47.800   5.822  14.250  0.00  0.00    +0.000 NA
ATOM     17  C   UNL     1      47.328   4.745  14.920  0.00  0.00    +0.000 A 
ATOM     18  N   UNL     1      46.419   3.865  14.455  0.00  0.00    +0.000 NA
ATOM     19  C   UNL     1      45.950   4.110  13.209  0.00  0.00    +0.000 A 
BRANCH  17  20
ATOM     20  C   UNL     1      47.895   4.550  16.308  0.00  0.00    +0.000 C 
ATOM     21  N   UNL     1      47.413   5.413  17.266  0.00  0.00    +0.000 N 
ATOM     22  O   UNL     1      48.725   3.694  16.600  0.00  0.00    +0.000 OA
ATOM     23  H   UNL     1      46.724   6.117  17.018  0.00  0.00    +0.000 HD
ATOM     24  H   UNL     1      47.752   5.330  18.210  0.00  0.00    +0.000 HD
ENDBRANCH  17  20
ENDBRANCH  13  14
ENDBRANCH   1  13
TORSDOF 7
ENDMDL
MODEL 5
REMARK VINA RESULT:    -6.997      1.599      2.344
REMARK INTER + INTRA:         -10.340
REMARK INTER:                 -10.272
REMARK INTRA:                  -0.067
REMARK UNBOUND:                -0.685
REMARK  Name = 
REMARK  8 active torsions:
REMARK  status: ('A' for Active; 'I' for Inactive)
REMARK    1  A    between atoms: C_1  and  O_2
REMARK    2  A    between atoms: O_2  and  C_3
REMARK    3  A    between atoms: C_6  and  C_7
REMARK    4  A    between atoms: C_7  and  O_8
REMARK    5  A    between atoms: C_7  and  C_9
REMARK    6  A    between atoms: C_9  and  O_10
REMARK    7  A    between atoms: O_10  and  C_11
REMARK    8  A    between atoms: C_14  and  C_15
REMARK                            x       y       z     vdW  Elec       q    Type
REMARK                         _______ _______ _______ _____ _____    ______ ____
ROOT
ATOM      1  C   UNL     1      43.787   3.527  11.519  0.00  0.00    +0.000 C 
ENDROOT
BRANCH   1   2
ATOM      2  C   UNL     1      45.291   3.721  11.775  0.00  0.00    +0.000 C 
BRANCH   2   6
ATOM      3  C   UNL     1      46.200   7.879  12.675  0.00  0.00    +0.000 A 
ATOM      4  C   UNL     1      46.980   6.852  13.205  0.00  0.00    +0.000 A 
ATOM      5  C   UNL     1      46.683   5.513  12.913  0.00  0.00    +0.000 A 
ATOM      6  C   UNL     1      45.603   5.178  12.083  0.00  0.00    +0.000 A 
ATOM      7  C   UNL     1      44.835   6.223  11.545  0.00  0.00    +0.000 A 
ATOM      8  C   UNL     1      45.130   7.557  11.842  0.00  0.00    +0.000 A 
BRANCH   3  10
ATOM      9  C   UNL     1      45.685  10.104  12.017  0.00  0.00    +0.000 C 
ATOM     10  O   UNL     1      46.372   9.218  12.893  0.00  0.00    +0.000 OA
ENDBRANCH   3  10
ENDBRANCH   2   6
BRANCH   2  11
ATOM     11  O   UNL     1      45.715   2.892  12.860  0.00  0.00    +0.000 OA
ATOM     12  H   UNL     1      46.615   3.150  13.114  0.00  0.00    +0.000 HD
ENDBRANCH   2  11
ENDBRANCH   1   2
BRANCH   1  13
ATOM     13  O   UNL     1      43.457   3.643  10.125  0.00  0.00    +0.000 OA
BRANCH  13  14
ATOM     14  C   UNL     1      44.459   3.267   9.274  0.00  0.00    +0.000 A 
ATOM     15  C   UNL     1      45.036   2.016   9.181  0.00  0.00    +0.000 A 
ATOM     16  N   UNL     1      46.013   1.685   8.316  0.00  0.00    +0.000 NA
ATOM     17  C   UNL     1      46.425   2.683   7.500  0.00  0.00    +0.000 A 
ATOM     18  N   UNL     1      45.950   3.944   7.497  0.00  0.00    +0.000 NA
ATOM     19  C   UNL     1      44.970   4.204   8.395  0.00  0.00    +0.000 A 
BRANCH  17  20
ATOM     20  C   UNL     1      47.514   2.307   6.521  0.00  0.00    +0.000 C 
ATOM     21  N   UNL     1      47.505   3.006   5.335  0.00  0.00    +0.000 N 
ATOM     22  O   UNL     1      48.365   1.447   6.732  0.00  0.00    +0.000 OA
ATOM     23  H   UNL     1      46.800   3.718   5.168  0.00  0.00    +0.000 HD
ATOM     24  H   UNL     1      48.208   2.802   4.644  0.00  0.00    +0.000 HD
ENDBRANCH  17  20
ENDBRANCH  13  14
ENDBRANCH   1  13
TORSDOF 7
ENDMDL
MODEL 6
REMARK VINA RESULT:    -6.786      3.688      6.467
REMARK INTER + INTRA:         -10.049
REMARK INTER:                  -9.419
REMARK INTRA:                  -0.630
REMARK UNBOUND:                -0.685
REMARK  Name = 
REMARK  8 active torsions:
REMARK  status: ('A' for Active; 'I' for Inactive)
REMARK    1  A    between atoms: C_1  and  O_2
REMARK    2  A    between atoms: O_2  and  C_3
REMARK    3  A    between atoms: C_6  and  C_7
REMARK    4  A    between atoms: C_7  and  O_8
REMARK    5  A    between atoms: C_7  and  C_9
REMARK    6  A    between atoms: C_9  and  O_10
REMARK    7  A    between atoms: O_10  and  C_11
REMARK    8  A    between atoms: C_14  and  C_15
REMARK                            x       y       z     vdW  Elec       q    Type
REMARK                         _______ _______ _______ _____ _____    ______ ____
ROOT
ATOM      1  C   UNL     1      45.040   6.477  12.625  0.00  0.00    +0.000 C 
ENDROOT
BRANCH   1   2
ATOM      2  C   UNL     1      44.475   6.531  11.195  0.00  0.00    +0.000 C 
BRANCH   2   6
ATOM      3  C   UNL     1      45.009   2.720   9.165  0.00  0.00    +0.000 A 
ATOM      4  C   UNL     1      45.638   3.871   8.691  0.00  0.00    +0.000 A 
ATOM      5  C   UNL     1      45.462   5.097   9.348  0.00  0.00    +0.000 A 
ATOM      6  C   UNL     1      44.658   5.194  10.493  0.00  0.00    +0.000 A 
ATOM      7  C   UNL     1      44.042   4.025  10.967  0.00  0.00    +0.000 A 
ATOM      8  C   UNL     1      44.215   2.804  10.307  0.00  0.00    +0.000 A 
BRANCH   3  10
ATOM      9  C   UNL     1      46.327   1.104   8.024  0.00  0.00    +0.000 C 
ATOM     10  O   UNL     1      45.084   1.473   8.611  0.00  0.00    +0.000 OA
ENDBRANCH   3  10
ENDBRANCH   2   6
BRANCH   2  11
ATOM     11  O   UNL     1      43.089   6.879  11.228  0.00  0.00    +0.000 OA
ATOM     12  H   UNL     1      42.579   6.163  10.818  0.00  0.00    +0.000 HD
ENDBRANCH   2  11
ENDBRANCH   1   2
BRANCH   1  13
ATOM     13  O   UNL     1      46.471   6.346  12.635  0.00  0.00    +0.000 OA
BRANCH  13  14
ATOM     14  C   UNL     1      46.954   5.480  13.577  0.00  0.00    +0.000 A 
ATOM     15  C   UNL     1      47.649   5.813  14.723  0.00  0.00    +0.000 A 
ATOM     16  N   UNL     1      48.094   4.928  15.634  0.00  0.00    +0.000 NA
ATOM     17  C   UNL     1      47.815   3.631  15.363  0.00  0.00    +0.000 A 
ATOM     18  N   UNL     1      47.154   3.178  14.280  0.00  0.00    +0.000 NA
ATOM     19  C   UNL     1      46.738   4.126  13.407  0.00  0.00    +0.000 A 
BRANCH  17  20
ATOM     20  C   UNL     1      48.305   2.638  16.393  0.00  0.00    +0.000 C 
ATOM     21  N   UNL     1      47.686   2.711  17.620  0.00  0.00    +0.000 N 
ATOM     22  O   UNL     1      49.188   1.810  16.187  0.00  0.00    +0.000 OA
ATOM     23  H   UNL     1      46.955   3.396  17.783  0.00  0.00    +0.000 HD
ATOM     24  H   UNL     1      47.969   2.073  18.346  0.00  0.00    +0.000 HD
ENDBRANCH  17  20
ENDBRANCH  13  14
ENDBRANCH   1  13
TORSDOF 7
ENDMDL
MODEL 7
REMARK VINA RESULT:    -6.594      1.400      1.941
REMARK INTER + INTRA:          -9.784
REMARK INTER:                  -9.114
REMARK INTRA:                  -0.671
REMARK UNBOUND:                -0.685
REMARK  Name = 
REMARK  8 active torsions:
REMARK  status: ('A' for Active; 'I' for Inactive)
REMARK    1  A    between atoms: C_1  and  O_2
REMARK    2  A    between atoms: O_2  and  C_3
REMARK    3  A    between atoms: C_6  and  C_7
REMARK    4  A    between atoms: C_7  and  O_8
REMARK    5  A    between atoms: C_7  and  C_9
REMARK    6  A    between atoms: C_9  and  O_10
REMARK    7  A    between atoms: O_10  and  C_11
REMARK    8  A    between atoms: C_14  and  C_15
REMARK                            x       y       z     vdW  Elec       q    Type
REMARK                         _______ _______ _______ _____ _____    ______ ____
ROOT
ATOM      1  C   UNL     1      44.395   4.458  11.955  0.00  0.00    +0.000 C 
ENDROOT
BRANCH   1   2
ATOM      2  C   UNL     1      44.112   5.894  12.432  0.00  0.00    +0.000 C 
BRANCH   2   6
ATOM      3  C   UNL     1      47.674   8.374  12.130  0.00  0.00    +0.000 A 
ATOM      4  C   UNL     1      46.465   8.918  12.560  0.00  0.00    +0.000 A 
ATOM      5  C   UNL     1      45.319   8.116  12.655  0.00  0.00    +0.000 A 
ATOM      6  C   UNL     1      45.363   6.753  12.325  0.00  0.00    +0.000 A 
ATOM      7  C   UNL     1      46.591   6.215  11.908  0.00  0.00    +0.000 A 
ATOM      8  C   UNL     1      47.730   7.019  11.809  0.00  0.00    +0.000 A 
BRANCH   3  10
ATOM      9  C   UNL     1      50.047   8.316  12.234  0.00  0.00    +0.000 C 
ATOM     10  O   UNL     1      48.854   9.047  11.979  0.00  0.00    +0.000 OA
ENDBRANCH   3  10
ENDBRANCH   2   6
BRANCH   2  11
ATOM     11  O   UNL     1      43.058   6.469  11.657  0.00  0.00    +0.000 OA
ATOM     12  H   UNL     1      42.337   5.824  11.587  0.00  0.00    +0.000 HD
ENDBRANCH   2  11
ENDBRANCH   1   2
BRANCH   1  13
ATOM     13  O   UNL     1      43.725   4.159  10.719  0.00  0.00    +0.000 OA
BRANCH  13  14
ATOM     14  C   UNL     1      44.546   3.699   9.727  0.00  0.00    +0.000 A 
ATOM     15  C   UNL     1      44.912   2.387   9.502  0.00  0.00    +0.000 A 
ATOM     16  N   UNL     1      45.714   1.976   8.502  0.00  0.00    +0.000 NA
ATOM     17  C   UNL     1      46.168   2.955   7.685  0.00  0.00    +0.000 A 
ATOM     18  N   UNL     1      45.891   4.268   7.803  0.00  0.00    +0.000 NA
ATOM     19  C   UNL     1      45.080   4.607   8.833  0.00  0.00    +0.000 A 
BRANCH  17  20
ATOM     20  C   UNL     1      47.058   2.491   6.555  0.00  0.00    +0.000 C 
ATOM     21  N   UNL     1      48.063   1.622   6.918  0.00  0.00    +0.000 N 
ATOM     22  O   UNL     1      46.926   2.839   5.386  0.00  0.00    +0.000 OA
ATOM     23  H   UNL     1      48.164   1.336   7.887  0.00  0.00    +0.000 HD
ATOM     24  H   UNL     1      48.687   1.276   6.207  0.00  0.00    +0.000 HD
ENDBRANCH  17  20
ENDBRANCH  13  14
ENDBRANCH   1  13
TORSDOF 7
ENDMDL
MODEL 8
REMARK VINA RESULT:    -6.103      3.081      6.009
REMARK INTER + INTRA:          -9.107
REMARK INTER:                  -8.548
REMARK INTRA:                  -0.558
REMARK UNBOUND:                -0.685
REMARK  Name = 
REMARK  8 active torsions:
REMARK  status: ('A' for Active; 'I' for Inactive)
REMARK    1  A    between atoms: C_1  and  O_2
REMARK    2  A    between atoms: O_2  and  C_3
REMARK    3  A    between atoms: C_6  and  C_7
REMARK    4  A    between atoms: C_7  and  O_8
REMARK    5  A    between atoms: C_7  and  C_9
REMARK    6  A    between atoms: C_9  and  O_10
REMARK    7  A    between atoms: O_10  and  C_11
REMARK    8  A    between atoms: C_14  and  C_15
REMARK                            x       y       z     vdW  Elec       q    Type
REMARK                         _______ _______ _______ _____ _____    ______ ____
ROOT
ATOM      1  C   UNL     1      45.339   4.542  13.146  0.00  0.00    +0.000 C 
ENDROOT
BRANCH   1   2
ATOM      2  C   UNL     1      44.153   4.083  12.281  0.00  0.00    +0.000 C 
BRANCH   2   6
ATOM      3  C   UNL     1      45.405   3.403   8.170  0.00  0.00    +0.000 A 
ATOM      4  C   UNL     1      44.821   2.378   8.912  0.00  0.00    +0.000 A 
ATOM      5  C   UNL     1      44.420   2.601  10.238  0.00  0.00    +0.000 A 
ATOM      6  C   UNL     1      44.592   3.855  10.842  0.00  0.00    +0.000 A 
ATOM      7  C   UNL     1      45.168   4.882  10.077  0.00  0.00    +0.000 A 
ATOM      8  C   UNL     1      45.572   4.655   8.758  0.00  0.00    +0.000 A 
BRANCH   3  10
ATOM      9  C   UNL     1      46.927   2.414   6.636  0.00  0.00    +0.000 C 
ATOM     10  O   UNL     1      45.852   3.313   6.881  0.00  0.00    +0.000 OA
ENDBRANCH   3  10
ENDBRANCH   2   6
BRANCH   2  11
ATOM     11  O   UNL     1      43.591   2.883  12.815  0.00  0.00    +0.000 OA
ATOM     12  H   UNL     1      42.849   2.611  12.254  0.00  0.00    +0.000 HD
ENDBRANCH   2  11
ENDBRANCH   1   2
BRANCH   1  13
ATOM     13  O   UNL     1      45.384   5.972  13.286  0.00  0.00    +0.000 OA
BRANCH  13  14
ATOM     14  C   UNL     1      46.566   6.542  12.903  0.00  0.00    +0.000 A 
ATOM     15  C   UNL     1      46.724   7.721  12.203  0.00  0.00    +0.000 A 
ATOM     16  N   UNL     1      47.911   8.255  11.858  0.00  0.00    +0.000 NA
ATOM     17  C   UNL     1      48.998   7.549  12.250  0.00  0.00    +0.000 A 
ATOM     18  N   UNL     1      48.977   6.386  12.930  0.00  0.00    +0.000 NA
ATOM     19  C   UNL     1      47.748   5.909  13.240  0.00  0.00    +0.000 A 
BRANCH  17  20
ATOM     20  C   UNL     1      50.330   8.156  11.874  0.00  0.00    +0.000 C 
ATOM     21  N   UNL     1      51.169   7.333  11.156  0.00  0.00    +0.000 N 
ATOM     22  O   UNL     1      50.677   9.296  12.167  0.00  0.00    +0.000 OA
ATOM     23  H   UNL     1      50.875   6.391  10.915  0.00  0.00    +0.000 HD
ATOM     24  H   UNL     1      52.070   7.682  10.875  0.00  0.00    +0.000 HD
ENDBRANCH  17  20
ENDBRANCH  13  14
ENDBRANCH   1  13
TORSDOF 7
ENDMDL
MODEL 9
REMARK VINA RESULT:    -6.091      4.548      6.300
REMARK INTER + INTRA:          -9.091
REMARK INTER:                  -8.656
REMARK INTRA:                  -0.435
REMARK UNBOUND:                -0.685
REMARK  Name = 
REMARK  8 active torsions:
REMARK  status: ('A' for Active; 'I' for Inactive)
REMARK    1  A    between atoms: C_1  and  O_2
REMARK    2  A    between atoms: O_2  and  C_3
REMARK    3  A    between atoms: C_6  and  C_7
REMARK    4  A    between atoms: C_7  and  O_8
REMARK    5  A    between atoms: C_7  and  C_9
REMARK    6  A    between atoms: C_9  and  O_10
REMARK    7  A    between atoms: O_10  and  C_11
REMARK    8  A    between atoms: C_14  and  C_15
REMARK                            x       y       z     vdW  Elec       q    Type
REMARK                         _______ _______ _______ _____ _____    ______ ____
ROOT
ATOM      1  C   UNL     1      47.284   4.478  15.950  0.00  0.00    +0.000 C 
ENDROOT
BRANCH   1   2
ATOM      2  C   UNL     1      47.600   3.126  16.613  0.00  0.00    +0.000 C 
BRANCH   2   6
ATOM      3  C   UNL     1      51.744   3.015  17.934  0.00  0.00    +0.000 A 
ATOM      4  C   UNL     1      50.966   4.154  18.134  0.00  0.00    +0.000 A 
ATOM      5  C   UNL     1      49.631   4.187  17.706  0.00  0.00    +0.000 A 
ATOM      6  C   UNL     1      49.049   3.078  17.073  0.00  0.00    +0.000 A 
ATOM      7  C   UNL     1      49.840   1.932  16.891  0.00  0.00    +0.000 A 
ATOM      8  C   UNL     1      51.172   1.905  17.315  0.00  0.00    +0.000 A 
BRANCH   3  10
ATOM      9  C   UNL     1      53.738   1.736  17.744  0.00  0.00    +0.000 C 
ATOM     10  O   UNL     1      53.055   2.860  18.287  0.00  0.00    +0.000 OA
ENDBRANCH   3  10
ENDBRANCH   2   6
BRANCH   2  11
ATOM     11  O   UNL     1      46.728   2.910  17.725  0.00  0.00    +0.000 OA
ATOM     12  H   UNL     1      45.829   2.765  17.390  0.00  0.00    +0.000 HD
ENDBRANCH   2  11
ENDBRANCH   1   2
BRANCH   1  13
ATOM     13  O   UNL     1      47.725   4.524  14.583  0.00  0.00    +0.000 OA
BRANCH  13  14
ATOM     14  C   UNL     1      46.721   4.691  13.670  0.00  0.00    +0.000 A 
ATOM     15  C   UNL     1      46.225   5.892  13.201  0.00  0.00    +0.000 A 
ATOM     16  N   UNL     1      45.243   6.011  12.289  0.00  0.00    +0.000 NA
ATOM     17  C   UNL     1      44.739   4.843  11.826  0.00  0.00    +0.000 A 
ATOM     18  N   UNL     1      45.130   3.612  12.207  0.00  0.00    +0.000 NA
ATOM     19  C   UNL     1      46.121   3.570  13.130  0.00  0.00    +0.000 A 
BRANCH  17  20
ATOM     20  C   UNL     1      43.644   4.978  10.792  0.00  0.00    +0.000 C 
ATOM     21  N   UNL     1      44.002   4.629   9.509  0.00  0.00    +0.000 N 
ATOM     22  O   UNL     1      42.506   5.366  11.039  0.00  0.00    +0.000 OA
ATOM     23  H   UNL     1      44.944   4.307   9.312  0.00  0.00    +0.000 HD
ATOM     24  H   UNL     1      43.314   4.696   8.777  0.00  0.00    +0.000 HD
ENDBRANCH  17  20
ENDBRANCH  13  14
ENDBRANCH   1  13
TORSDOF 7
ENDMDL
