MODEL 1
REMARK VINA RESULT:    -6.796      0.000      0.000
REMARK INTER + INTRA:          -8.345
REMARK INTER:                  -8.385
REMARK INTRA:                   0.040
REMARK UNBOUND:                 0.040
REMARK  Name = 
REMARK  5 active torsions:
REMARK  status: ('A' for Active; 'I' for Inactive)
REMARK    1  A    between atoms: N_1  and  C_2
REMARK    2  A    between atoms: C_2  and  C_3
REMARK    3  A    between atoms: N_6  and  C_7
REMARK    4  A    between atoms: C_7  and  N_8
REMARK    5  A    between atoms: C_14  and  O_15
REMARK                            x       y       z     vdW  Elec       q    Type
REMARK                         _______ _______ _______ _____ _____    ______ ____
ROOT
ATOM      1  C   UNL     1      44.340   6.492  11.384  0.00  0.00    +0.000 C 
ENDROOT
BRANCH   1   2
ATOM      2  N   UNL     1      44.230   5.053  11.140  0.00  0.00    +0.000 N 
ATOM      3  C   UNL     1      43.558   4.171  11.952  0.00  0.00    +0.000 A 
ATOM      4  C   UNL     1      43.608   2.928  11.367  0.00  0.00    +0.000 A 
ATOM      5  C   UNL     1      44.364   3.042  10.169  0.00  0.00    +0.000 A 
ATOM      6  C   UNL     1      44.719   2.128   9.156  0.00  0.00    +0.000 A 
ATOM      7  C   UNL     1      45.496   2.562   8.074  0.00  0.00    +0.000 A 
ATOM      8  C   UNL     1      45.932   3.879   8.021  0.00  0.00    +0.000 A 
ATOM      9  C   UNL     1      45.616   4.802   9.017  0.00  0.00    +0.000 A 
ATOM     10  C   UNL     1      44.795   4.371  10.075  0.00  0.00    +0.000 A 
BRANCH   8  11
ATOM     11  O   UNL     1      46.677   4.332   6.969  0.00  0.00    +0.000 OA
ATOM     12  H   UNL     1      47.573   3.968   7.052  0.00  0.00    +0.000 HD
ENDBRANCH   8  11
ENDBRANCH   1   2
BRANCH   1  16
ATOM     13  C   UNL     1      48.003   7.582  13.390  0.00  0.00    +0.000 C 
ATOM     14  C   UNL     1      47.528   6.122  13.402  0.00  0.00    +0.000 C 
ATOM     15  C   UNL     1      46.428   5.862  12.368  0.00  0.00    +0.000 C 
ATOM     16  N   UNL     1      45.273   6.767  12.502  0.00  0.00    +0.000 NA
ATOM     17  C   UNL     1      45.683   8.185  12.531  0.00  0.00    +0.000 C 
ATOM     18  C   UNL     1      46.768   8.471  13.572  0.00  0.00    +0.000 C 
BRANCH  13  19
ATOM     19  C   UNL     1      48.813   7.888  12.118  0.00  0.00    +0.000 C 
BRANCH  19  20
ATOM     20  N   UNL     1      50.136   7.279  12.132  0.00  0.00    +0.000 NA
ATOM     21  H   UNL     1      50.749   7.792  12.767  0.00  0.00    +0.000 HD
ATOM     22  H   UNL     1      50.562   7.358  11.205  0.00  0.00    +0.000 HD
ENDBRANCH  19  20
ENDBRANCH  13  19
ENDBRANCH   1  16
TORSDOF 5
ENDMDL
MODEL 2
REMARK VINA RESULT:    -6.309      3.708      6.988
REMARK INTER + INTRA:          -7.744
REMARK INTER:                  -7.357
REMARK INTRA:                  -0.387
REMARK UNBOUND:                 0.040
REMARK  Name = 
REMARK  5 active torsions:
REMARK  status: ('A' for Active; 'I' for Inactive)
REMARK    1  A    between atoms: N_1  and  C_2
REMARK    2  A    between atoms: C_2  and  C_3
REMARK    3  A    between atoms: N_6  and  C_7
REMARK    4  A    between atoms: C_7  and  N_8
REMARK    5  A    between atoms: C_14  and  O_15
REMARK                            x       y       z     vdW  Elec       q    Type
REMARK                         _______ _______ _______ _____ _____    ______ ____
ROOT
ATOM      1  C   UNL     1      47.498   5.386  13.234  0.00  0.00    +0.000 C 
ENDROOT
BRANCH   1   2
ATOM      2  N   UNL     1      48.020   5.912  14.496  0.00  0.00    +0.000 N 
ATOM      3  C   UNL     1      48.712   7.093  14.624  0.00  0.00    +0.000 A 
ATOM      4  C   UNL     1      48.974   7.293  15.959  0.00  0.00    +0.000 A 
ATOM      5  C   UNL     1      48.452   6.182  16.675  0.00  0.00    +0.000 A 
ATOM      6  C   UNL     1      48.394   5.851  18.044  0.00  0.00    +0.000 A 
ATOM      7  C   UNL     1      47.797   4.647  18.440  0.00  0.00    +0.000 A 
ATOM      8  C   UNL     1      47.292   3.778  17.482  0.00  0.00    +0.000 A 
ATOM      9  C   UNL     1      47.353   4.066  16.119  0.00  0.00    +0.000 A 
ATOM     10  C   UNL     1      47.910   5.298  15.732  0.00  0.00    +0.000 A 
BRANCH   8  11
ATOM     11  O   UNL     1      46.691   2.605  17.843  0.00  0.00    +0.000 OA
ATOM     12  H   UNL     1      46.225   2.251  17.068  0.00  0.00    +0.000 HD
ENDBRANCH   8  11
ENDBRANCH   1   2
BRANCH   1  16
ATOM     13  C   UNL     1      43.546   5.550  11.506  0.00  0.00    +0.000 C 
ATOM     14  C   UNL     1      44.566   6.652  11.192  0.00  0.00    +0.000 C 
ATOM     15  C   UNL     1      45.990   6.257  11.593  0.00  0.00    +0.000 C 
ATOM     16  N   UNL     1      46.109   5.850  13.004  0.00  0.00    +0.000 NA
ATOM     17  C   UNL     1      45.123   4.813  13.365  0.00  0.00    +0.000 C 
ATOM     18  C   UNL     1      43.690   5.197  12.991  0.00  0.00    +0.000 C 
BRANCH  13  19
ATOM     19  C   UNL     1      43.721   4.350  10.558  0.00  0.00    +0.000 C 
BRANCH  19  20
ATOM     20  N   UNL     1      43.742   4.738   9.155  0.00  0.00    +0.000 NA
ATOM     21  H   UNL     1      42.801   4.680   8.764  0.00  0.00    +0.000 HD
ATOM     22  H   UNL     1      44.310   4.076   8.622  0.00  0.00    +0.000 HD
ENDBRANCH  19  20
ENDBRANCH  13  19
ENDBRANCH   1  16
TORSDOF 5
ENDMDL
MODEL 3
REMARK VINA RESULT:    -6.190      3.595      4.897
REMARK INTER + INTRA:          -7.597
REMARK INTER:                  -7.279
REMARK INTRA:                  -0.318
REMARK UNBOUND:                 0.040
REMARK  Name = 
REMARK  5 active torsions:
REMARK  status: ('A' for Active; 'I' for Inactive)
REMARK    1  A    between atoms: N_1  and  C_2
REMARK    2  A    between atoms: C_2  and  C_3
REMARK    3  A    between atoms: N_6  and  C_7
REMARK    4  A    between atoms: C_7  and  N_8
REMARK    5  A    between atoms: C_14  and  O_15
REMARK                            x       y       z     vdW  Elec       q    Type
REMARK                         _______ _______ _______ _____ _____    ______ ____
ROOT
ATOM      1  C   UNL     1      47.447   4.734  13.794  0.00  0.00    +0.000 C 
ENDROOT
BRANCH   1   2
ATOM      2  N   UNL     1      46.357   5.531  13.228  0.00  0.00    +0.000 N 
ATOM      3  C   UNL     1      46.349   6.904  13.157  0.00  0.00    +0.000 A 
ATOM      4  C   UNL     1      45.204   7.291  12.501  0.00  0.00    +0.000 A 
ATOM      5  C   UNL     1      44.467   6.118  12.184  0.00  0.00    +0.000 A 
ATOM      6  C   UNL     1      43.255   5.888  11.503  0.00  0.00    +0.000 A 
ATOM      7  C   UNL     1      42.782   4.578  11.354  0.00  0.00    +0.000 A 
ATOM      8  C   UNL     1      43.495   3.520  11.901  0.00  0.00    +0.000 A 
ATOM      9  C   UNL     1      44.686   3.715  12.599  0.00  0.00    +0.000 A 
ATOM     10  C   UNL     1      45.179   5.028  12.702  0.00  0.00    +0.000 A 
BRANCH   8  11
ATOM     11  O   UNL     1      43.064   2.231  11.756  0.00  0.00    +0.000 OA
ATOM     12  H   UNL     1      42.174   2.250  11.368  0.00  0.00    +0.000 HD
ENDBRANCH   8  11
ENDBRANCH   1   2
BRANCH   1  16
ATOM     13  C   UNL     1      48.720   4.148  17.877  0.00  0.00    +0.000 C 
ATOM     14  C   UNL     1      47.680   3.206  17.255  0.00  0.00    +0.000 C 
ATOM     15  C   UNL     1      47.613   3.339  15.731  0.00  0.00    +0.000 C 
ATOM     16  N   UNL     1      47.376   4.720  15.274  0.00  0.00    +0.000 NA
ATOM     17  C   UNL     1      48.331   5.672  15.873  0.00  0.00    +0.000 C 
ATOM     18  C   UNL     1      48.399   5.569  17.399  0.00  0.00    +0.000 C 
BRANCH  13  19
ATOM     19  C   UNL     1      50.150   3.686  17.548  0.00  0.00    +0.000 C 
BRANCH  19  20
ATOM     20  N   UNL     1      50.338   2.255  17.742  0.00  0.00    +0.000 NA
ATOM     21  H   UNL     1      49.700   1.914  18.460  0.00  0.00    +0.000 HD
ATOM     22  H   UNL     1      51.281   2.076  18.095  0.00  0.00    +0.000 HD
ENDBRANCH  19  20
ENDBRANCH  13  19
ENDBRANCH   1  16
TORSDOF 5
ENDMDL
MODEL 4
REMARK VINA RESULT:    -5.996      2.406      6.252
REMARK INTER + INTRA:          -7.358
REMARK INTER:                  -6.969
REMARK INTRA:                  -0.389
REMARK UNBOUND:                 0.040
REMARK  Name = 
REMARK  5 active torsions:
REMARK  status: ('A' for Active; 'I' for Inactive)
REMARK    1  A    between atoms: N_1  and  C_2
REMARK    2  A    between atoms: C_2  and  C_3
REMARK    3  A    between atoms: N_6  and  C_7
REMARK    4  A    between atoms: C_7  and  N_8
REMARK    5  A    between atoms: C_14  and  O_15
REMARK                            x       y       z     vdW  Elec       q    Type
REMARK                         _______ _______ _______ _____ _____    ______ ____
ROOT
ATOM      1  C   UNL     1      45.659   7.199  12.790  0.00  0.00    +0.000 C 
ENDROOT
BRANCH   1   2
ATOM      2  N   UNL     1      46.269   8.460  12.366  0.00  0.00    +0.000 N 
ATOM      3  C   UNL     1      45.594   9.650  12.238  0.00  0.00    +0.000 A 
ATOM      4  C   UNL     1      46.502  10.623  11.895  0.00  0.00    +0.000 A 
ATOM      5  C   UNL     1      47.776  10.005  11.777  0.00  0.00    +0.000 A 
ATOM      6  C   UNL     1      49.067  10.491  11.484  0.00  0.00    +0.000 A 
ATOM      7  C   UNL     1      50.148   9.600  11.440  0.00  0.00    +0.000 A 
ATOM      8  C   UNL     1      49.936   8.245  11.657  0.00  0.00    +0.000 A 
ATOM      9  C   UNL     1      48.669   7.730  11.927  0.00  0.00    +0.000 A 
ATOM     10  C   UNL     1      47.598   8.636  12.018  0.00  0.00    +0.000 A 
BRANCH   8  11
ATOM     11  O   UNL     1      50.976   7.359  11.635  0.00  0.00    +0.000 OA
ATOM     12  H   UNL     1      51.069   6.977  12.522  0.00  0.00    +0.000 HD
ENDBRANCH   8  11
ENDBRANCH   1   2
BRANCH   1  16
ATOM     13  C   UNL     1      43.803   4.144  10.369  0.00  0.00    +0.000 C 
ATOM     14  C   UNL     1      45.017   4.915   9.833  0.00  0.00    +0.000 C 
ATOM     15  C   UNL     1      45.746   5.690  10.935  0.00  0.00    +0.000 C 
ATOM     16  N   UNL     1      44.867   6.600  11.689  0.00  0.00    +0.000 NA
ATOM     17  C   UNL     1      43.664   5.912  12.197  0.00  0.00    +0.000 C 
ATOM     18  C   UNL     1      42.909   5.148  11.107  0.00  0.00    +0.000 C 
BRANCH  13  19
ATOM     19  C   UNL     1      44.245   2.948  11.230  0.00  0.00    +0.000 C 
BRANCH  19  20
ATOM     20  N   UNL     1      43.124   2.135  11.683  0.00  0.00    +0.000 NA
ATOM     21  H   UNL     1      42.278   2.704  11.728  0.00  0.00    +0.000 HD
ATOM     22  H   UNL     1      43.297   1.811  12.638  0.00  0.00    +0.000 HD
ENDBRANCH  19  20
ENDBRANCH  13  19
ENDBRANCH   1  16
TORSDOF 5
ENDMDL
MODEL 5
REMARK VINA RESULT:    -5.508      3.599      4.813
REMARK INTER + INTRA:          -6.756
REMARK INTER:                  -7.368
REMARK INTRA:                   0.612
REMARK UNBOUND:                 0.040
REMARK  Name = 
REMARK  5 active torsions:
REMARK  status: ('A' for Active; 'I' for Inactive)
REMARK    1  A    between atoms: N_1  and  C_2
REMARK    2  A    between atoms: C_2  and  C_3
REMARK    3  A    between atoms: N_6  and  C_7
REMARK    4  A    between atoms: C_7  and  N_8
REMARK    5  A    between atoms: C_14  and  O_15
REMARK                            x       y       z     vdW  Elec       q    Type
REMARK                         _______ _______ _______ _____ _____    ______ ____
ROOT
ATOM      1  C   UNL     1      47.378   5.835  14.197  0.00  0.00    +0.000 C 
ENDROOT
BRANCH   1   2
ATOM      2  N   UNL     1      46.552   4.930  13.396  0.00  0.00    +0.000 N 
ATOM      3  C   UNL     1      46.704   3.565  13.353  0.00  0.00    +0.000 A 
ATOM      4  C   UNL     1      45.708   3.048  12.558  0.00  0.00    +0.000 A 
ATOM      5  C   UNL     1      44.935   4.136  12.069  0.00  0.00    +0.000 A 
ATOM      6  C   UNL     1      43.790   4.222  11.251  0.00  0.00    +0.000 A 
ATOM      7  C   UNL     1      43.253   5.478  10.942  0.00  0.00    +0.000 A 
ATOM      8  C   UNL     1      43.868   6.628  11.419  0.00  0.00    +0.000 A 
ATOM      9  C   UNL     1      45.013   6.578  12.212  0.00  0.00    +0.000 A 
ATOM     10  C   UNL     1      45.517   5.312  12.559  0.00  0.00    +0.000 A 
BRANCH   8  11
ATOM     11  O   UNL     1      43.355   7.865  11.144  0.00  0.00    +0.000 OA
ATOM     12  H   UNL     1      42.392   7.828  11.262  0.00  0.00    +0.000 HD
ENDBRANCH   8  11
ENDBRANCH   1   2
BRANCH   1  16
ATOM     13  C   UNL     1      48.659   4.713  18.164  0.00  0.00    +0.000 C 
ATOM     14  C   UNL     1      49.633   5.428  17.217  0.00  0.00    +0.000 C 
ATOM     15  C   UNL     1      48.921   6.052  16.013  0.00  0.00    +0.000 C 
ATOM     16  N   UNL     1      48.099   5.091  15.257  0.00  0.00    +0.000 NA
ATOM     17  C   UNL     1      47.168   4.351  16.131  0.00  0.00    +0.000 C 
ATOM     18  C   UNL     1      47.863   3.702  17.330  0.00  0.00    +0.000 C 
BRANCH  13  19
ATOM     19  C   UNL     1      47.783   5.726  18.922  0.00  0.00    +0.000 C 
BRANCH  19  20
ATOM     20  N   UNL     1      46.365   5.397  18.867  0.00  0.00    +0.000 NA
ATOM     21  H   UNL     1      46.180   4.565  19.426  0.00  0.00    +0.000 HD
ATOM     22  H   UNL     1      46.104   5.157  17.908  0.00  0.00    +0.000 HD
ENDBRANCH  19  20
ENDBRANCH  13  19
ENDBRANCH   1  16
TORSDOF 5
ENDMDL
MODEL 6
REMARK VINA RESULT:    -5.504      2.905      6.732
REMARK INTER + INTRA:          -6.750
REMARK INTER:                  -6.423
REMARK INTRA:                  -0.327
REMARK UNBOUND:                 0.040
REMARK  Name = 
REMARK  5 active torsions:
REMARK  status: ('A' for Active; 'I' for Inactive)
REMARK    1  A    between atoms: N_1  and  C_2
REMARK    2  A    between atoms: C_2  and  C_3
REMARK    3  A    between atoms: N_6  and  C_7
REMARK    4  A    between atoms: C_7  and  N_8
REMARK    5  A    between atoms: C_14  and  O_15
REMARK                            x       y       z     vdW  Elec       q    Type
REMARK                         _______ _______ _______ _____ _____    ______ ____
ROOT
ATOM      1  C   UNL     1      46.826   6.504  11.578  0.00  0.00    +0.000 C 
ENDROOT
BRANCH   1   2
ATOM      2  N   UNL     1      47.137   7.616  12.478  0.00  0.00    +0.000 N 
ATOM      3  C   UNL     1      46.832   8.933  12.229  0.00  0.00    +0.000 A 
ATOM      4  C   UNL     1      47.207   9.674  13.324  0.00  0.00    +0.000 A 
ATOM      5  C   UNL     1      47.791   8.787  14.268  0.00  0.00    +0.000 A 
ATOM      6  C   UNL     1      48.322   8.961  15.563  0.00  0.00    +0.000 A 
ATOM      7  C   UNL     1      48.839   7.857  16.253  0.00  0.00    +0.000 A 
ATOM      8  C   UNL     1      48.851   6.608  15.647  0.00  0.00    +0.000 A 
ATOM      9  C   UNL     1      48.354   6.407  14.361  0.00  0.00    +0.000 A 
ATOM     10  C   UNL     1      47.792   7.510  13.693  0.00  0.00    +0.000 A 
BRANCH   8  11
ATOM     11  O   UNL     1      49.335   5.512  16.305  0.00  0.00    +0.000 OA
ATOM     12  H   UNL     1      49.417   4.786  15.666  0.00  0.00    +0.000 HD
ENDBRANCH   8  11
ENDBRANCH   1   2
BRANCH   1  16
ATOM     13  C   UNL     1      43.170   4.211  11.698  0.00  0.00    +0.000 C 
ATOM     14  C   UNL     1      43.623   4.863  10.385  0.00  0.00    +0.000 C 
ATOM     15  C   UNL     1      45.083   5.326  10.439  0.00  0.00    +0.000 C 
ATOM     16  N   UNL     1      45.370   6.223  11.571  0.00  0.00    +0.000 NA
ATOM     17  C   UNL     1      44.921   5.654  12.857  0.00  0.00    +0.000 C 
ATOM     18  C   UNL     1      43.458   5.204  12.830  0.00  0.00    +0.000 C 
BRANCH  13  19
ATOM     19  C   UNL     1      43.835   2.836  11.889  0.00  0.00    +0.000 C 
BRANCH  19  20
ATOM     20  N   UNL     1      42.885   1.735  11.804  0.00  0.00    +0.000 NA
ATOM     21  H   UNL     1      41.950   2.062  12.045  0.00  0.00    +0.000 HD
ATOM     22  H   UNL     1      43.122   1.021  12.498  0.00  0.00    +0.000 HD
ENDBRANCH  19  20
ENDBRANCH  13  19
ENDBRANCH   1  16
TORSDOF 5
ENDMDL
MODEL 7
REMARK VINA RESULT:    -5.435      2.738      3.732
REMARK INTER + INTRA:          -6.665
REMARK INTER:                  -6.274
REMARK INTRA:                  -0.391
REMARK UNBOUND:                 0.040
REMARK  Name = 
REMARK  5 active torsions:
REMARK  status: ('A' for Active; 'I' for Inactive)
REMARK    1  A    between atoms: N_1  and  C_2
REMARK    2  A    between atoms: C_2  and  C_3
REMARK    3  A    between atoms: N_6  and  C_7
REMARK    4  A    between atoms: C_7  and  N_8
REMARK    5  A    between atoms: C_14  and  O_15
REMARK                            x       y       z     vdW  Elec       q    Type
REMARK                         _______ _______ _______ _____ _____    ______ ____
ROOT
ATOM      1  C   UNL     1      47.275   6.625  13.740  0.00  0.00    +0.000 C 
ENDROOT
BRANCH   1   2
ATOM      2  N   UNL     1      46.538   5.448  13.278  0.00  0.00    +0.000 N 
ATOM      3  C   UNL     1      46.937   4.148  13.480  0.00  0.00    +0.000 A 
ATOM      4  C   UNL     1      45.964   3.318  12.975  0.00  0.00    +0.000 A 
ATOM      5  C   UNL     1      44.944   4.136  12.416  0.00  0.00    +0.000 A 
ATOM      6  C   UNL     1      43.709   3.858  11.796  0.00  0.00    +0.000 A 
ATOM      7  C   UNL     1      42.911   4.914  11.339  0.00  0.00    +0.000 A 
ATOM      8  C   UNL     1      43.354   6.223  11.474  0.00  0.00    +0.000 A 
ATOM      9  C   UNL     1      44.579   6.530  12.063  0.00  0.00    +0.000 A 
ATOM     10  C   UNL     1      45.352   5.468  12.564  0.00  0.00    +0.000 A 
BRANCH   8  11
ATOM     11  O   UNL     1      42.588   7.272  11.050  0.00  0.00    +0.000 OA
ATOM     12  H   UNL     1      42.041   7.570  11.795  0.00  0.00    +0.000 HD
ENDBRANCH   8  11
ENDBRANCH   1   2
BRANCH   1  16
ATOM     13  C   UNL     1      49.858   9.381  11.650  0.00  0.00    +0.000 C 
ATOM     14  C   UNL     1      48.344   9.629  11.688  0.00  0.00    +0.000 C 
ATOM     15  C   UNL     1      47.641   8.770  12.745  0.00  0.00    +0.000 C 
ATOM     16  N   UNL     1      47.911   7.329  12.601  0.00  0.00    +0.000 NA
ATOM     17  C   UNL     1      49.356   7.042  12.524  0.00  0.00    +0.000 C 
ATOM     18  C   UNL     1      50.074   7.875  11.459  0.00  0.00    +0.000 C 
BRANCH  13  19
ATOM     19  C   UNL     1      50.544   9.959  12.900  0.00  0.00    +0.000 C 
BRANCH  19  20
ATOM     20  N   UNL     1      51.952   9.599  12.987  0.00  0.00    +0.000 NA
ATOM     21  H   UNL     1      52.114   8.709  12.515  0.00  0.00    +0.000 HD
ATOM     22  H   UNL     1      52.210   9.449  13.966  0.00  0.00    +0.000 HD
ENDBRANCH  19  20
ENDBRANCH  13  19
ENDBRANCH   1  16
TORSDOF 5
ENDMDL
MODEL 8
REMARK VINA RESULT:    -5.249      2.511      6.008
REMARK INTER + INTRA:          -6.436
REMARK INTER:                  -6.100
REMARK INTRA:                  -0.335
REMARK UNBOUND:                 0.040
REMARK  Name = 
REMARK  5 active torsions:
REMARK  status: ('A' for Active; 'I' for Inactive)
REMARK    1  A    between atoms: N_1  and  C_2
REMARK    2  A    between atoms: C_2  and  C_3
REMARK    3  A    between atoms: N_6  and  C_7
REMARK    4  A    between atoms: C_7  and  N_8
REMARK    5  A    between atoms: C_14  and  O_15
REMARK                            x       y       z     vdW  Elec       q    Type
REMARK                         _______ _______ _______ _____ _____    ______ ____
ROOT
ATOM      1  C   UNL     1      45.347   4.473  11.250  0.00  0.00    +0.000 C 
ENDROOT
BRANCH   1   2
ATOM      2  N   UNL     1      45.095   5.908  11.390  0.00  0.00    +0.000 N 
ATOM      3  C   UNL     1      43.863   6.502  11.259  0.00  0.00    +0.000 A 
ATOM      4  C   UNL     1      44.002   7.842  11.531  0.00  0.00    +0.000 A 
ATOM      5  C   UNL     1      45.374   8.088  11.809  0.00  0.00    +0.000 A 
ATOM      6  C   UNL     1      46.097   9.242  12.175  0.00  0.00    +0.000 A 
ATOM      7  C   UNL     1      47.480   9.154  12.382  0.00  0.00    +0.000 A 
ATOM      8  C   UNL     1      48.130   7.941  12.198  0.00  0.00    +0.000 A 
ATOM      9  C   UNL     1      47.447   6.788  11.815  0.00  0.00    +0.000 A 
ATOM     10  C   UNL     1      46.052   6.872  11.657  0.00  0.00    +0.000 A 
BRANCH   8  11
ATOM     11  O   UNL     1      49.476   7.825  12.409  0.00  0.00    +0.000 OA
ATOM     12  H   UNL     1      49.853   7.301  11.684  0.00  0.00    +0.000 HD
ENDBRANCH   8  11
ENDBRANCH   1   2
BRANCH   1  16
ATOM     13  C   UNL     1      45.737   2.513   7.423  0.00  0.00    +0.000 C 
ATOM     14  C   UNL     1      45.745   4.046   7.504  0.00  0.00    +0.000 C 
ATOM     15  C   UNL     1      45.950   4.551   8.935  0.00  0.00    +0.000 C 
ATOM     16  N   UNL     1      44.975   4.003   9.894  0.00  0.00    +0.000 NA
ATOM     17  C   UNL     1      44.904   2.530   9.830  0.00  0.00    +0.000 C 
ATOM     18  C   UNL     1      44.679   2.005   8.410  0.00  0.00    +0.000 C 
BRANCH  13  19
ATOM     19  C   UNL     1      47.144   1.940   7.664  0.00  0.00    +0.000 C 
BRANCH  19  20
ATOM     20  N   UNL     1      47.822   1.572   6.429  0.00  0.00    +0.000 NA
ATOM     21  H   UNL     1      47.587   2.236   5.691  0.00  0.00    +0.000 HD
ATOM     22  H   UNL     1      47.483   0.662   6.107  0.00  0.00    +0.000 HD
ENDBRANCH  19  20
ENDBRANCH  13  19
ENDBRANCH   1  16
TORSDOF 5
ENDMDL
MODEL 9
REMARK VINA RESULT:    -5.186      2.409      5.688
REMARK INTER + INTRA:          -6.358
REMARK INTER:                  -6.811
REMARK INTRA:                   0.452
REMARK UNBOUND:                 0.040
REMARK  Name = 
REMARK  5 active torsions:
REMARK  status: ('A' for Active; 'I' for Inactive)
REMARK    1  A    between atoms: N_1  and  C_2
REMARK    2  A    between atoms: C_2  and  C_3
REMARK    3  A    between atoms: N_6  and  C_7
REMARK    4  A    between atoms: C_7  and  N_8
REMARK    5  A    between atoms: C_14  and  O_15
REMARK                            x       y       z     vdW  Elec       q    Type
REMARK                         _______ _______ _______ _____ _____    ______ ____
ROOT
ATOM      1  C   UNL     1      44.940   3.660  11.650  0.00  0.00    +0.000 C 
ENDROOT
BRANCH   1   2
ATOM      2  N   UNL     1      45.600   4.797  12.293  0.00  0.00    +0.000 N 
ATOM      3  C   UNL     1      46.688   4.700  13.127  0.00  0.00    +0.000 A 
ATOM      4  C   UNL     1      47.075   5.971  13.476  0.00  0.00    +0.000 A 
ATOM      5  C   UNL     1      46.175   6.883  12.861  0.00  0.00    +0.000 A 
ATOM      6  C   UNL     1      46.089   8.290  12.832  0.00  0.00    +0.000 A 
ATOM      7  C   UNL     1      45.054   8.905  12.115  0.00  0.00    +0.000 A 
ATOM      8  C   UNL     1      44.107   8.126  11.464  0.00  0.00    +0.000 A 
ATOM      9  C   UNL     1      44.152   6.733  11.491  0.00  0.00    +0.000 A 
ATOM     10  C   UNL     1      45.222   6.123  12.171  0.00  0.00    +0.000 A 
BRANCH   8  11
ATOM     11  O   UNL     1      43.097   8.701  10.745  0.00  0.00    +0.000 OA
ATOM     12  H   UNL     1      42.273   8.230  10.949  0.00  0.00    +0.000 HD
ENDBRANCH   8  11
ENDBRANCH   1   2
BRANCH   1  16
ATOM     13  C   UNL     1      45.774   3.439   7.420  0.00  0.00    +0.000 C 
ATOM     14  C   UNL     1      46.013   4.750   8.181  0.00  0.00    +0.000 C 
ATOM     15  C   UNL     1      46.002   4.551   9.700  0.00  0.00    +0.000 C 
ATOM     16  N   UNL     1      44.779   3.898  10.196  0.00  0.00    +0.000 NA
ATOM     17  C   UNL     1      44.486   2.647   9.469  0.00  0.00    +0.000 C 
ATOM     18  C   UNL     1      44.471   2.828   7.950  0.00  0.00    +0.000 C 
BRANCH  13  19
ATOM     19  C   UNL     1      46.993   2.506   7.532  0.00  0.00    +0.000 C 
BRANCH  19  20
ATOM     20  N   UNL     1      48.019   2.797   6.540  0.00  0.00    +0.000 NA
ATOM     21  H   UNL     1      48.073   3.803   6.381  0.00  0.00    +0.000 HD
ATOM     22  H   UNL     1      47.757   2.383   5.642  0.00  0.00    +0.000 HD
ENDBRANCH  19  20
ENDBRANCH  13  19
ENDBRANCH   1  16
TORSDOF 5
ENDMDL
