MODEL 1
REMARK VINA RESULT:    -8.178      0.000      0.000
REMARK INTER + INTRA:         -11.357
REMARK INTER:                 -10.568
REMARK INTRA:                  -0.789
REMARK UNBOUND:                -0.789
REMARK  Name = 
REMARK  5 active torsions:
REMARK  status: ('A' for Active; 'I' for Inactive)
REMARK    1  A    between atoms: C_2  and  C_3
REMARK    2  A    between atoms: C_6  and  N_7
REMARK    3  A    between atoms: N_7  and  C_8
REMARK    4  A    between atoms: C_8  and  C_9
REMARK    5  A    between atoms: C_13  and  C_14
REMARK                            x       y       z     vdW  Elec       q    Type
REMARK                         _______ _______ _______ _____ _____    ______ ____
ROOT
ATOM      1  C   UNL     1      44.993   5.293  11.940  0.00  0.00    +0.000 A 
ATOM      2  C   UNL     1      44.922   4.355  12.961  0.00  0.00    +0.000 A 
ATOM      3  N   UNL     1      45.860   4.210  13.920  0.00  0.00    +0.000 NA
ATOM      4  C   UNL     1      46.932   5.039  13.855  0.00  0.00    +0.000 A 
ATOM      5  C   UNL     1      47.143   6.009  12.874  0.00  0.00    +0.000 A 
ATOM      6  C   UNL     1      46.140   6.104  11.895  0.00  0.00    +0.000 A 
ENDROOT
BRANCH   5   7
ATOM      7  C   UNL     1      48.339   6.877  12.867  0.00  0.00    +0.000 A 
ATOM      8  C   UNL     1      48.750   7.588  11.730  0.00  0.00    +0.000 A 
ATOM      9  C   UNL     1      49.898   8.382  11.759  0.00  0.00    +0.000 A 
ATOM     10  C   UNL     1      50.615   8.458  12.938  0.00  0.00    +0.000 A 
ATOM     11  N   UNL     1      50.266   7.803  14.062  0.00  0.00    +0.000 NA
ATOM     12  C   UNL     1      49.149   7.034  13.997  0.00  0.00    +0.000 A 
ENDBRANCH   5   7
BRANCH   1  13
ATOM     13  C   UNL     1      43.935   5.314  10.867  0.00  0.00    +0.000 C 
BRANCH  13  14
ATOM     14  N   UNL     1      43.725   3.988  10.301  0.00  0.00    +0.000 N 
ATOM     15  H   UNL     1      43.386   3.304  10.974  0.00  0.00    +0.000 HD
BRANCH  14  19
ATOM     16  C   UNL     1      46.577   2.497   7.575  0.00  0.00    +0.000 A 
ATOM     17  C   UNL     1      45.879   1.607   8.391  0.00  0.00    +0.000 A 
ATOM     18  C   UNL     1      44.903   2.081   9.276  0.00  0.00    +0.000 A 
ATOM     19  C   UNL     1      44.588   3.443   9.355  0.00  0.00    +0.000 A 
ATOM     20  C   UNL     1      45.303   4.322   8.526  0.00  0.00    +0.000 A 
ATOM     21  C   UNL     1      46.286   3.859   7.642  0.00  0.00    +0.000 A 
BRANCH  16  23
ATOM     22  N   UNL     1      48.419   1.617   5.975  0.00  0.00    +0.000 NA
ATOM     23  C   UNL     1      47.596   2.015   6.690  0.00  0.00    +0.000 C 
ENDBRANCH  16  23
ENDBRANCH  14  19
ENDBRANCH  13  14
ENDBRANCH   1  13
TORSDOF 5
ENDMDL
MODEL 2
REMARK VINA RESULT:    -7.775      1.841      2.136
REMARK INTER + INTRA:         -10.836
REMARK INTER:                  -9.997
REMARK INTRA:                  -0.839
REMARK UNBOUND:                -0.789
REMARK  Name = 
REMARK  5 active torsions:
REMARK  status: ('A' for Active; 'I' for Inactive)
REMARK    1  A    between atoms: C_2  and  C_3
REMARK    2  A    between atoms: C_6  and  N_7
REMARK    3  A    between atoms: N_7  and  C_8
REMARK    4  A    between atoms: C_8  and  C_9
REMARK    5  A    between atoms: C_13  and  C_14
REMARK                            x       y       z     vdW  Elec       q    Type
REMARK                         _______ _______ _______ _____ _____    ______ ____
ROOT
ATOM      1  C   UNL     1      45.202   4.594  12.437  0.00  0.00    +0.000 A 
ATOM      2  C   UNL     1      46.240   4.030  13.166  0.00  0.00    +0.000 A 
ATOM      3  N   UNL     1      47.294   4.723  13.641  0.00  0.00    +0.000 NA
ATOM      4  C   UNL     1      47.323   6.053  13.369  0.00  0.00    +0.000 A 
ATOM      5  C   UNL     1      46.363   6.745  12.632  0.00  0.00    +0.000 A 
ATOM      6  C   UNL     1      45.295   5.968  12.151  0.00  0.00    +0.000 A 
ENDROOT
BRANCH   5   7
ATOM      7  C   UNL     1      46.461   8.197  12.375  0.00  0.00    +0.000 A 
ATOM      8  C   UNL     1      45.340   8.992  12.090  0.00  0.00    +0.000 A 
ATOM      9  C   UNL     1      45.478  10.357  11.833  0.00  0.00    +0.000 A 
ATOM     10  C   UNL     1      46.745  10.909  11.873  0.00  0.00    +0.000 A 
ATOM     11  N   UNL     1      47.855  10.197  12.145  0.00  0.00    +0.000 NA
ATOM     12  C   UNL     1      47.687   8.872  12.383  0.00  0.00    +0.000 A 
ENDBRANCH   5   7
BRANCH   1  13
ATOM     13  C   UNL     1      44.114   3.716  11.876  0.00  0.00    +0.000 C 
BRANCH  13  14
ATOM     14  N   UNL     1      43.879   3.995  10.466  0.00  0.00    +0.000 N 
ATOM     15  H   UNL     1      42.895   4.032  10.213  0.00  0.00    +0.000 HD
BRANCH  14  19
ATOM     16  C   UNL     1      46.557   2.520   7.560  0.00  0.00    +0.000 A 
ATOM     17  C   UNL     1      45.872   1.622   8.379  0.00  0.00    +0.000 A 
ATOM     18  C   UNL     1      44.953   2.092   9.324  0.00  0.00    +0.000 A 
ATOM     19  C   UNL     1      44.681   3.459   9.463  0.00  0.00    +0.000 A 
ATOM     20  C   UNL     1      45.381   4.345   8.629  0.00  0.00    +0.000 A 
ATOM     21  C   UNL     1      46.308   3.886   7.686  0.00  0.00    +0.000 A 
BRANCH  16  23
ATOM     22  N   UNL     1      48.303   1.656   5.848  0.00  0.00    +0.000 NA
ATOM     23  C   UNL     1      47.519   2.040   6.612  0.00  0.00    +0.000 C 
ENDBRANCH  16  23
ENDBRANCH  14  19
ENDBRANCH  13  14
ENDBRANCH   1  13
TORSDOF 5
ENDMDL
MODEL 3
REMARK VINA RESULT:    -7.730      1.576      6.673
REMARK INTER + INTRA:         -10.778
REMARK INTER:                 -10.080
REMARK INTRA:                  -0.698
REMARK UNBOUND:                -0.789
REMARK  Name = 
REMARK  5 active torsions:
REMARK  status: ('A' for Active; 'I' for Inactive)
REMARK    1  A    between atoms: C_2  and  C_3
REMARK    2  A    between atoms: C_6  and  N_7
REMARK    3  A    between atoms: N_7  and  C_8
REMARK    4  A    between atoms: C_8  and  C_9
REMARK    5  A    between atoms: C_13  and  C_14
REMARK                            x       y       z     vdW  Elec       q    Type
REMARK                         _______ _______ _______ _____ _____    ______ ____
ROOT
ATOM      1  C   UNL     1      43.839   4.747  10.668  0.00  0.00    +0.000 A 
ATOM      2  C   UNL     1      43.222   3.694  11.330  0.00  0.00    +0.000 A 
ATOM      3  N   UNL     1      43.412   2.394  11.025  0.00  0.00    +0.000 NA
ATOM      4  C   UNL     1      44.257   2.126   9.997  0.00  0.00    +0.000 A 
ATOM      5  C   UNL     1      44.925   3.082   9.233  0.00  0.00    +0.000 A 
ATOM      6  C   UNL     1      44.678   4.419   9.589  0.00  0.00    +0.000 A 
ENDROOT
BRANCH   5   7
ATOM      7  C   UNL     1      45.832   2.714   8.125  0.00  0.00    +0.000 A 
ATOM      8  C   UNL     1      46.153   3.599   7.085  0.00  0.00    +0.000 A 
ATOM      9  C   UNL     1      46.998   3.206   6.046  0.00  0.00    +0.000 A 
ATOM     10  C   UNL     1      47.517   1.925   6.071  0.00  0.00    +0.000 A 
ATOM     11  N   UNL     1      47.248   1.035   7.044  0.00  0.00    +0.000 NA
ATOM     12  C   UNL     1      46.418   1.447   8.035  0.00  0.00    +0.000 A 
ENDBRANCH   5   7
BRANCH   1  13
ATOM     13  C   UNL     1      43.492   6.168  11.030  0.00  0.00    +0.000 C 
BRANCH  13  14
ATOM     14  N   UNL     1      43.871   6.475  12.402  0.00  0.00    +0.000 N 
ATOM     15  H   UNL     1      43.291   7.188  12.838  0.00  0.00    +0.000 HD
BRANCH  14  19
ATOM     16  C   UNL     1      47.811   6.841  13.862  0.00  0.00    +0.000 A 
ATOM     17  C   UNL     1      47.195   5.590  13.859  0.00  0.00    +0.000 A 
ATOM     18  C   UNL     1      45.901   5.443  13.345  0.00  0.00    +0.000 A 
ATOM     19  C   UNL     1      45.201   6.530  12.807  0.00  0.00    +0.000 A 
ATOM     20  C   UNL     1      45.839   7.781  12.820  0.00  0.00    +0.000 A 
ATOM     21  C   UNL     1      47.130   7.939  13.339  0.00  0.00    +0.000 A 
BRANCH  16  23
ATOM     22  N   UNL     1      50.190   7.117  14.857  0.00  0.00    +0.000 NA
ATOM     23  C   UNL     1      49.124   6.996  14.414  0.00  0.00    +0.000 C 
ENDBRANCH  16  23
ENDBRANCH  14  19
ENDBRANCH  13  14
ENDBRANCH   1  13
TORSDOF 5
ENDMDL
MODEL 4
REMARK VINA RESULT:    -7.577      1.452      6.498
REMARK INTER + INTRA:         -10.580
REMARK INTER:                  -9.782
REMARK INTRA:                  -0.798
REMARK UNBOUND:                -0.789
REMARK  Name = 
REMARK  5 active torsions:
REMARK  status: ('A' for Active; 'I' for Inactive)
REMARK    1  A    between atoms: C_2  and  C_3
REMARK    2  A    between atoms: C_6  and  N_7
REMARK    3  A    between atoms: N_7  and  C_8
REMARK    4  A    between atoms: C_8  and  C_9
REMARK    5  A    between atoms: C_13  and  C_14
REMARK                            x       y       z     vdW  Elec       q    Type
REMARK                         _______ _______ _______ _____ _____    ______ ____
ROOT
ATOM      1  C   UNL     1      43.793   4.839  10.996  0.00  0.00    +0.000 A 
ATOM      2  C   UNL     1      43.135   3.805  11.648  0.00  0.00    +0.000 A 
ATOM      3  N   UNL     1      43.258   2.504  11.317  0.00  0.00    +0.000 NA
ATOM      4  C   UNL     1      44.076   2.214  10.273  0.00  0.00    +0.000 A 
ATOM      5  C   UNL     1      44.779   3.151   9.516  0.00  0.00    +0.000 A 
ATOM      6  C   UNL     1      44.601   4.492   9.899  0.00  0.00    +0.000 A 
ENDROOT
BRANCH   5   7
ATOM      7  C   UNL     1      45.653   2.761   8.389  0.00  0.00    +0.000 A 
ATOM      8  C   UNL     1      46.017   3.654   7.371  0.00  0.00    +0.000 A 
ATOM      9  C   UNL     1      46.828   3.240   6.313  0.00  0.00    +0.000 A 
ATOM     10  C   UNL     1      47.271   1.931   6.298  0.00  0.00    +0.000 A 
ATOM     11  N   UNL     1      46.957   1.031   7.249  0.00  0.00    +0.000 NA
ATOM     12  C   UNL     1      46.161   1.464   8.259  0.00  0.00    +0.000 A 
ENDBRANCH   5   7
BRANCH   1  13
ATOM     13  C   UNL     1      43.518   6.268  11.387  0.00  0.00    +0.000 C 
BRANCH  13  14
ATOM     14  N   UNL     1      44.223   6.630  12.609  0.00  0.00    +0.000 N 
ATOM     15  H   UNL     1      43.657   7.158  13.269  0.00  0.00    +0.000 HD
BRANCH  14  19
ATOM     16  C   UNL     1      48.323   7.588  12.363  0.00  0.00    +0.000 A 
ATOM     17  C   UNL     1      47.372   8.572  12.092  0.00  0.00    +0.000 A 
ATOM     18  C   UNL     1      46.007   8.282  12.204  0.00  0.00    +0.000 A 
ATOM     19  C   UNL     1      45.559   7.017  12.605  0.00  0.00    +0.000 A 
ATOM     20  C   UNL     1      46.533   6.040  12.871  0.00  0.00    +0.000 A 
ATOM     21  C   UNL     1      47.900   6.319  12.755  0.00  0.00    +0.000 A 
BRANCH  16  23
ATOM     22  N   UNL     1      50.851   8.110  12.112  0.00  0.00    +0.000 NA
ATOM     23  C   UNL     1      49.719   7.877  12.220  0.00  0.00    +0.000 C 
ENDBRANCH  16  23
ENDBRANCH  14  19
ENDBRANCH  13  14
ENDBRANCH   1  13
TORSDOF 5
ENDMDL
MODEL 5
REMARK VINA RESULT:    -7.340      1.956      3.205
REMARK INTER + INTRA:         -10.274
REMARK INTER:                  -9.837
REMARK INTRA:                  -0.436
REMARK UNBOUND:                -0.789
REMARK  Name = 
REMARK  5 active torsions:
REMARK  status: ('A' for Active; 'I' for Inactive)
REMARK    1  A    between atoms: C_2  and  C_3
REMARK    2  A    between atoms: C_6  and  N_7
REMARK    3  A    between atoms: N_7  and  C_8
REMARK    4  A    between atoms: C_8  and  C_9
REMARK    5  A    between atoms: C_13  and  C_14
REMARK                            x       y       z     vdW  Elec       q    Type
REMARK                         _______ _______ _______ _____ _____    ______ ____
ROOT
ATOM      1  C   UNL     1      45.179   4.852  12.305  0.00  0.00    +0.000 A 
ATOM      2  C   UNL     1      45.633   6.040  11.749  0.00  0.00    +0.000 A 
ATOM      3  N   UNL     1      46.657   6.764  12.244  0.00  0.00    +0.000 NA
ATOM      4  C   UNL     1      47.260   6.283  13.361  0.00  0.00    +0.000 A 
ATOM      5  C   UNL     1      46.895   5.119  14.036  0.00  0.00    +0.000 A 
ATOM      6  C   UNL     1      45.813   4.414  13.481  0.00  0.00    +0.000 A 
ENDROOT
BRANCH   5   7
ATOM      7  C   UNL     1      47.599   4.657  15.250  0.00  0.00    +0.000 A 
ATOM      8  C   UNL     1      47.640   3.308  15.633  0.00  0.00    +0.000 A 
ATOM      9  C   UNL     1      48.299   2.915  16.799  0.00  0.00    +0.000 A 
ATOM     10  C   UNL     1      48.918   3.886  17.563  0.00  0.00    +0.000 A 
ATOM     11  N   UNL     1      48.916   5.194  17.243  0.00  0.00    +0.000 NA
ATOM     12  C   UNL     1      48.260   5.543  16.108  0.00  0.00    +0.000 A 
ENDBRANCH   5   7
BRANCH   1  13
ATOM     13  C   UNL     1      43.969   4.166  11.726  0.00  0.00    +0.000 C 
BRANCH  13  14
ATOM     14  N   UNL     1      43.903   4.335  10.281  0.00  0.00    +0.000 N 
ATOM     15  H   UNL     1      42.963   4.252   9.900  0.00  0.00    +0.000 HD
BRANCH  14  19
ATOM     16  C   UNL     1      46.642   2.643   7.556  0.00  0.00    +0.000 A 
ATOM     17  C   UNL     1      46.486   4.028   7.599  0.00  0.00    +0.000 A 
ATOM     18  C   UNL     1      45.608   4.609   8.522  0.00  0.00    +0.000 A 
ATOM     19  C   UNL     1      44.883   3.830   9.432  0.00  0.00    +0.000 A 
ATOM     20  C   UNL     1      45.053   2.438   9.371  0.00  0.00    +0.000 A 
ATOM     21  C   UNL     1      45.923   1.846   8.447  0.00  0.00    +0.000 A 
BRANCH  16  23
ATOM     22  N   UNL     1      48.232   1.560   5.817  0.00  0.00    +0.000 NA
ATOM     23  C   UNL     1      47.518   2.046   6.592  0.00  0.00    +0.000 C 
ENDBRANCH  16  23
ENDBRANCH  14  19
ENDBRANCH  13  14
ENDBRANCH   1  13
TORSDOF 5
ENDMDL
MODEL 6
REMARK VINA RESULT:    -7.174      1.313      2.117
REMARK INTER + INTRA:         -10.060
REMARK INTER:                  -9.341
REMARK INTRA:                  -0.719
REMARK UNBOUND:                -0.789
REMARK  Name = 
REMARK  5 active torsions:
REMARK  status: ('A' for Active; 'I' for Inactive)
REMARK    1  A    between atoms: C_2  and  C_3
REMARK    2  A    between atoms: C_6  and  N_7
REMARK    3  A    between atoms: N_7  and  C_8
REMARK    4  A    between atoms: C_8  and  C_9
REMARK    5  A    between atoms: C_13  and  C_14
REMARK                            x       y       z     vdW  Elec       q    Type
REMARK                         _______ _______ _______ _____ _____    ______ ____
ROOT
ATOM      1  C   UNL     1      44.679   5.602  11.622  0.00  0.00    +0.000 A 
ATOM      2  C   UNL     1      43.877   6.713  11.400  0.00  0.00    +0.000 A 
ATOM      3  N   UNL     1      44.306   7.987  11.500  0.00  0.00    +0.000 NA
ATOM      4  C   UNL     1      45.605   8.168  11.848  0.00  0.00    +0.000 A 
ATOM      5  C   UNL     1      46.515   7.148  12.122  0.00  0.00    +0.000 A 
ATOM      6  C   UNL     1      46.008   5.842  12.015  0.00  0.00    +0.000 A 
ENDROOT
BRANCH   5   7
ATOM      7  C   UNL     1      47.919   7.422  12.497  0.00  0.00    +0.000 A 
ATOM      8  C   UNL     1      48.387   7.299  13.814  0.00  0.00    +0.000 A 
ATOM      9  C   UNL     1      49.716   7.587  14.130  0.00  0.00    +0.000 A 
ATOM     10  C   UNL     1      50.561   7.988  13.113  0.00  0.00    +0.000 A 
ATOM     11  N   UNL     1      50.169   8.120  11.831  0.00  0.00    +0.000 NA
ATOM     12  C   UNL     1      48.870   7.839  11.559  0.00  0.00    +0.000 A 
ENDBRANCH   5   7
BRANCH   1  13
ATOM     13  C   UNL     1      44.080   4.221  11.572  0.00  0.00    +0.000 C 
BRANCH  13  14
ATOM     14  N   UNL     1      43.827   3.801  10.200  0.00  0.00    +0.000 N 
ATOM     15  H   UNL     1      42.989   3.235  10.092  0.00  0.00    +0.000 HD
BRANCH  14  19
ATOM     16  C   UNL     1      46.728   2.481   7.437  0.00  0.00    +0.000 A 
ATOM     17  C   UNL     1      46.442   3.843   7.532  0.00  0.00    +0.000 A 
ATOM     18  C   UNL     1      45.508   4.303   8.468  0.00  0.00    +0.000 A 
ATOM     19  C   UNL     1      44.855   3.424   9.341  0.00  0.00    +0.000 A 
ATOM     20  C   UNL     1      45.157   2.057   9.229  0.00  0.00    +0.000 A 
ATOM     21  C   UNL     1      46.084   1.586   8.291  0.00  0.00    +0.000 A 
BRANCH  16  23
ATOM     22  N   UNL     1      48.419   1.631   5.663  0.00  0.00    +0.000 NA
ATOM     23  C   UNL     1      47.662   2.008   6.459  0.00  0.00    +0.000 C 
ENDBRANCH  16  23
ENDBRANCH  14  19
ENDBRANCH  13  14
ENDBRANCH   1  13
TORSDOF 5
ENDMDL
MODEL 7
REMARK VINA RESULT:    -5.939      3.487      7.759
REMARK INTER + INTRA:          -8.463
REMARK INTER:                  -7.730
REMARK INTRA:                  -0.733
REMARK UNBOUND:                -0.789
REMARK  Name = 
REMARK  5 active torsions:
REMARK  status: ('A' for Active; 'I' for Inactive)
REMARK    1  A    between atoms: C_2  and  C_3
REMARK    2  A    between atoms: C_6  and  N_7
REMARK    3  A    between atoms: N_7  and  C_8
REMARK    4  A    between atoms: C_8  and  C_9
REMARK    5  A    between atoms: C_13  and  C_14
REMARK                            x       y       z     vdW  Elec       q    Type
REMARK                         _______ _______ _______ _____ _____    ______ ____
ROOT
ATOM      1  C   UNL     1      48.199   6.986  14.114  0.00  0.00    +0.000 A 
ATOM      2  C   UNL     1      48.763   7.766  13.114  0.00  0.00    +0.000 A 
ATOM      3  N   UNL     1      48.366   7.744  11.825  0.00  0.00    +0.000 NA
ATOM      4  C   UNL     1      47.357   6.892  11.511  0.00  0.00    +0.000 A 
ATOM      5  C   UNL     1      46.716   6.037  12.407  0.00  0.00    +0.000 A 
ATOM      6  C   UNL     1      47.181   6.095  13.733  0.00  0.00    +0.000 A 
ENDROOT
BRANCH   5   7
ATOM      7  C   UNL     1      45.622   5.135  11.992  0.00  0.00    +0.000 A 
ATOM      8  C   UNL     1      45.254   4.002  12.734  0.00  0.00    +0.000 A 
ATOM      9  C   UNL     1      44.228   3.163  12.296  0.00  0.00    +0.000 A 
ATOM     10  C   UNL     1      43.577   3.480  11.118  0.00  0.00    +0.000 A 
ATOM     11  N   UNL     1      43.883   4.555  10.368  0.00  0.00    +0.000 NA
ATOM     12  C   UNL     1      44.891   5.346  10.818  0.00  0.00    +0.000 A 
ENDBRANCH   5   7
BRANCH   1  13
ATOM     13  C   UNL     1      48.774   7.021  15.507  0.00  0.00    +0.000 C 
BRANCH  13  14
ATOM     14  N   UNL     1      48.191   5.985  16.348  0.00  0.00    +0.000 N 
ATOM     15  H   UNL     1      47.545   6.341  17.048  0.00  0.00    +0.000 HD
BRANCH  14  19
ATOM     16  C   UNL     1      50.430   2.565  17.389  0.00  0.00    +0.000 A 
ATOM     17  C   UNL     1      50.970   3.832  17.613  0.00  0.00    +0.000 A 
ATOM     18  C   UNL     1      50.227   4.978  17.307  0.00  0.00    +0.000 A 
ATOM     19  C   UNL     1      48.928   4.891  16.792  0.00  0.00    +0.000 A 
ATOM     20  C   UNL     1      48.403   3.607  16.573  0.00  0.00    +0.000 A 
ATOM     21  C   UNL     1      49.141   2.454  16.868  0.00  0.00    +0.000 A 
BRANCH  16  23
ATOM     22  N   UNL     1      51.824   0.442  17.913  0.00  0.00    +0.000 NA
ATOM     23  C   UNL     1      51.202   1.392  17.675  0.00  0.00    +0.000 C 
ENDBRANCH  16  23
ENDBRANCH  14  19
ENDBRANCH  13  14
ENDBRANCH   1  13
TORSDOF 5
ENDMDL
MODEL 8
REMARK VINA RESULT:    -5.824      2.967      5.502
REMARK INTER + INTRA:          -8.314
REMARK INTER:                  -7.545
REMARK INTRA:                  -0.769
REMARK UNBOUND:                -0.789
REMARK  Name = 
REMARK  5 active torsions:
REMARK  status: ('A' for Active; 'I' for Inactive)
REMARK    1  A    between atoms: C_2  and  C_3
REMARK    2  A    between atoms: C_6  and  N_7
REMARK    3  A    between atoms: N_7  and  C_8
REMARK    4  A    between atoms: C_8  and  C_9
REMARK    5  A    between atoms: C_13  and  C_14
REMARK                            x       y       z     vdW  Elec       q    Type
REMARK                         _______ _______ _______ _____ _____    ______ ____
ROOT
ATOM      1  C   UNL     1      48.579   7.618  13.528  0.00  0.00    +0.000 A 
ATOM      2  C   UNL     1      49.254   8.644  14.176  0.00  0.00    +0.000 A 
ATOM      3  N   UNL     1      49.629   8.603  15.471  0.00  0.00    +0.000 NA
ATOM      4  C   UNL     1      49.309   7.480  16.163  0.00  0.00    +0.000 A 
ATOM      5  C   UNL     1      48.615   6.386  15.648  0.00  0.00    +0.000 A 
ATOM      6  C   UNL     1      48.239   6.492  14.297  0.00  0.00    +0.000 A 
ENDROOT
BRANCH   5   7
ATOM      7  C   UNL     1      48.300   5.194  16.464  0.00  0.00    +0.000 A 
ATOM      8  C   UNL     1      49.173   4.697  17.443  0.00  0.00    +0.000 A 
ATOM      9  C   UNL     1      48.847   3.556  18.179  0.00  0.00    +0.000 A 
ATOM     10  C   UNL     1      47.639   2.933  17.925  0.00  0.00    +0.000 A 
ATOM     11  N   UNL     1      46.761   3.368  17.002  0.00  0.00    +0.000 NA
ATOM     12  C   UNL     1      47.112   4.475  16.299  0.00  0.00    +0.000 A 
ENDBRANCH   5   7
BRANCH   1  13
ATOM     13  C   UNL     1      48.127   7.801  12.103  0.00  0.00    +0.000 C 
BRANCH  13  14
ATOM     14  N   UNL     1      46.682   7.957  12.020  0.00  0.00    +0.000 N 
ATOM     15  H   UNL     1      46.314   8.696  12.615  0.00  0.00    +0.000 HD
BRANCH  14  19
ATOM     16  C   UNL     1      44.342   4.461  11.710  0.00  0.00    +0.000 A 
ATOM     17  C   UNL     1      44.143   5.326  12.786  0.00  0.00    +0.000 A 
ATOM     18  C   UNL     1      44.885   6.508  12.886  0.00  0.00    +0.000 A 
ATOM     19  C   UNL     1      45.825   6.866  11.911  0.00  0.00    +0.000 A 
ATOM     20  C   UNL     1      46.011   5.982  10.836  0.00  0.00    +0.000 A 
ATOM     21  C   UNL     1      45.279   4.792  10.731  0.00  0.00    +0.000 A 
BRANCH  16  23
ATOM     22  N   UNL     1      43.003   2.245  11.560  0.00  0.00    +0.000 NA
ATOM     23  C   UNL     1      43.603   3.237  11.623  0.00  0.00    +0.000 C 
ENDBRANCH  16  23
ENDBRANCH  14  19
ENDBRANCH  13  14
ENDBRANCH   1  13
TORSDOF 5
ENDMDL
MODEL 9
REMARK VINA RESULT:    -5.751      3.021      7.955
REMARK INTER + INTRA:          -8.221
REMARK INTER:                  -7.779
REMARK INTRA:                  -0.441
REMARK UNBOUND:                -0.789
REMARK  Name = 
REMARK  5 active torsions:
REMARK  status: ('A' for Active; 'I' for Inactive)
REMARK    1  A    between atoms: C_2  and  C_3
REMARK    2  A    between atoms: C_6  and  N_7
REMARK    3  A    between atoms: N_7  and  C_8
REMARK    4  A    between atoms: C_8  and  C_9
REMARK    5  A    between atoms: C_13  and  C_14
REMARK                            x       y       z     vdW  Elec       q    Type
REMARK                         _______ _______ _______ _____ _____    ______ ____
ROOT
ATOM      1  C   UNL     1      47.144   7.251  12.993  0.00  0.00    +0.000 A 
ATOM      2  C   UNL     1      46.258   8.319  13.009  0.00  0.00    +0.000 A 
ATOM      3  N   UNL     1      45.118   8.367  12.290  0.00  0.00    +0.000 NA
ATOM      4  C   UNL     1      44.847   7.294  11.504  0.00  0.00    +0.000 A 
ATOM      5  C   UNL     1      45.656   6.166  11.374  0.00  0.00    +0.000 A 
ATOM      6  C   UNL     1      46.837   6.179  12.137  0.00  0.00    +0.000 A 
ENDROOT
BRANCH   5   7
ATOM      7  C   UNL     1      45.296   5.033  10.495  0.00  0.00    +0.000 A 
ATOM      8  C   UNL     1      45.632   4.995   9.134  0.00  0.00    +0.000 A 
ATOM      9  C   UNL     1      45.255   3.915   8.334  0.00  0.00    +0.000 A 
ATOM     10  C   UNL     1      44.549   2.880   8.918  0.00  0.00    +0.000 A 
ATOM     11  N   UNL     1      44.203   2.859  10.219  0.00  0.00    +0.000 NA
ATOM     12  C   UNL     1      44.579   3.927  10.966  0.00  0.00    +0.000 A 
ENDBRANCH   5   7
BRANCH   1  13
ATOM     13  C   UNL     1      48.434   7.334  13.766  0.00  0.00    +0.000 C 
BRANCH  13  14
ATOM     14  N   UNL     1      48.209   7.174  15.196  0.00  0.00    +0.000 N 
ATOM     15  H   UNL     1      47.799   7.991  15.641  0.00  0.00    +0.000 HD
BRANCH  14  19
ATOM     16  C   UNL     1      50.896   4.875  17.494  0.00  0.00    +0.000 A 
ATOM     17  C   UNL     1      51.356   6.021  16.846  0.00  0.00    +0.000 A 
ATOM     18  C   UNL     1      50.471   6.816  16.108  0.00  0.00    +0.000 A 
ATOM     19  C   UNL     1      49.110   6.500  16.015  0.00  0.00    +0.000 A 
ATOM     20  C   UNL     1      48.667   5.342  16.675  0.00  0.00    +0.000 A 
ATOM     21  C   UNL     1      49.546   4.536  17.409  0.00  0.00    +0.000 A 
BRANCH  16  23
ATOM     22  N   UNL     1      52.552   3.378  18.815  0.00  0.00    +0.000 NA
ATOM     23  C   UNL     1      51.808   4.046  18.225  0.00  0.00    +0.000 C 
ENDBRANCH  16  23
ENDBRANCH  14  19
ENDBRANCH  13  14
ENDBRANCH   1  13
TORSDOF 5
ENDMDL
