MODEL 1
REMARK VINA RESULT:    -7.830      0.000      0.000
REMARK INTER + INTRA:         -11.082
REMARK INTER:                 -10.118
REMARK INTRA:                  -0.964
REMARK UNBOUND:                -0.964
REMARK  Name = 
REMARK  6 active torsions:
REMARK  status: ('A' for Active; 'I' for Inactive)
REMARK    1  A    between atoms: C_1  and  C_2
REMARK    2  A    between atoms: N_6  and  C_7
REMARK    3  A    between atoms: C_7  and  C_8
REMARK    4  A    between atoms: C_11  and  O_12
REMARK    5  A    between atoms: O_12  and  C_13
REMARK    6  A    between atoms: C_22  and  C_23
REMARK                            x       y       z     vdW  Elec       q    Type
REMARK                         _______ _______ _______ _____ _____    ______ ____
ROOT
ATOM      1  C   UNL     1      48.822   5.548  16.343  0.00  0.00    +0.000 C 
ATOM      2  C   UNL     1      47.867   5.576  15.196  0.00  0.00    +0.000 A 
ATOM      3  C   UNL     1      47.136   4.467  14.831  0.00  0.00    +0.000 A 
ATOM      4  N   UNL     1      46.201   4.457  13.856  0.00  0.00    +0.000 NA
ATOM      5  C   UNL     1      45.977   5.605  13.210  0.00  0.00    +0.000 A 
ATOM      6  N   UNL     1      44.938   5.779  12.301  0.00  0.00    +0.000 N 
ATOM      7  N   UNL     1      46.668   6.725  13.439  0.00  0.00    +0.000 NA
ATOM      8  C   UNL     1      47.600   6.690  14.428  0.00  0.00    +0.000 A 
ATOM      9  H   UNL     1      45.065   6.676  11.855  0.00  0.00    +0.000 HD
ENDROOT
BRANCH   8  10
ATOM     10  C   UNL     1      48.309   8.005  14.624  0.00  0.00    +0.000 C 
ATOM     11  N   UNL     1      47.603   8.945  15.329  0.00  0.00    +0.000 N 
ATOM     12  O   UNL     1      49.429   8.255  14.194  0.00  0.00    +0.000 OA
ATOM     13  H   UNL     1      46.674   8.722  15.666  0.00  0.00    +0.000 HD
ATOM     14  H   UNL     1      48.005   9.852  15.500  0.00  0.00    +0.000 HD
ENDBRANCH   8  10
BRANCH   6  15
ATOM     15  C   UNL     1      44.248   4.732  11.564  0.00  0.00    +0.000 C 
ATOM     16  C   UNL     1      42.735   4.920  11.497  0.00  0.00    +0.000 C 
ATOM     17  C   UNL     1      43.294   3.709  12.156  0.00  0.00    +0.000 C 
BRANCH  15  18
ATOM     18  C   UNL     1      44.999   4.216  10.341  0.00  0.00    +0.000 A 
ATOM     19  C   UNL     1      44.917   2.856   9.995  0.00  0.00    +0.000 A 
ATOM     20  C   UNL     1      45.308   2.404   8.735  0.00  0.00    +0.000 A 
ATOM     21  C   UNL     1      45.765   3.315   7.789  0.00  0.00    +0.000 A 
ATOM     22  C   UNL     1      46.031   4.628   8.177  0.00  0.00    +0.000 A 
ATOM     23  C   UNL     1      45.662   5.071   9.448  0.00  0.00    +0.000 A 
BRANCH  21  24
ATOM     24  O   UNL     1      46.002   3.014   6.483  0.00  0.00    +0.000 OA
BRANCH  24  25
ATOM     25  C   UNL     1      47.198   2.297   6.189  0.00  0.00    +0.000 C 
ATOM     26  F   UNL     1      48.244   2.575   6.997  0.00  0.00    +0.000 F 
ATOM     27  F   UNL     1      46.951   0.969   6.286  0.00  0.00    +0.000 F 
ATOM     28  F   UNL     1      47.562   2.561   4.915  0.00  0.00    +0.000 F 
ENDBRANCH  24  25
ENDBRANCH  21  24
ENDBRANCH  15  18
ENDBRANCH   6  15
TORSDOF 5
ENDMDL
MODEL 2
REMARK VINA RESULT:    -7.645      1.669      2.115
REMARK INTER + INTRA:         -10.844
REMARK INTER:                 -10.626
REMARK INTRA:                  -0.218
REMARK UNBOUND:                -0.964
REMARK  Name = 
REMARK  6 active torsions:
REMARK  status: ('A' for Active; 'I' for Inactive)
REMARK    1  A    between atoms: C_1  and  C_2
REMARK    2  A    between atoms: N_6  and  C_7
REMARK    3  A    between atoms: C_7  and  C_8
REMARK    4  A    between atoms: C_11  and  O_12
REMARK    5  A    between atoms: O_12  and  C_13
REMARK    6  A    between atoms: C_22  and  C_23
REMARK                            x       y       z     vdW  Elec       q    Type
REMARK                         _______ _______ _______ _____ _____    ______ ____
ROOT
ATOM      1  C   UNL     1      49.470   6.446  15.880  0.00  0.00    +0.000 C 
ATOM      2  C   UNL     1      48.262   5.876  15.213  0.00  0.00    +0.000 A 
ATOM      3  C   UNL     1      47.869   6.276  13.955  0.00  0.00    +0.000 A 
ATOM      4  N   UNL     1      46.834   5.738  13.272  0.00  0.00    +0.000 NA
ATOM      5  C   UNL     1      46.156   4.752  13.866  0.00  0.00    +0.000 A 
ATOM      6  N   UNL     1      45.177   4.003  13.219  0.00  0.00    +0.000 N 
ATOM      7  N   UNL     1      46.411   4.325  15.105  0.00  0.00    +0.000 NA
ATOM      8  C   UNL     1      47.460   4.894  15.756  0.00  0.00    +0.000 A 
ATOM      9  H   UNL     1      44.725   3.422  13.911  0.00  0.00    +0.000 HD
ENDROOT
BRANCH   8  10
ATOM     10  C   UNL     1      47.680   4.332  17.136  0.00  0.00    +0.000 C 
ATOM     11  N   UNL     1      46.917   4.902  18.122  0.00  0.00    +0.000 N 
ATOM     12  O   UNL     1      48.477   3.439  17.399  0.00  0.00    +0.000 OA
ATOM     13  H   UNL     1      46.273   5.647  17.886  0.00  0.00    +0.000 HD
ATOM     14  H   UNL     1      47.007   4.586  19.074  0.00  0.00    +0.000 HD
ENDBRANCH   8  10
BRANCH   6  15
ATOM     15  C   UNL     1      44.414   4.402  12.047  0.00  0.00    +0.000 C 
ATOM     16  C   UNL     1      43.701   5.742  12.204  0.00  0.00    +0.000 C 
ATOM     17  C   UNL     1      42.901   4.510  11.966  0.00  0.00    +0.000 C 
BRANCH  15  18
ATOM     18  C   UNL     1      45.062   4.044  10.715  0.00  0.00    +0.000 A 
ATOM     19  C   UNL     1      44.989   2.725  10.235  0.00  0.00    +0.000 A 
ATOM     20  C   UNL     1      45.274   2.420   8.904  0.00  0.00    +0.000 A 
ATOM     21  C   UNL     1      45.613   3.440   8.023  0.00  0.00    +0.000 A 
ATOM     22  C   UNL     1      45.875   4.716   8.522  0.00  0.00    +0.000 A 
ATOM     23  C   UNL     1      45.614   5.011   9.861  0.00  0.00    +0.000 A 
BRANCH  21  24
ATOM     24  O   UNL     1      45.736   3.284   6.677  0.00  0.00    +0.000 OA
BRANCH  24  25
ATOM     25  C   UNL     1      46.926   2.659   6.201  0.00  0.00    +0.000 C 
ATOM     26  F   UNL     1      48.054   3.003   6.861  0.00  0.00    +0.000 F 
ATOM     27  F   UNL     1      46.788   1.316   6.301  0.00  0.00    +0.000 F 
ATOM     28  F   UNL     1      47.087   2.965   4.895  0.00  0.00    +0.000 F 
ENDBRANCH  24  25
ENDBRANCH  21  24
ENDBRANCH  15  18
ENDBRANCH   6  15
TORSDOF 5
ENDMDL
MODEL 3
REMARK VINA RESULT:    -6.321      5.438      8.861
REMARK INTER + INTRA:          -9.133
REMARK INTER:                  -8.578
REMARK INTRA:                  -0.554
REMARK UNBOUND:                -0.964
REMARK  Name = 
REMARK  6 active torsions:
REMARK  status: ('A' for Active; 'I' for Inactive)
REMARK    1  A    between atoms: C_1  and  C_2
REMARK    2  A    between atoms: N_6  and  C_7
REMARK    3  A    between atoms: C_7  and  C_8
REMARK    4  A    between atoms: C_11  and  O_12
REMARK    5  A    between atoms: O_12  and  C_13
REMARK    6  A    between atoms: C_22  and  C_23
REMARK                            x       y       z     vdW  Elec       q    Type
REMARK                         _______ _______ _______ _____ _____    ______ ____
ROOT
ATOM      1  C   UNL     1      46.426   6.268  11.397  0.00  0.00    +0.000 C 
ATOM      2  C   UNL     1      46.822   5.802  12.759  0.00  0.00    +0.000 A 
ATOM      3  C   UNL     1      47.870   6.373  13.446  0.00  0.00    +0.000 A 
ATOM      4  N   UNL     1      48.221   6.047  14.710  0.00  0.00    +0.000 NA
ATOM      5  C   UNL     1      47.495   5.109  15.324  0.00  0.00    +0.000 A 
ATOM      6  N   UNL     1      47.641   4.792  16.672  0.00  0.00    +0.000 N 
ATOM      7  N   UNL     1      46.496   4.448  14.734  0.00  0.00    +0.000 NA
ATOM      8  C   UNL     1      46.177   4.807  13.463  0.00  0.00    +0.000 A 
ATOM      9  H   UNL     1      47.083   3.970  16.858  0.00  0.00    +0.000 HD
ENDROOT
BRANCH   8  10
ATOM     10  C   UNL     1      45.026   4.020  12.893  0.00  0.00    +0.000 C 
ATOM     11  N   UNL     1      45.348   2.768  12.439  0.00  0.00    +0.000 N 
ATOM     12  O   UNL     1      43.875   4.437  12.816  0.00  0.00    +0.000 OA
ATOM     13  H   UNL     1      46.307   2.447  12.500  0.00  0.00    +0.000 HD
ATOM     14  H   UNL     1      44.637   2.179  12.038  0.00  0.00    +0.000 HD
ENDBRANCH   8  10
BRANCH   6  15
ATOM     15  C   UNL     1      48.816   5.031  17.495  0.00  0.00    +0.000 C 
ATOM     16  C   UNL     1      48.499   5.633  18.860  0.00  0.00    +0.000 C 
ATOM     17  C   UNL     1      49.351   6.392  17.906  0.00  0.00    +0.000 C 
BRANCH  15  18
ATOM     18  C   UNL     1      49.904   3.970  17.372  0.00  0.00    +0.000 A 
ATOM     19  C   UNL     1      51.239   4.303  17.656  0.00  0.00    +0.000 A 
ATOM     20  C   UNL     1      52.203   3.318  17.871  0.00  0.00    +0.000 A 
ATOM     21  C   UNL     1      51.837   1.977  17.830  0.00  0.00    +0.000 A 
ATOM     22  C   UNL     1      50.569   1.629  17.364  0.00  0.00    +0.000 A 
ATOM     23  C   UNL     1      49.614   2.619  17.125  0.00  0.00    +0.000 A 
BRANCH  21  24
ATOM     24  O   UNL     1      52.646   0.947  18.196  0.00  0.00    +0.000 OA
BRANCH  24  25
ATOM     25  C   UNL     1      53.838   0.757  17.438  0.00  0.00    +0.000 C 
ATOM     26  F   UNL     1      54.450   1.894  17.040  0.00  0.00    +0.000 F 
ATOM     27  F   UNL     1      54.726   0.055  18.181  0.00  0.00    +0.000 F 
ATOM     28  F   UNL     1      53.543   0.026  16.340  0.00  0.00    +0.000 F 
ENDBRANCH  24  25
ENDBRANCH  21  24
ENDBRANCH  15  18
ENDBRANCH   6  15
TORSDOF 5
ENDMDL
MODEL 4
REMARK VINA RESULT:    -5.928      2.829      4.185
REMARK INTER + INTRA:          -8.625
REMARK INTER:                  -8.338
REMARK INTRA:                  -0.287
REMARK UNBOUND:                -0.964
REMARK  Name = 
REMARK  6 active torsions:
REMARK  status: ('A' for Active; 'I' for Inactive)
REMARK    1  A    between atoms: C_1  and  C_2
REMARK    2  A    between atoms: N_6  and  C_7
REMARK    3  A    between atoms: C_7  and  C_8
REMARK    4  A    between atoms: C_11  and  O_12
REMARK    5  A    between atoms: O_12  and  C_13
REMARK    6  A    between atoms: C_22  and  C_23
REMARK                            x       y       z     vdW  Elec       q    Type
REMARK                         _______ _______ _______ _____ _____    ______ ____
ROOT
ATOM      1  C   UNL     1      49.701   8.110  18.770  0.00  0.00    +0.000 C 
ATOM      2  C   UNL     1      49.230   7.567  17.462  0.00  0.00    +0.000 A 
ATOM      3  C   UNL     1      48.703   8.381  16.484  0.00  0.00    +0.000 A 
ATOM      4  N   UNL     1      48.337   7.957  15.254  0.00  0.00    +0.000 NA
ATOM      5  C   UNL     1      48.502   6.660  14.979  0.00  0.00    +0.000 A 
ATOM      6  N   UNL     1      48.320   6.120  13.709  0.00  0.00    +0.000 N 
ATOM      7  N   UNL     1      48.947   5.770  15.870  0.00  0.00    +0.000 NA
ATOM      8  C   UNL     1      49.304   6.239  17.094  0.00  0.00    +0.000 A 
ATOM      9  H   UNL     1      48.370   5.115  13.791  0.00  0.00    +0.000 HD
ENDROOT
BRANCH   8  10
ATOM     10  C   UNL     1      49.812   5.165  18.019  0.00  0.00    +0.000 C 
ATOM     11  N   UNL     1      51.107   4.776  17.800  0.00  0.00    +0.000 N 
ATOM     12  O   UNL     1      49.144   4.646  18.908  0.00  0.00    +0.000 OA
ATOM     13  H   UNL     1      51.638   5.208  17.053  0.00  0.00    +0.000 HD
ATOM     14  H   UNL     1      51.521   4.059  18.373  0.00  0.00    +0.000 HD
ENDBRANCH   8  10
BRANCH   6  15
ATOM     15  C   UNL     1      47.522   6.687  12.634  0.00  0.00    +0.000 C 
ATOM     16  C   UNL     1      48.336   7.474  11.611  0.00  0.00    +0.000 C 
ATOM     17  C   UNL     1      47.277   8.167  12.393  0.00  0.00    +0.000 C 
BRANCH  15  18
ATOM     18  C   UNL     1      46.371   5.804  12.163  0.00  0.00    +0.000 A 
ATOM     19  C   UNL     1      45.668   6.139  10.994  0.00  0.00    +0.000 A 
ATOM     20  C   UNL     1      44.841   5.215  10.355  0.00  0.00    +0.000 A 
ATOM     21  C   UNL     1      44.726   3.927  10.866  0.00  0.00    +0.000 A 
ATOM     22  C   UNL     1      45.261   3.640  12.122  0.00  0.00    +0.000 A 
ATOM     23  C   UNL     1      46.067   4.577  12.771  0.00  0.00    +0.000 A 
BRANCH  21  24
ATOM     24  O   UNL     1      44.095   2.901  10.233  0.00  0.00    +0.000 OA
BRANCH  24  25
ATOM     25  C   UNL     1      44.744   2.346   9.092  0.00  0.00    +0.000 C 
ATOM     26  F   UNL     1      46.094   2.385   9.127  0.00  0.00    +0.000 F 
ATOM     27  F   UNL     1      44.378   1.048   8.965  0.00  0.00    +0.000 F 
ATOM     28  F   UNL     1      44.327   3.006   7.989  0.00  0.00    +0.000 F 
ENDBRANCH  24  25
ENDBRANCH  21  24
ENDBRANCH  15  18
ENDBRANCH   6  15
TORSDOF 5
ENDMDL
MODEL 5
REMARK VINA RESULT:    -5.799      4.416      5.885
REMARK INTER + INTRA:          -8.458
REMARK INTER:                  -7.421
REMARK INTRA:                  -1.037
REMARK UNBOUND:                -0.964
REMARK  Name = 
REMARK  6 active torsions:
REMARK  status: ('A' for Active; 'I' for Inactive)
REMARK    1  A    between atoms: C_1  and  C_2
REMARK    2  A    between atoms: N_6  and  C_7
REMARK    3  A    between atoms: C_7  and  C_8
REMARK    4  A    between atoms: C_11  and  O_12
REMARK    5  A    between atoms: O_12  and  C_13
REMARK    6  A    between atoms: C_22  and  C_23
REMARK                            x       y       z     vdW  Elec       q    Type
REMARK                         _______ _______ _______ _____ _____    ______ ____
ROOT
ATOM      1  C   UNL     1      49.003   7.543  19.543  0.00  0.00    +0.000 C 
ATOM      2  C   UNL     1      49.106   7.345  18.067  0.00  0.00    +0.000 A 
ATOM      3  C   UNL     1      48.515   8.212  17.174  0.00  0.00    +0.000 A 
ATOM      4  N   UNL     1      48.644   8.127  15.832  0.00  0.00    +0.000 NA
ATOM      5  C   UNL     1      49.397   7.135  15.349  0.00  0.00    +0.000 A 
ATOM      6  N   UNL     1      49.745   7.025  14.006  0.00  0.00    +0.000 N 
ATOM      7  N   UNL     1      49.967   6.203  16.118  0.00  0.00    +0.000 NA
ATOM      8  C   UNL     1      49.813   6.326  17.463  0.00  0.00    +0.000 A 
ATOM      9  H   UNL     1      50.195   6.129  13.876  0.00  0.00    +0.000 HD
ENDROOT
BRANCH   8  10
ATOM     10  C   UNL     1      50.509   5.242  18.243  0.00  0.00    +0.000 C 
ATOM     11  N   UNL     1      49.765   4.109  18.452  0.00  0.00    +0.000 N 
ATOM     12  O   UNL     1      51.650   5.331  18.682  0.00  0.00    +0.000 OA
ATOM     13  H   UNL     1      48.820   4.060  18.091  0.00  0.00    +0.000 HD
ATOM     14  H   UNL     1      50.156   3.339  18.969  0.00  0.00    +0.000 HD
ENDBRANCH   8  10
BRANCH   6  15
ATOM     15  C   UNL     1      49.041   7.614  12.878  0.00  0.00    +0.000 C 
ATOM     16  C   UNL     1      49.943   7.942  11.692  0.00  0.00    +0.000 C 
ATOM     17  C   UNL     1      49.205   9.038  12.375  0.00  0.00    +0.000 C 
BRANCH  15  18
ATOM     18  C   UNL     1      47.648   7.047  12.632  0.00  0.00    +0.000 A 
ATOM     19  C   UNL     1      47.394   5.687  12.877  0.00  0.00    +0.000 A 
ATOM     20  C   UNL     1      46.092   5.198  12.978  0.00  0.00    +0.000 A 
ATOM     21  C   UNL     1      45.018   6.073  12.859  0.00  0.00    +0.000 A 
ATOM     22  C   UNL     1      45.246   7.380  12.428  0.00  0.00    +0.000 A 
ATOM     23  C   UNL     1      46.551   7.859  12.302  0.00  0.00    +0.000 A 
BRANCH  21  24
ATOM     24  O   UNL     1      43.723   5.742  13.114  0.00  0.00    +0.000 OA
BRANCH  24  25
ATOM     25  C   UNL     1      43.004   5.084  12.074  0.00  0.00    +0.000 C 
ATOM     26  F   UNL     1      43.587   5.135  10.856  0.00  0.00    +0.000 F 
ATOM     27  F   UNL     1      42.856   3.778  12.400  0.00  0.00    +0.000 F 
ATOM     28  F   UNL     1      41.773   5.632  11.981  0.00  0.00    +0.000 F 
ENDBRANCH  24  25
ENDBRANCH  21  24
ENDBRANCH  15  18
ENDBRANCH   6  15
TORSDOF 5
ENDMDL
MODEL 6
REMARK VINA RESULT:    -5.742      5.155      8.650
REMARK INTER + INTRA:          -8.385
REMARK INTER:                  -7.665
REMARK INTRA:                  -0.720
REMARK UNBOUND:                -0.964
REMARK  Name = 
REMARK  6 active torsions:
REMARK  status: ('A' for Active; 'I' for Inactive)
REMARK    1  A    between atoms: C_1  and  C_2
REMARK    2  A    between atoms: N_6  and  C_7
REMARK    3  A    between atoms: C_7  and  C_8
REMARK    4  A    between atoms: C_11  and  O_12
REMARK    5  A    between atoms: O_12  and  C_13
REMARK    6  A    between atoms: C_22  and  C_23
REMARK                            x       y       z     vdW  Elec       q    Type
REMARK                         _______ _______ _______ _____ _____    ______ ____
ROOT
ATOM      1  C   UNL     1      44.395   4.506   9.897  0.00  0.00    +0.000 C 
ATOM      2  C   UNL     1      45.006   5.414  10.913  0.00  0.00    +0.000 A 
ATOM      3  C   UNL     1      46.300   5.870  10.795  0.00  0.00    +0.000 A 
ATOM      4  N   UNL     1      46.876   6.755  11.639  0.00  0.00    +0.000 NA
ATOM      5  C   UNL     1      46.131   7.211  12.649  0.00  0.00    +0.000 A 
ATOM      6  N   UNL     1      46.539   8.240  13.494  0.00  0.00    +0.000 N 
ATOM      7  N   UNL     1      44.886   6.794  12.894  0.00  0.00    +0.000 NA
ATOM      8  C   UNL     1      44.346   5.903  12.020  0.00  0.00    +0.000 A 
ATOM      9  H   UNL     1      45.869   8.305  14.248  0.00  0.00    +0.000 HD
ENDROOT
BRANCH   8  10
ATOM     10  C   UNL     1      42.934   5.509  12.369  0.00  0.00    +0.000 C 
ATOM     11  N   UNL     1      41.958   6.256  11.762  0.00  0.00    +0.000 N 
ATOM     12  O   UNL     1      42.641   4.601  13.138  0.00  0.00    +0.000 OA
ATOM     13  H   UNL     1      42.222   7.010  11.139  0.00  0.00    +0.000 HD
ATOM     14  H   UNL     1      40.988   6.060  11.946  0.00  0.00    +0.000 HD
ENDBRANCH   8  10
BRANCH   6  15
ATOM     15  C   UNL     1      47.908   8.661  13.747  0.00  0.00    +0.000 C 
ATOM     16  C   UNL     1      48.207  10.088  13.299  0.00  0.00    +0.000 C 
ATOM     17  C   UNL     1      48.957   8.957  12.690  0.00  0.00    +0.000 C 
BRANCH  15  18
ATOM     18  C   UNL     1      48.501   8.140  15.052  0.00  0.00    +0.000 A 
ATOM     19  C   UNL     1      48.263   8.833  16.252  0.00  0.00    +0.000 A 
ATOM     20  C   UNL     1      48.502   8.239  17.491  0.00  0.00    +0.000 A 
ATOM     21  C   UNL     1      48.960   6.927  17.549  0.00  0.00    +0.000 A 
ATOM     22  C   UNL     1      49.380   6.298  16.377  0.00  0.00    +0.000 A 
ATOM     23  C   UNL     1      49.163   6.906  15.139  0.00  0.00    +0.000 A 
BRANCH  21  24
ATOM     24  O   UNL     1      49.057   6.196  18.692  0.00  0.00    +0.000 OA
BRANCH  24  25
ATOM     25  C   UNL     1      47.908   5.449  19.083  0.00  0.00    +0.000 C 
ATOM     26  F   UNL     1      46.867   5.508  18.223  0.00  0.00    +0.000 F 
ATOM     27  F   UNL     1      48.253   4.146  19.215  0.00  0.00    +0.000 F 
ATOM     28  F   UNL     1      47.489   5.892  20.289  0.00  0.00    +0.000 F 
ENDBRANCH  24  25
ENDBRANCH  21  24
ENDBRANCH  15  18
ENDBRANCH   6  15
TORSDOF 5
ENDMDL
MODEL 7
REMARK VINA RESULT:    -5.517      5.357      9.137
REMARK INTER + INTRA:          -8.094
REMARK INTER:                  -7.921
REMARK INTRA:                  -0.173
REMARK UNBOUND:                -0.964
REMARK  Name = 
REMARK  6 active torsions:
REMARK  status: ('A' for Active; 'I' for Inactive)
REMARK    1  A    between atoms: C_1  and  C_2
REMARK    2  A    between atoms: N_6  and  C_7
REMARK    3  A    between atoms: C_7  and  C_8
REMARK    4  A    between atoms: C_11  and  O_12
REMARK    5  A    between atoms: O_12  and  C_13
REMARK    6  A    between atoms: C_22  and  C_23
REMARK                            x       y       z     vdW  Elec       q    Type
REMARK                         _______ _______ _______ _____ _____    ______ ____
ROOT
ATOM      1  C   UNL     1      46.509   6.521  11.473  0.00  0.00    +0.000 C 
ATOM      2  C   UNL     1      46.726   5.755  12.736  0.00  0.00    +0.000 A 
ATOM      3  C   UNL     1      47.689   6.120  13.651  0.00  0.00    +0.000 A 
ATOM      4  N   UNL     1      47.875   5.515  14.845  0.00  0.00    +0.000 NA
ATOM      5  C   UNL     1      47.065   4.496  15.147  0.00  0.00    +0.000 A 
ATOM      6  N   UNL     1      47.038   3.889  16.400  0.00  0.00    +0.000 N 
ATOM      7  N   UNL     1      46.138   4.020  14.313  0.00  0.00    +0.000 NA
ATOM      8  C   UNL     1      45.985   4.658  13.123  0.00  0.00    +0.000 A 
ATOM      9  H   UNL     1      46.450   3.070  16.333  0.00  0.00    +0.000 HD
ENDROOT
BRANCH   8  10
ATOM     10  C   UNL     1      44.902   4.061  12.261  0.00  0.00    +0.000 C 
ATOM     11  N   UNL     1      43.727   3.791  12.912  0.00  0.00    +0.000 N 
ATOM     12  O   UNL     1      45.029   3.813  11.067  0.00  0.00    +0.000 OA
ATOM     13  H   UNL     1      43.647   3.993  13.902  0.00  0.00    +0.000 HD
ATOM     14  H   UNL     1      42.954   3.387  12.409  0.00  0.00    +0.000 HD
ENDBRANCH   8  10
BRANCH   6  15
ATOM     15  C   UNL     1      48.104   3.896  17.389  0.00  0.00    +0.000 C 
ATOM     16  C   UNL     1      49.297   3.021  17.015  0.00  0.00    +0.000 C 
ATOM     17  C   UNL     1      48.525   2.719  18.250  0.00  0.00    +0.000 C 
BRANCH  15  18
ATOM     18  C   UNL     1      48.339   5.245  18.060  0.00  0.00    +0.000 A 
ATOM     19  C   UNL     1      49.506   5.974  17.773  0.00  0.00    +0.000 A 
ATOM     20  C   UNL     1      49.615   7.326  18.099  0.00  0.00    +0.000 A 
ATOM     21  C   UNL     1      48.543   7.978  18.697  0.00  0.00    +0.000 A 
ATOM     22  C   UNL     1      47.460   7.230  19.159  0.00  0.00    +0.000 A 
ATOM     23  C   UNL     1      47.366   5.871  18.853  0.00  0.00    +0.000 A 
BRANCH  21  24
ATOM     24  O   UNL     1      48.473   9.322  18.895  0.00  0.00    +0.000 OA
BRANCH  24  25
ATOM     25  C   UNL     1      47.999  10.114  17.808  0.00  0.00    +0.000 C 
ATOM     26  F   UNL     1      47.477   9.415  16.777  0.00  0.00    +0.000 F 
ATOM     27  F   UNL     1      47.038  10.953  18.261  0.00  0.00    +0.000 F 
ATOM     28  F   UNL     1      49.020  10.865  17.339  0.00  0.00    +0.000 F 
ENDBRANCH  24  25
ENDBRANCH  21  24
ENDBRANCH  15  18
ENDBRANCH   6  15
TORSDOF 5
ENDMDL
MODEL 8
REMARK VINA RESULT:    -5.408      5.070      7.369
REMARK INTER + INTRA:          -7.953
REMARK INTER:                  -7.077
REMARK INTRA:                  -0.875
REMARK UNBOUND:                -0.964
REMARK  Name = 
REMARK  6 active torsions:
REMARK  status: ('A' for Active; 'I' for Inactive)
REMARK    1  A    between atoms: C_1  and  C_2
REMARK    2  A    between atoms: N_6  and  C_7
REMARK    3  A    between atoms: C_7  and  C_8
REMARK    4  A    between atoms: C_11  and  O_12
REMARK    5  A    between atoms: O_12  and  C_13
REMARK    6  A    between atoms: C_22  and  C_23
REMARK                            x       y       z     vdW  Elec       q    Type
REMARK                         _______ _______ _______ _____ _____    ______ ____
ROOT
ATOM      1  C   UNL     1      53.087   0.634  17.538  0.00  0.00    +0.000 C 
ATOM      2  C   UNL     1      52.240   1.863  17.579  0.00  0.00    +0.000 A 
ATOM      3  C   UNL     1      50.873   1.810  17.414  0.00  0.00    +0.000 A 
ATOM      4  N   UNL     1      50.051   2.877  17.522  0.00  0.00    +0.000 NA
ATOM      5  C   UNL     1      50.611   4.055  17.809  0.00  0.00    +0.000 A 
ATOM      6  N   UNL     1      49.874   5.198  18.106  0.00  0.00    +0.000 N 
ATOM      7  N   UNL     1      51.929   4.234  17.931  0.00  0.00    +0.000 NA
ATOM      8  C   UNL     1      52.719   3.134  17.815  0.00  0.00    +0.000 A 
ATOM      9  H   UNL     1      50.516   5.977  18.151  0.00  0.00    +0.000 HD
ENDROOT
BRANCH   8  10
ATOM     10  C   UNL     1      54.185   3.434  17.988  0.00  0.00    +0.000 C 
ATOM     11  N   UNL     1      54.563   3.759  19.265  0.00  0.00    +0.000 N 
ATOM     12  O   UNL     1      55.008   3.407  17.079  0.00  0.00    +0.000 OA
ATOM     13  H   UNL     1      53.866   3.787  19.999  0.00  0.00    +0.000 HD
ATOM     14  H   UNL     1      55.526   3.977  19.464  0.00  0.00    +0.000 HD
ENDBRANCH   8  10
BRANCH   6  15
ATOM     15  C   UNL     1      48.494   5.460  17.730  0.00  0.00    +0.000 C 
ATOM     16  C   UNL     1      47.805   6.506  18.602  0.00  0.00    +0.000 C 
ATOM     17  C   UNL     1      47.267   5.120  18.557  0.00  0.00    +0.000 C 
BRANCH  15  18
ATOM     18  C   UNL     1      48.231   5.439  16.228  0.00  0.00    +0.000 A 
ATOM     19  C   UNL     1      47.415   4.435  15.677  0.00  0.00    +0.000 A 
ATOM     20  C   UNL     1      46.889   4.553  14.390  0.00  0.00    +0.000 A 
ATOM     21  C   UNL     1      47.152   5.695  13.642  0.00  0.00    +0.000 A 
ATOM     22  C   UNL     1      48.107   6.605  14.096  0.00  0.00    +0.000 A 
ATOM     23  C   UNL     1      48.652   6.469  15.374  0.00  0.00    +0.000 A 
BRANCH  21  24
ATOM     24  O   UNL     1      46.552   5.994  12.459  0.00  0.00    +0.000 OA
BRANCH  24  25
ATOM     25  C   UNL     1      45.326   6.720  12.517  0.00  0.00    +0.000 C 
ATOM     26  F   UNL     1      45.393   7.903  13.167  0.00  0.00    +0.000 F 
ATOM     27  F   UNL     1      44.903   6.972  11.256  0.00  0.00    +0.000 F 
ATOM     28  F   UNL     1      44.394   5.953  13.124  0.00  0.00    +0.000 F 
ENDBRANCH  24  25
ENDBRANCH  21  24
ENDBRANCH  15  18
ENDBRANCH   6  15
TORSDOF 5
ENDMDL
MODEL 9
REMARK VINA RESULT:    -5.003      5.010      8.222
REMARK INTER + INTRA:          -7.430
REMARK INTER:                  -6.864
REMARK INTRA:                  -0.565
REMARK UNBOUND:                -0.964
REMARK  Name = 
REMARK  6 active torsions:
REMARK  status: ('A' for Active; 'I' for Inactive)
REMARK    1  A    between atoms: C_1  and  C_2
REMARK    2  A    between atoms: N_6  and  C_7
REMARK    3  A    between atoms: C_7  and  C_8
REMARK    4  A    between atoms: C_11  and  O_12
REMARK    5  A    between atoms: O_12  and  C_13
REMARK    6  A    between atoms: C_22  and  C_23
REMARK                            x       y       z     vdW  Elec       q    Type
REMARK                         _______ _______ _______ _____ _____    ______ ____
ROOT
ATOM      1  C   UNL     1      46.367   6.154  10.871  0.00  0.00    +0.000 C 
ATOM      2  C   UNL     1      46.990   6.852  12.034  0.00  0.00    +0.000 A 
ATOM      3  C   UNL     1      48.191   6.443  12.570  0.00  0.00    +0.000 A 
ATOM      4  N   UNL     1      48.838   7.084  13.568  0.00  0.00    +0.000 NA
ATOM      5  C   UNL     1      48.268   8.189  14.057  0.00  0.00    +0.000 A 
ATOM      6  N   UNL     1      48.897   9.033  14.968  0.00  0.00    +0.000 N 
ATOM      7  N   UNL     1      47.079   8.644  13.655  0.00  0.00    +0.000 NA
ATOM      8  C   UNL     1      46.462   7.968  12.649  0.00  0.00    +0.000 A 
ATOM      9  H   UNL     1      48.217   9.710  15.282  0.00  0.00    +0.000 HD
ENDROOT
BRANCH   8  10
ATOM     10  C   UNL     1      45.139   8.569  12.252  0.00  0.00    +0.000 C 
ATOM     11  N   UNL     1      44.839   9.761  12.858  0.00  0.00    +0.000 N 
ATOM     12  O   UNL     1      44.358   8.056  11.458  0.00  0.00    +0.000 OA
ATOM     13  H   UNL     1      45.492  10.162  13.520  0.00  0.00    +0.000 HD
ATOM     14  H   UNL     1      43.970  10.227  12.650  0.00  0.00    +0.000 HD
ENDBRANCH   8  10
BRANCH   6  15
ATOM     15  C   UNL     1      49.988   8.682  15.863  0.00  0.00    +0.000 C 
ATOM     16  C   UNL     1      50.747   9.886  16.411  0.00  0.00    +0.000 C 
ATOM     17  C   UNL     1      51.467   8.882  15.583  0.00  0.00    +0.000 C 
BRANCH  15  18
ATOM     18  C   UNL     1      49.705   7.491  16.772  0.00  0.00    +0.000 A 
ATOM     19  C   UNL     1      48.575   7.504  17.608  0.00  0.00    +0.000 A 
ATOM     20  C   UNL     1      48.101   6.336  18.204  0.00  0.00    +0.000 A 
ATOM     21  C   UNL     1      48.739   5.126  17.951  0.00  0.00    +0.000 A 
ATOM     22  C   UNL     1      49.964   5.127  17.285  0.00  0.00    +0.000 A 
ATOM     23  C   UNL     1      50.449   6.304  16.711  0.00  0.00    +0.000 A 
BRANCH  21  24
ATOM     24  O   UNL     1      48.262   3.911  18.332  0.00  0.00    +0.000 OA
BRANCH  24  25
ATOM     25  C   UNL     1      47.664   3.102  17.322  0.00  0.00    +0.000 C 
ATOM     26  F   UNL     1      46.675   2.288  17.753  0.00  0.00    +0.000 F 
ATOM     27  F   UNL     1      47.142   3.906  16.365  0.00  0.00    +0.000 F 
ATOM     28  F   UNL     1      48.622   2.340  16.749  0.00  0.00    +0.000 F 
ENDBRANCH  24  25
ENDBRANCH  21  24
ENDBRANCH  15  18
ENDBRANCH   6  15
TORSDOF 5
ENDMDL
