MODEL 1
REMARK VINA RESULT:    -7.280      0.000      0.000
REMARK INTER + INTRA:         -11.408
REMARK INTER:                 -10.259
REMARK INTRA:                  -1.149
REMARK UNBOUND:                -1.149
REMARK  Name = 
REMARK  8 active torsions:
REMARK  status: ('A' for Active; 'I' for Inactive)
REMARK    1  A    between atoms: C_1  and  O_2
REMARK    2  A    between atoms: O_2  and  C_3
REMARK    3  A    between atoms: C_8  and  C_9
REMARK    4  A    between atoms: N_11  and  C_12
REMARK    5  A    between atoms: C_12  and  C_13
REMARK    6  A    between atoms: C_16  and  C_17
REMARK    7  A    between atoms: C_17  and  N_18
REMARK    8  A    between atoms: C_19  and  C_21
REMARK                            x       y       z     vdW  Elec       q    Type
REMARK                         _______ _______ _______ _____ _____    ______ ____
ROOT
ATOM      1  C   UNL     1      50.034   7.393  15.357  0.00  0.00    +0.000 A 
ATOM      2  C   UNL     1      50.193   8.475  14.494  0.00  0.00    +0.000 A 
ATOM      3  C   UNL     1      49.321   8.623  13.415  0.00  0.00    +0.000 A 
ATOM      4  C   UNL     1      48.316   7.678  13.197  0.00  0.00    +0.000 A 
ATOM      5  C   UNL     1      48.218   6.644  14.123  0.00  0.00    +0.000 A 
ATOM      6  N   UNL     1      49.046   6.477  15.187  0.00  0.00    +0.000 NA
ENDROOT
BRANCH   1   7
ATOM      7  C   UNL     1      50.996   7.208  16.514  0.00  0.00    +0.000 C 
BRANCH   7  10
ATOM      8  C   UNL     1      51.109   5.126  17.862  0.00  0.00    +0.000 C 
ATOM      9  O   UNL     1      50.488   5.640  18.780  0.00  0.00    +0.000 OA
ATOM     10  N   UNL     1      51.405   5.828  16.702  0.00  0.00    +0.000 N 
ATOM     11  H   UNL     1      52.011   5.382  16.021  0.00  0.00    +0.000 HD
BRANCH   8  17
ATOM     12  C   UNL     1      50.916   2.635  17.316  0.00  0.00    +0.000 A 
ATOM     13  C   UNL     1      51.502   1.365  17.384  0.00  0.00    +0.000 A 
ATOM     14  C   UNL     1      52.720   1.189  18.036  0.00  0.00    +0.000 A 
ATOM     15  C   UNL     1      53.328   2.291  18.597  0.00  0.00    +0.000 A 
ATOM     16  N   UNL     1      52.817   3.541  18.553  0.00  0.00    +0.000 NA
ATOM     17  C   UNL     1      51.619   3.698  17.901  0.00  0.00    +0.000 A 
BRANCH  12  19
ATOM     18  C   UNL     1      48.565   2.862  17.484  0.00  0.00    +0.000 C 
ATOM     19  O   UNL     1      49.732   2.856  16.668  0.00  0.00    +0.000 OA
ENDBRANCH  12  19
ENDBRANCH   8  17
ENDBRANCH   7  10
ENDBRANCH   1   7
BRANCH   4  20
ATOM     20  C   UNL     1      47.389   7.766  12.017  0.00  0.00    +0.000 C 
BRANCH  20  21
ATOM     21  N   UNL     1      46.711   6.521  11.762  0.00  0.00    +0.000 N 
ATOM     22  C   UNL     1      45.340   6.453  11.661  0.00  0.00    +0.000 C 
ATOM     23  O   UNL     1      44.625   7.446  11.754  0.00  0.00    +0.000 OA
ATOM     24  H   UNL     1      47.221   5.671  11.976  0.00  0.00    +0.000 HD
BRANCH  22  25
ATOM     25  C   UNL     1      44.779   5.126  11.369  0.00  0.00    +0.000 A 
ATOM     26  C   UNL     1      44.002   4.470  12.316  0.00  0.00    +0.000 A 
ATOM     27  S   UNL     1      43.402   2.964  11.782  0.00  0.00    +0.000 S 
ATOM     28  C   UNL     1      44.203   3.111  10.287  0.00  0.00    +0.000 A 
ATOM     29  N   UNL     1      44.133   2.128   9.351  0.00  0.00    +0.000 NA
ATOM     30  C   UNL     1      44.811   2.364   8.277  0.00  0.00    +0.000 A 
ATOM     31  N   UNL     1      45.548   3.499   8.052  0.00  0.00    +0.000 N 
ATOM     32  C   UNL     1      45.613   4.534   8.946  0.00  0.00    +0.000 A 
ATOM     33  O   UNL     1      46.216   5.569   8.683  0.00  0.00    +0.000 OA
ATOM     34  C   UNL     1      44.890   4.308  10.186  0.00  0.00    +0.000 A 
ATOM     35  H   UNL     1      46.040   3.634   7.181  0.00  0.00    +0.000 HD
ENDBRANCH  22  25
ENDBRANCH  20  21
ENDBRANCH   4  20
TORSDOF 7
ENDMDL
MODEL 2
REMARK VINA RESULT:    -7.199      2.908      9.615
REMARK INTER + INTRA:         -11.295
REMARK INTER:                 -10.164
REMARK INTRA:                  -1.131
REMARK UNBOUND:                -1.149
REMARK  Name = 
REMARK  8 active torsions:
REMARK  status: ('A' for Active; 'I' for Inactive)
REMARK    1  A    between atoms: C_1  and  O_2
REMARK    2  A    between atoms: O_2  and  C_3
REMARK    3  A    between atoms: C_8  and  C_9
REMARK    4  A    between atoms: N_11  and  C_12
REMARK    5  A    between atoms: C_12  and  C_13
REMARK    6  A    between atoms: C_16  and  C_17
REMARK    7  A    between atoms: C_17  and  N_18
REMARK    8  A    between atoms: C_19  and  C_21
REMARK                            x       y       z     vdW  Elec       q    Type
REMARK                         _______ _______ _______ _____ _____    ______ ____
ROOT
ATOM      1  C   UNL     1      47.567   5.590  14.628  0.00  0.00    +0.000 A 
ATOM      2  C   UNL     1      46.894   4.409  14.930  0.00  0.00    +0.000 A 
ATOM      3  C   UNL     1      47.178   3.745  16.124  0.00  0.00    +0.000 A 
ATOM      4  C   UNL     1      48.145   4.255  16.991  0.00  0.00    +0.000 A 
ATOM      5  C   UNL     1      48.750   5.452  16.619  0.00  0.00    +0.000 A 
ATOM      6  N   UNL     1      48.490   6.125  15.468  0.00  0.00    +0.000 NA
ENDROOT
BRANCH   1   7
ATOM      7  C   UNL     1      47.287   6.301  13.318  0.00  0.00    +0.000 C 
BRANCH   7  10
ATOM      8  C   UNL     1      45.901   5.826  11.314  0.00  0.00    +0.000 C 
ATOM      9  O   UNL     1      45.458   6.965  11.302  0.00  0.00    +0.000 OA
ATOM     10  N   UNL     1      46.812   5.411  12.275  0.00  0.00    +0.000 N 
ATOM     11  H   UNL     1      47.064   4.428  12.295  0.00  0.00    +0.000 HD
BRANCH   8  17
ATOM     12  C   UNL     1      44.970   3.528  10.688  0.00  0.00    +0.000 A 
ATOM     13  C   UNL     1      44.604   2.645   9.665  0.00  0.00    +0.000 A 
ATOM     14  C   UNL     1      44.796   2.996   8.332  0.00  0.00    +0.000 A 
ATOM     15  C   UNL     1      45.342   4.231   8.052  0.00  0.00    +0.000 A 
ATOM     16  N   UNL     1      45.703   5.129   8.995  0.00  0.00    +0.000 NA
ATOM     17  C   UNL     1      45.501   4.769  10.304  0.00  0.00    +0.000 A 
BRANCH  12  19
ATOM     18  C   UNL     1      43.426   3.097  12.430  0.00  0.00    +0.000 C 
ATOM     19  O   UNL     1      44.780   3.232  12.009  0.00  0.00    +0.000 OA
ENDBRANCH  12  19
ENDBRANCH   8  17
ENDBRANCH   7  10
ENDBRANCH   1   7
BRANCH   4  20
ATOM     20  C   UNL     1      48.524   3.546  18.261  0.00  0.00    +0.000 C 
BRANCH  20  21
ATOM     21  N   UNL     1      49.933   3.249  18.321  0.00  0.00    +0.000 N 
ATOM     22  C   UNL     1      50.518   2.349  17.460  0.00  0.00    +0.000 C 
ATOM     23  O   UNL     1      49.883   1.774  16.581  0.00  0.00    +0.000 OA
ATOM     24  H   UNL     1      50.407   3.463  19.191  0.00  0.00    +0.000 HD
BRANCH  22  25
ATOM     25  C   UNL     1      51.968   2.161  17.610  0.00  0.00    +0.000 A 
ATOM     26  C   UNL     1      52.504   0.882  17.695  0.00  0.00    +0.000 A 
ATOM     27  S   UNL     1      54.206   0.862  17.820  0.00  0.00    +0.000 S 
ATOM     28  C   UNL     1      54.283   2.562  17.819  0.00  0.00    +0.000 A 
ATOM     29  N   UNL     1      55.471   3.214  17.935  0.00  0.00    +0.000 NA
ATOM     30  C   UNL     1      55.373   4.502  17.946  0.00  0.00    +0.000 A 
ATOM     31  N   UNL     1      54.196   5.198  17.844  0.00  0.00    +0.000 N 
ATOM     32  C   UNL     1      52.981   4.587  17.681  0.00  0.00    +0.000 A 
ATOM     33  O   UNL     1      51.955   5.238  17.514  0.00  0.00    +0.000 OA
ATOM     34  C   UNL     1      53.029   3.135  17.691  0.00  0.00    +0.000 A 
ATOM     35  H   UNL     1      54.189   6.208  17.837  0.00  0.00    +0.000 HD
ENDBRANCH  22  25
ENDBRANCH  20  21
ENDBRANCH   4  20
TORSDOF 7
ENDMDL
MODEL 3
REMARK VINA RESULT:    -7.146      3.372      5.495
REMARK INTER + INTRA:         -11.219
REMARK INTER:                 -10.108
REMARK INTRA:                  -1.112
REMARK UNBOUND:                -1.149
REMARK  Name = 
REMARK  8 active torsions:
REMARK  status: ('A' for Active; 'I' for Inactive)
REMARK    1  A    between atoms: C_1  and  O_2
REMARK    2  A    between atoms: O_2  and  C_3
REMARK    3  A    between atoms: C_8  and  C_9
REMARK    4  A    between atoms: N_11  and  C_12
REMARK    5  A    between atoms: C_12  and  C_13
REMARK    6  A    between atoms: C_16  and  C_17
REMARK    7  A    between atoms: C_17  and  N_18
REMARK    8  A    between atoms: C_19  and  C_21
REMARK                            x       y       z     vdW  Elec       q    Type
REMARK                         _______ _______ _______ _____ _____    ______ ____
ROOT
ATOM      1  C   UNL     1      51.306   2.771  17.571  0.00  0.00    +0.000 A 
ATOM      2  C   UNL     1      50.716   3.929  18.072  0.00  0.00    +0.000 A 
ATOM      3  C   UNL     1      49.352   4.146  17.867  0.00  0.00    +0.000 A 
ATOM      4  C   UNL     1      48.600   3.216  17.147  0.00  0.00    +0.000 A 
ATOM      5  C   UNL     1      49.268   2.078  16.704  0.00  0.00    +0.000 A 
ATOM      6  N   UNL     1      50.592   1.835  16.894  0.00  0.00    +0.000 NA
ENDROOT
BRANCH   1   7
ATOM      7  C   UNL     1      52.793   2.543  17.762  0.00  0.00    +0.000 C 
BRANCH   7  10
ATOM      8  C   UNL     1      54.454   0.749  17.331  0.00  0.00    +0.000 C 
ATOM      9  O   UNL     1      55.326   1.565  17.072  0.00  0.00    +0.000 OA
ATOM     10  N   UNL     1      53.171   1.145  17.683  0.00  0.00    +0.000 N 
ATOM     11  H   UNL     1      52.465   0.423  17.786  0.00  0.00    +0.000 HD
BRANCH   8  17
ATOM     12  C   UNL     1      54.623  -1.551  18.435  0.00  0.00    +0.000 A 
ATOM     13  C   UNL     1      54.811  -2.928  18.265  0.00  0.00    +0.000 A 
ATOM     14  C   UNL     1      55.070  -3.450  17.001  0.00  0.00    +0.000 A 
ATOM     15  C   UNL     1      55.125  -2.581  15.932  0.00  0.00    +0.000 A 
ATOM     16  N   UNL     1      54.939  -1.246  16.033  0.00  0.00    +0.000 NA
ATOM     17  C   UNL     1      54.678  -0.750  17.285  0.00  0.00    +0.000 A 
BRANCH  12  19
ATOM     18  C   UNL     1      55.402  -1.033  20.610  0.00  0.00    +0.000 C 
ATOM     19  O   UNL     1      54.345  -1.000  19.655  0.00  0.00    +0.000 OA
ENDBRANCH  12  19
ENDBRANCH   8  17
ENDBRANCH   7  10
ENDBRANCH   1   7
BRANCH   4  20
ATOM     20  C   UNL     1      47.142   3.433  16.854  0.00  0.00    +0.000 C 
BRANCH  20  21
ATOM     21  N   UNL     1      46.931   4.457  15.862  0.00  0.00    +0.000 N 
ATOM     22  C   UNL     1      47.007   4.185  14.516  0.00  0.00    +0.000 C 
ATOM     23  O   UNL     1      47.230   3.057  14.086  0.00  0.00    +0.000 OA
ATOM     24  H   UNL     1      47.045   5.418  16.167  0.00  0.00    +0.000 HD
BRANCH  22  25
ATOM     25  C   UNL     1      46.741   5.313  13.612  0.00  0.00    +0.000 A 
ATOM     26  C   UNL     1      47.747   6.226  13.317  0.00  0.00    +0.000 A 
ATOM     27  S   UNL     1      47.265   7.439  12.217  0.00  0.00    +0.000 S 
ATOM     28  C   UNL     1      45.682   6.820  12.139  0.00  0.00    +0.000 A 
ATOM     29  N   UNL     1      44.725   7.423  11.384  0.00  0.00    +0.000 NA
ATOM     30  C   UNL     1      43.565   6.859  11.443  0.00  0.00    +0.000 A 
ATOM     31  N   UNL     1      43.275   5.741  12.182  0.00  0.00    +0.000 N 
ATOM     32  C   UNL     1      44.214   5.074  12.923  0.00  0.00    +0.000 A 
ATOM     33  O   UNL     1      43.944   4.033  13.511  0.00  0.00    +0.000 OA
ATOM     34  C   UNL     1      45.534   5.684  12.916  0.00  0.00    +0.000 A 
ATOM     35  H   UNL     1      42.351   5.335  12.169  0.00  0.00    +0.000 HD
ENDBRANCH  22  25
ENDBRANCH  20  21
ENDBRANCH   4  20
TORSDOF 7
ENDMDL
MODEL 4
REMARK VINA RESULT:    -7.029      2.955      9.682
REMARK INTER + INTRA:         -11.054
REMARK INTER:                 -10.019
REMARK INTRA:                  -1.036
REMARK UNBOUND:                -1.149
REMARK  Name = 
REMARK  8 active torsions:
REMARK  status: ('A' for Active; 'I' for Inactive)
REMARK    1  A    between atoms: C_1  and  O_2
REMARK    2  A    between atoms: O_2  and  C_3
REMARK    3  A    between atoms: C_8  and  C_9
REMARK    4  A    between atoms: N_11  and  C_12
REMARK    5  A    between atoms: C_12  and  C_13
REMARK    6  A    between atoms: C_16  and  C_17
REMARK    7  A    between atoms: C_17  and  N_18
REMARK    8  A    between atoms: C_19  and  C_21
REMARK                            x       y       z     vdW  Elec       q    Type
REMARK                         _______ _______ _______ _____ _____    ______ ____
ROOT
ATOM      1  C   UNL     1      47.384   6.248  13.971  0.00  0.00    +0.000 A 
ATOM      2  C   UNL     1      46.818   5.015  14.286  0.00  0.00    +0.000 A 
ATOM      3  C   UNL     1      47.191   4.373  15.468  0.00  0.00    +0.000 A 
ATOM      4  C   UNL     1      48.140   4.957  16.308  0.00  0.00    +0.000 A 
ATOM      5  C   UNL     1      48.634   6.200  15.925  0.00  0.00    +0.000 A 
ATOM      6  N   UNL     1      48.285   6.854  14.786  0.00  0.00    +0.000 NA
ENDROOT
BRANCH   1   7
ATOM      7  C   UNL     1      47.008   6.937  12.674  0.00  0.00    +0.000 C 
BRANCH   7  10
ATOM      8  C   UNL     1      45.527   6.090  10.870  0.00  0.00    +0.000 C 
ATOM      9  O   UNL     1      44.690   6.951  11.100  0.00  0.00    +0.000 OA
ATOM     10  N   UNL     1      46.704   6.010  11.600  0.00  0.00    +0.000 N 
ATOM     11  H   UNL     1      47.311   5.214  11.433  0.00  0.00    +0.000 HD
BRANCH   8  17
ATOM     12  C   UNL     1      44.407   4.014   9.883  0.00  0.00    +0.000 A 
ATOM     13  C   UNL     1      44.323   3.120   8.809  0.00  0.00    +0.000 A 
ATOM     14  C   UNL     1      45.184   3.246   7.722  0.00  0.00    +0.000 A 
ATOM     15  C   UNL     1      46.104   4.273   7.730  0.00  0.00    +0.000 A 
ATOM     16  N   UNL     1      46.223   5.172   8.731  0.00  0.00    +0.000 NA
ATOM     17  C   UNL     1      45.362   5.037   9.792  0.00  0.00    +0.000 A 
BRANCH  12  19
ATOM     18  C   UNL     1      43.844   2.903  11.896  0.00  0.00    +0.000 C 
ATOM     19  O   UNL     1      43.567   3.939  10.959  0.00  0.00    +0.000 OA
ENDBRANCH  12  19
ENDBRANCH   8  17
ENDBRANCH   7  10
ENDBRANCH   1   7
BRANCH   4  20
ATOM     20  C   UNL     1      48.613   4.277  17.562  0.00  0.00    +0.000 C 
BRANCH  20  21
ATOM     21  N   UNL     1      50.006   3.917  17.496  0.00  0.00    +0.000 N 
ATOM     22  C   UNL     1      50.861   4.140  18.551  0.00  0.00    +0.000 C 
ATOM     23  O   UNL     1      50.480   4.628  19.611  0.00  0.00    +0.000 OA
ATOM     24  H   UNL     1      50.404   3.800  16.570  0.00  0.00    +0.000 HD
BRANCH  22  25
ATOM     25  C   UNL     1      52.249   3.698  18.362  0.00  0.00    +0.000 A 
ATOM     26  C   UNL     1      53.303   4.564  18.632  0.00  0.00    +0.000 A 
ATOM     27  S   UNL     1      54.841   3.861  18.397  0.00  0.00    +0.000 S 
ATOM     28  C   UNL     1      54.154   2.394  17.876  0.00  0.00    +0.000 A 
ATOM     29  N   UNL     1      54.933   1.351  17.483  0.00  0.00    +0.000 NA
ATOM     30  C   UNL     1      54.274   0.313  17.087  0.00  0.00    +0.000 A 
ATOM     31  N   UNL     1      52.907   0.219  17.058  0.00  0.00    +0.000 N 
ATOM     32  C   UNL     1      52.082   1.225  17.484  0.00  0.00    +0.000 A 
ATOM     33  O   UNL     1      50.864   1.082  17.519  0.00  0.00    +0.000 OA
ATOM     34  C   UNL     1      52.771   2.431  17.913  0.00  0.00    +0.000 A 
ATOM     35  H   UNL     1      52.451  -0.631  16.757  0.00  0.00    +0.000 HD
ENDBRANCH  22  25
ENDBRANCH  20  21
ENDBRANCH   4  20
TORSDOF 7
ENDMDL
MODEL 5
REMARK VINA RESULT:    -7.015      1.502      2.069
REMARK INTER + INTRA:         -11.035
REMARK INTER:                  -9.715
REMARK INTRA:                  -1.320
REMARK UNBOUND:                -1.149
REMARK  Name = 
REMARK  8 active torsions:
REMARK  status: ('A' for Active; 'I' for Inactive)
REMARK    1  A    between atoms: C_1  and  O_2
REMARK    2  A    between atoms: O_2  and  C_3
REMARK    3  A    between atoms: C_8  and  C_9
REMARK    4  A    between atoms: N_11  and  C_12
REMARK    5  A    between atoms: C_12  and  C_13
REMARK    6  A    between atoms: C_16  and  C_17
REMARK    7  A    between atoms: C_17  and  N_18
REMARK    8  A    between atoms: C_19  and  C_21
REMARK                            x       y       z     vdW  Elec       q    Type
REMARK                         _______ _______ _______ _____ _____    ______ ____
ROOT
ATOM      1  C   UNL     1      49.158   7.329  16.259  0.00  0.00    +0.000 A 
ATOM      2  C   UNL     1      49.148   8.658  15.842  0.00  0.00    +0.000 A 
ATOM      3  C   UNL     1      48.698   8.969  14.558  0.00  0.00    +0.000 A 
ATOM      4  C   UNL     1      48.284   7.949  13.699  0.00  0.00    +0.000 A 
ATOM      5  C   UNL     1      48.305   6.655  14.209  0.00  0.00    +0.000 A 
ATOM      6  N   UNL     1      48.730   6.321  15.456  0.00  0.00    +0.000 NA
ENDROOT
BRANCH   1   7
ATOM      7  C   UNL     1      49.674   6.980  17.641  0.00  0.00    +0.000 C 
BRANCH   7  10
ATOM      8  C   UNL     1      51.372   5.187  17.382  0.00  0.00    +0.000 C 
ATOM      9  O   UNL     1      52.192   5.974  16.934  0.00  0.00    +0.000 OA
ATOM     10  N   UNL     1      50.101   5.598  17.759  0.00  0.00    +0.000 N 
ATOM     11  H   UNL     1      49.433   4.883  18.026  0.00  0.00    +0.000 HD
BRANCH   8  17
ATOM     12  C   UNL     1      50.729   2.720  17.184  0.00  0.00    +0.000 A 
ATOM     13  C   UNL     1      51.112   1.385  17.363  0.00  0.00    +0.000 A 
ATOM     14  C   UNL     1      52.350   1.079  17.921  0.00  0.00    +0.000 A 
ATOM     15  C   UNL     1      53.183   2.117  18.277  0.00  0.00    +0.000 A 
ATOM     16  N   UNL     1      52.873   3.423  18.117  0.00  0.00    +0.000 NA
ATOM     17  C   UNL     1      51.652   3.707  17.560  0.00  0.00    +0.000 A 
BRANCH  12  19
ATOM     18  C   UNL     1      48.372   2.495  17.222  0.00  0.00    +0.000 C 
ATOM     19  O   UNL     1      49.531   3.064  16.621  0.00  0.00    +0.000 OA
ENDBRANCH  12  19
ENDBRANCH   8  17
ENDBRANCH   7  10
ENDBRANCH   1   7
BRANCH   4  20
ATOM     20  C   UNL     1      47.844   8.230  12.290  0.00  0.00    +0.000 C 
BRANCH  20  21
ATOM     21  N   UNL     1      47.251   7.076  11.662  0.00  0.00    +0.000 N 
ATOM     22  C   UNL     1      45.890   6.966  11.493  0.00  0.00    +0.000 C 
ATOM     23  O   UNL     1      45.112   7.850  11.839  0.00  0.00    +0.000 OA
ATOM     24  H   UNL     1      47.810   6.230  11.644  0.00  0.00    +0.000 HD
BRANCH  22  25
ATOM     25  C   UNL     1      45.421   5.752  10.812  0.00  0.00    +0.000 A 
ATOM     26  C   UNL     1      45.662   5.572   9.455  0.00  0.00    +0.000 A 
ATOM     27  S   UNL     1      45.083   4.085   8.849  0.00  0.00    +0.000 S 
ATOM     28  C   UNL     1      44.442   3.652  10.365  0.00  0.00    +0.000 A 
ATOM     29  N   UNL     1      43.769   2.484  10.538  0.00  0.00    +0.000 NA
ATOM     30  C   UNL     1      43.315   2.302  11.734  0.00  0.00    +0.000 A 
ATOM     31  N   UNL     1      43.481   3.179  12.775  0.00  0.00    +0.000 N 
ATOM     32  C   UNL     1      44.188   4.346  12.661  0.00  0.00    +0.000 A 
ATOM     33  O   UNL     1      44.386   5.072  13.629  0.00  0.00    +0.000 OA
ATOM     34  C   UNL     1      44.696   4.616  11.326  0.00  0.00    +0.000 A 
ATOM     35  H   UNL     1      43.120   2.967  13.695  0.00  0.00    +0.000 HD
ENDBRANCH  22  25
ENDBRANCH  20  21
ENDBRANCH   4  20
TORSDOF 7
ENDMDL
MODEL 6
REMARK VINA RESULT:    -6.867      2.765      8.894
REMARK INTER + INTRA:         -10.827
REMARK INTER:                  -9.549
REMARK INTRA:                  -1.278
REMARK UNBOUND:                -1.149
REMARK  Name = 
REMARK  8 active torsions:
REMARK  status: ('A' for Active; 'I' for Inactive)
REMARK    1  A    between atoms: C_1  and  O_2
REMARK    2  A    between atoms: O_2  and  C_3
REMARK    3  A    between atoms: C_8  and  C_9
REMARK    4  A    between atoms: N_11  and  C_12
REMARK    5  A    between atoms: C_12  and  C_13
REMARK    6  A    between atoms: C_16  and  C_17
REMARK    7  A    between atoms: C_17  and  N_18
REMARK    8  A    between atoms: C_19  and  C_21
REMARK                            x       y       z     vdW  Elec       q    Type
REMARK                         _______ _______ _______ _____ _____    ______ ____
ROOT
ATOM      1  C   UNL     1      48.241   7.783  13.363  0.00  0.00    +0.000 A 
ATOM      2  C   UNL     1      47.904   8.900  14.124  0.00  0.00    +0.000 A 
ATOM      3  C   UNL     1      48.374   9.005  15.433  0.00  0.00    +0.000 A 
ATOM      4  C   UNL     1      49.156   7.983  15.975  0.00  0.00    +0.000 A 
ATOM      5  C   UNL     1      49.463   6.917  15.135  0.00  0.00    +0.000 A 
ATOM      6  N   UNL     1      49.027   6.791  13.855  0.00  0.00    +0.000 NA
ENDROOT
BRANCH   1   7
ATOM      7  C   UNL     1      47.708   7.648  11.950  0.00  0.00    +0.000 C 
BRANCH   7  10
ATOM      8  C   UNL     1      45.510   6.493  11.956  0.00  0.00    +0.000 C 
ATOM      9  O   UNL     1      44.931   7.513  12.297  0.00  0.00    +0.000 OA
ATOM     10  N   UNL     1      46.884   6.468  11.761  0.00  0.00    +0.000 N 
ATOM     11  H   UNL     1      47.320   5.570  11.579  0.00  0.00    +0.000 HD
BRANCH   8  17
ATOM     12  C   UNL     1      44.863   4.492  10.501  0.00  0.00    +0.000 A 
ATOM     13  C   UNL     1      44.198   3.263  10.418  0.00  0.00    +0.000 A 
ATOM     14  C   UNL     1      43.488   2.774  11.511  0.00  0.00    +0.000 A 
ATOM     15  C   UNL     1      43.469   3.522  12.668  0.00  0.00    +0.000 A 
ATOM     16  N   UNL     1      44.102   4.707  12.812  0.00  0.00    +0.000 NA
ATOM     17  C   UNL     1      44.802   5.172  11.727  0.00  0.00    +0.000 A 
BRANCH  12  19
ATOM     18  C   UNL     1      45.648   4.191   8.287  0.00  0.00    +0.000 C 
ATOM     19  O   UNL     1      45.589   4.999   9.459  0.00  0.00    +0.000 OA
ENDBRANCH  12  19
ENDBRANCH   8  17
ENDBRANCH   7  10
ENDBRANCH   1   7
BRANCH   4  20
ATOM     20  C   UNL     1      49.639   8.026  17.398  0.00  0.00    +0.000 C 
BRANCH  20  21
ATOM     21  N   UNL     1      50.586   6.978  17.684  0.00  0.00    +0.000 N 
ATOM     22  C   UNL     1      50.278   5.938  18.531  0.00  0.00    +0.000 C 
ATOM     23  O   UNL     1      49.177   5.830  19.064  0.00  0.00    +0.000 OA
ATOM     24  H   UNL     1      51.564   7.187  17.514  0.00  0.00    +0.000 HD
BRANCH  22  25
ATOM     25  C   UNL     1      51.323   4.921  18.713  0.00  0.00    +0.000 A 
ATOM     26  C   UNL     1      52.452   5.206  19.471  0.00  0.00    +0.000 A 
ATOM     27  S   UNL     1      53.533   3.891  19.607  0.00  0.00    +0.000 S 
ATOM     28  C   UNL     1      52.557   2.913  18.613  0.00  0.00    +0.000 A 
ATOM     29  N   UNL     1      52.926   1.645  18.290  0.00  0.00    +0.000 NA
ATOM     30  C   UNL     1      52.102   1.032  17.507  0.00  0.00    +0.000 A 
ATOM     31  N   UNL     1      50.937   1.569  17.023  0.00  0.00    +0.000 N 
ATOM     32  C   UNL     1      50.502   2.825  17.354  0.00  0.00    +0.000 A 
ATOM     33  O   UNL     1      49.417   3.249  16.969  0.00  0.00    +0.000 OA
ATOM     34  C   UNL     1      51.407   3.572  18.212  0.00  0.00    +0.000 A 
ATOM     35  H   UNL     1      50.323   1.029  16.430  0.00  0.00    +0.000 HD
ENDBRANCH  22  25
ENDBRANCH  20  21
ENDBRANCH   4  20
TORSDOF 7
ENDMDL
MODEL 7
REMARK VINA RESULT:    -6.787      1.917      3.079
REMARK INTER + INTRA:         -10.713
REMARK INTER:                  -9.592
REMARK INTRA:                  -1.121
REMARK UNBOUND:                -1.149
REMARK  Name = 
REMARK  8 active torsions:
REMARK  status: ('A' for Active; 'I' for Inactive)
REMARK    1  A    between atoms: C_1  and  O_2
REMARK    2  A    between atoms: O_2  and  C_3
REMARK    3  A    between atoms: C_8  and  C_9
REMARK    4  A    between atoms: N_11  and  C_12
REMARK    5  A    between atoms: C_12  and  C_13
REMARK    6  A    between atoms: C_16  and  C_17
REMARK    7  A    between atoms: C_17  and  N_18
REMARK    8  A    between atoms: C_19  and  C_21
REMARK                            x       y       z     vdW  Elec       q    Type
REMARK                         _______ _______ _______ _____ _____    ______ ____
ROOT
ATOM      1  C   UNL     1      48.874   4.854  17.262  0.00  0.00    +0.000 A 
ATOM      2  C   UNL     1      49.599   5.988  16.905  0.00  0.00    +0.000 A 
ATOM      3  C   UNL     1      49.272   6.668  15.731  0.00  0.00    +0.000 A 
ATOM      4  C   UNL     1      48.241   6.196  14.917  0.00  0.00    +0.000 A 
ATOM      5  C   UNL     1      47.557   5.070  15.364  0.00  0.00    +0.000 A 
ATOM      6  N   UNL     1      47.846   4.391  16.505  0.00  0.00    +0.000 NA
ENDROOT
BRANCH   1   7
ATOM      7  C   UNL     1      49.243   4.091  18.519  0.00  0.00    +0.000 C 
BRANCH   7  10
ATOM      8  C   UNL     1      50.982   2.585  17.584  0.00  0.00    +0.000 C 
ATOM      9  O   UNL     1      50.199   2.126  16.765  0.00  0.00    +0.000 OA
ATOM     10  N   UNL     1      50.594   3.561  18.491  0.00  0.00    +0.000 N 
ATOM     11  H   UNL     1      51.257   3.828  19.211  0.00  0.00    +0.000 HD
BRANCH   8  17
ATOM     12  C   UNL     1      53.468   3.027  17.987  0.00  0.00    +0.000 A 
ATOM     13  C   UNL     1      54.756   2.491  18.102  0.00  0.00    +0.000 A 
ATOM     14  C   UNL     1      54.969   1.129  17.903  0.00  0.00    +0.000 A 
ATOM     15  C   UNL     1      53.885   0.333  17.604  0.00  0.00    +0.000 A 
ATOM     16  N   UNL     1      52.619   0.792  17.493  0.00  0.00    +0.000 NA
ATOM     17  C   UNL     1      52.425   2.135  17.697  0.00  0.00    +0.000 A 
BRANCH  12  19
ATOM     18  C   UNL     1      53.606   5.238  17.150  0.00  0.00    +0.000 C 
ATOM     19  O   UNL     1      53.211   4.354  18.195  0.00  0.00    +0.000 OA
ENDBRANCH  12  19
ENDBRANCH   8  17
ENDBRANCH   7  10
ENDBRANCH   1   7
BRANCH   4  20
ATOM     20  C   UNL     1      47.890   6.864  13.617  0.00  0.00    +0.000 C 
BRANCH  20  21
ATOM     21  N   UNL     1      47.202   5.975  12.716  0.00  0.00    +0.000 N 
ATOM     22  C   UNL     1      46.242   6.434  11.843  0.00  0.00    +0.000 C 
ATOM     23  O   UNL     1      45.941   7.621  11.764  0.00  0.00    +0.000 OA
ATOM     24  H   UNL     1      47.204   4.990  12.956  0.00  0.00    +0.000 HD
BRANCH  22  25
ATOM     25  C   UNL     1      45.640   5.426  10.958  0.00  0.00    +0.000 A 
ATOM     26  C   UNL     1      45.753   5.548   9.578  0.00  0.00    +0.000 A 
ATOM     27  S   UNL     1      45.031   4.263   8.718  0.00  0.00    +0.000 S 
ATOM     28  C   UNL     1      44.494   3.527  10.155  0.00  0.00    +0.000 A 
ATOM     29  N   UNL     1      43.765   2.380  10.130  0.00  0.00    +0.000 NA
ATOM     30  C   UNL     1      43.404   1.952  11.294  0.00  0.00    +0.000 A 
ATOM     31  N   UNL     1      43.713   2.562  12.482  0.00  0.00    +0.000 N 
ATOM     32  C   UNL     1      44.480   3.693  12.561  0.00  0.00    +0.000 A 
ATOM     33  O   UNL     1      44.806   4.172  13.642  0.00  0.00    +0.000 OA
ATOM     34  C   UNL     1      44.890   4.236  11.276  0.00  0.00    +0.000 A 
ATOM     35  H   UNL     1      43.418   2.164  13.362  0.00  0.00    +0.000 HD
ENDBRANCH  22  25
ENDBRANCH  20  21
ENDBRANCH   4  20
TORSDOF 7
ENDMDL
MODEL 8
REMARK VINA RESULT:    -6.754      5.253      8.069
REMARK INTER + INTRA:         -10.668
REMARK INTER:                  -9.318
REMARK INTRA:                  -1.349
REMARK UNBOUND:                -1.149
REMARK  Name = 
REMARK  8 active torsions:
REMARK  status: ('A' for Active; 'I' for Inactive)
REMARK    1  A    between atoms: C_1  and  O_2
REMARK    2  A    between atoms: O_2  and  C_3
REMARK    3  A    between atoms: C_8  and  C_9
REMARK    4  A    between atoms: N_11  and  C_12
REMARK    5  A    between atoms: C_12  and  C_13
REMARK    6  A    between atoms: C_16  and  C_17
REMARK    7  A    between atoms: C_17  and  N_18
REMARK    8  A    between atoms: C_19  and  C_21
REMARK                            x       y       z     vdW  Elec       q    Type
REMARK                         _______ _______ _______ _____ _____    ______ ____
ROOT
ATOM      1  C   UNL     1      49.004   6.840  14.236  0.00  0.00    +0.000 A 
ATOM      2  C   UNL     1      50.042   7.413  14.967  0.00  0.00    +0.000 A 
ATOM      3  C   UNL     1      51.018   8.157  14.302  0.00  0.00    +0.000 A 
ATOM      4  C   UNL     1      50.957   8.302  12.915  0.00  0.00    +0.000 A 
ATOM      5  C   UNL     1      49.872   7.716  12.271  0.00  0.00    +0.000 A 
ATOM      6  N   UNL     1      48.904   6.992  12.891  0.00  0.00    +0.000 NA
ENDROOT
BRANCH   1   7
ATOM      7  C   UNL     1      47.958   6.004  14.947  0.00  0.00    +0.000 C 
BRANCH   7  10
ATOM      8  C   UNL     1      46.621   4.434  13.564  0.00  0.00    +0.000 C 
ATOM      9  O   UNL     1      47.414   3.525  13.758  0.00  0.00    +0.000 OA
ATOM     10  N   UNL     1      46.811   5.694  14.113  0.00  0.00    +0.000 N 
ATOM     11  H   UNL     1      46.175   6.434  13.833  0.00  0.00    +0.000 HD
BRANCH   8  17
ATOM     12  C   UNL     1      44.993   5.251  11.768  0.00  0.00    +0.000 A 
ATOM     13  C   UNL     1      43.845   4.986  11.011  0.00  0.00    +0.000 A 
ATOM     14  C   UNL     1      43.118   3.818  11.225  0.00  0.00    +0.000 A 
ATOM     15  C   UNL     1      43.563   2.935  12.185  0.00  0.00    +0.000 A 
ATOM     16  N   UNL     1      44.669   3.131  12.937  0.00  0.00    +0.000 NA
ATOM     17  C   UNL     1      45.377   4.284  12.709  0.00  0.00    +0.000 A 
BRANCH  12  19
ATOM     18  C   UNL     1      45.047   7.613  11.624  0.00  0.00    +0.000 C 
ATOM     19  O   UNL     1      45.748   6.374  11.576  0.00  0.00    +0.000 OA
ENDBRANCH  12  19
ENDBRANCH   8  17
ENDBRANCH   7  10
ENDBRANCH   1   7
BRANCH   4  20
ATOM     20  C   UNL     1      52.015   9.048  12.150  0.00  0.00    +0.000 C 
BRANCH  20  21
ATOM     21  N   UNL     1      52.134   8.585  10.791  0.00  0.00    +0.000 N 
ATOM     22  C   UNL     1      53.169   8.990   9.979  0.00  0.00    +0.000 C 
ATOM     23  O   UNL     1      54.057   9.740  10.372  0.00  0.00    +0.000 OA
ATOM     24  H   UNL     1      51.292   8.225  10.356  0.00  0.00    +0.000 HD
BRANCH  22  25
ATOM     25  C   UNL     1      53.189   8.419   8.625  0.00  0.00    +0.000 A 
ATOM     26  C   UNL     1      52.983   9.234   7.518  0.00  0.00    +0.000 A 
ATOM     27  S   UNL     1      53.086   8.403   6.031  0.00  0.00    +0.000 S 
ATOM     28  C   UNL     1      53.355   6.916   6.814  0.00  0.00    +0.000 A 
ATOM     29  N   UNL     1      53.499   5.763   6.109  0.00  0.00    +0.000 NA
ATOM     30  C   UNL     1      53.670   4.710   6.837  0.00  0.00    +0.000 A 
ATOM     31  N   UNL     1      53.718   4.706   8.207  0.00  0.00    +0.000 N 
ATOM     32  C   UNL     1      53.621   5.846   8.959  0.00  0.00    +0.000 A 
ATOM     33  O   UNL     1      53.746   5.821  10.179  0.00  0.00    +0.000 OA
ATOM     34  C   UNL     1      53.398   7.060   8.191  0.00  0.00    +0.000 A 
ATOM     35  H   UNL     1      53.876   3.850   8.719  0.00  0.00    +0.000 HD
ENDBRANCH  22  25
ENDBRANCH  20  21
ENDBRANCH   4  20
TORSDOF 7
ENDMDL
MODEL 9
REMARK VINA RESULT:    -6.676      1.659      2.710
REMARK INTER + INTRA:         -10.557
REMARK INTER:                  -9.310
REMARK INTRA:                  -1.247
REMARK UNBOUND:                -1.149
REMARK  Name = 
REMARK  8 active torsions:
REMARK  status: ('A' for Active; 'I' for Inactive)
REMARK    1  A    between atoms: C_1  and  O_2
REMARK    2  A    between atoms: O_2  and  C_3
REMARK    3  A    between atoms: C_8  and  C_9
REMARK    4  A    between atoms: N_11  and  C_12
REMARK    5  A    between atoms: C_12  and  C_13
REMARK    6  A    between atoms: C_16  and  C_17
REMARK    7  A    between atoms: C_17  and  N_18
REMARK    8  A    between atoms: C_19  and  C_21
REMARK                            x       y       z     vdW  Elec       q    Type
REMARK                         _______ _______ _______ _____ _____    ______ ____
ROOT
ATOM      1  C   UNL     1      50.332   7.219  15.696  0.00  0.00    +0.000 A 
ATOM      2  C   UNL     1      49.063   6.664  15.554  0.00  0.00    +0.000 A 
ATOM      3  C   UNL     1      48.330   6.921  14.394  0.00  0.00    +0.000 A 
ATOM      4  C   UNL     1      48.864   7.744  13.401  0.00  0.00    +0.000 A 
ATOM      5  C   UNL     1      50.148   8.234  13.618  0.00  0.00    +0.000 A 
ATOM      6  N   UNL     1      50.889   7.997  14.732  0.00  0.00    +0.000 NA
ENDROOT
BRANCH   1   7
ATOM      7  C   UNL     1      51.122   6.971  16.966  0.00  0.00    +0.000 C 
BRANCH   7  10
ATOM      8  C   UNL     1      51.033   4.653  17.853  0.00  0.00    +0.000 C 
ATOM      9  O   UNL     1      50.030   4.900  18.507  0.00  0.00    +0.000 OA
ATOM     10  N   UNL     1      51.640   5.619  17.062  0.00  0.00    +0.000 N 
ATOM     11  H   UNL     1      52.526   5.384  16.626  0.00  0.00    +0.000 HD
BRANCH   8  17
ATOM     12  C   UNL     1      53.048   3.125  18.230  0.00  0.00    +0.000 A 
ATOM     13  C   UNL     1      53.554   1.819  18.220  0.00  0.00    +0.000 A 
ATOM     14  C   UNL     1      52.749   0.758  17.817  0.00  0.00    +0.000 A 
ATOM     15  C   UNL     1      51.450   1.026  17.443  0.00  0.00    +0.000 A 
ATOM     16  N   UNL     1      50.903   2.262  17.444  0.00  0.00    +0.000 NA
ATOM     17  C   UNL     1      51.709   3.296  17.849  0.00  0.00    +0.000 A 
BRANCH  12  19
ATOM     18  C   UNL     1      55.072   4.336  18.017  0.00  0.00    +0.000 C 
ATOM     19  O   UNL     1      53.798   4.193  18.638  0.00  0.00    +0.000 OA
ENDBRANCH  12  19
ENDBRANCH   8  17
ENDBRANCH   7  10
ENDBRANCH   1   7
BRANCH   4  20
ATOM     20  C   UNL     1      48.090   8.093  12.160  0.00  0.00    +0.000 C 
BRANCH  20  21
ATOM     21  N   UNL     1      47.427   6.948  11.591  0.00  0.00    +0.000 N 
ATOM     22  C   UNL     1      46.069   6.938  11.368  0.00  0.00    +0.000 C 
ATOM     23  O   UNL     1      45.356   7.906  11.614  0.00  0.00    +0.000 OA
ATOM     24  H   UNL     1      47.911   6.059  11.658  0.00  0.00    +0.000 HD
BRANCH  22  25
ATOM     25  C   UNL     1      45.524   5.718  10.755  0.00  0.00    +0.000 A 
ATOM     26  C   UNL     1      45.711   5.473   9.399  0.00  0.00    +0.000 A 
ATOM     27  S   UNL     1      45.048   3.989   8.877  0.00  0.00    +0.000 S 
ATOM     28  C   UNL     1      44.441   3.648  10.430  0.00  0.00    +0.000 A 
ATOM     29  N   UNL     1      43.725   2.519  10.675  0.00  0.00    +0.000 NA
ATOM     30  C   UNL     1      43.306   2.406  11.891  0.00  0.00    +0.000 A 
ATOM     31  N   UNL     1      43.545   3.316  12.888  0.00  0.00    +0.000 N 
ATOM     32  C   UNL     1      44.296   4.445  12.701  0.00  0.00    +0.000 A 
ATOM     33  O   UNL     1      44.559   5.201  13.631  0.00  0.00    +0.000 OA
ATOM     34  C   UNL     1      44.770   4.638  11.340  0.00  0.00    +0.000 A 
ATOM     35  H   UNL     1      43.207   3.159  13.827  0.00  0.00    +0.000 HD
ENDBRANCH  22  25
ENDBRANCH  20  21
ENDBRANCH   4  20
TORSDOF 7
ENDMDL
