MODEL 1
REMARK VINA RESULT:    -7.699      0.000      0.000
REMARK INTER + INTRA:         -11.587
REMARK INTER:                 -10.399
REMARK INTRA:                  -1.188
REMARK UNBOUND:                -1.188
REMARK  Name = 
REMARK  7 active torsions:
REMARK  status: ('A' for Active; 'I' for Inactive)
REMARK    1  A    between atoms: C_1  and  C_2
REMARK    2  A    between atoms: C_2  and  N_3
REMARK    3  A    between atoms: C_2  and  C_16
REMARK    4  A    between atoms: C_4  and  C_6
REMARK    5  A    between atoms: C_19  and  C_20
REMARK    6  A    between atoms: C_20  and  N_21
REMARK    7  A    between atoms: C_22  and  C_24
REMARK                            x       y       z     vdW  Elec       q    Type
REMARK                         _______ _______ _______ _____ _____    ______ ____
ROOT
ATOM      1  C   UNL     1      48.061   8.782  12.768  0.00  0.00    +0.000 C 
ATOM      2  C   UNL     1      47.269   7.787  13.621  0.00  0.00    +0.000 C 
ENDROOT
BRANCH   2   3
ATOM      3  C   UNL     1      46.334   6.879  12.836  0.00  0.00    +0.000 A 
ATOM      4  C   UNL     1      46.418   5.490  13.028  0.00  0.00    +0.000 A 
ATOM      5  C   UNL     1      45.617   4.605  12.296  0.00  0.00    +0.000 A 
ATOM      6  C   UNL     1      44.719   5.085  11.337  0.00  0.00    +0.000 A 
ATOM      7  C   UNL     1      44.613   6.470  11.155  0.00  0.00    +0.000 A 
ATOM      8  C   UNL     1      45.420   7.354  11.883  0.00  0.00    +0.000 A 
BRANCH   6   9
ATOM      9  C   UNL     1      43.921   4.133  10.487  0.00  0.00    +0.000 C 
BRANCH   9  10
ATOM     10  N   UNL     1      44.727   3.165   9.795  0.00  0.00    +0.000 N 
ATOM     11  C   UNL     1      45.374   3.502   8.629  0.00  0.00    +0.000 C 
ATOM     12  O   UNL     1      45.281   4.606   8.099  0.00  0.00    +0.000 OA
ATOM     13  H   UNL     1      44.893   2.236  10.173  0.00  0.00    +0.000 HD
BRANCH  11  14
ATOM     14  C   UNL     1      46.193   2.423   8.073  0.00  0.00    +0.000 A 
ATOM     15  C   UNL     1      47.287   2.568   7.239  0.00  0.00    +0.000 A 
ATOM     16  N   UNL     1      47.723   1.299   6.980  0.00  0.00    +0.000 N 
ATOM     17  C   UNL     1      46.902   0.437   7.650  0.00  0.00    +0.000 A 
ATOM     18  N   UNL     1      45.969   1.075   8.322  0.00  0.00    +0.000 NA
ATOM     19  H   UNL     1      48.510   1.042   6.400  0.00  0.00    +0.000 HD
ENDBRANCH  11  14
ENDBRANCH   9  10
ENDBRANCH   6   9
ENDBRANCH   2   3
BRANCH   2  20
ATOM     20  N   UNL     1      48.168   6.980  14.429  0.00  0.00    +0.000 N 
ATOM     21  C   UNL     1      48.668   7.426  15.629  0.00  0.00    +0.000 C 
ATOM     22  O   UNL     1      48.319   8.491  16.130  0.00  0.00    +0.000 OA
ATOM     23  H   UNL     1      48.595   6.180  13.977  0.00  0.00    +0.000 HD
BRANCH  21  24
ATOM     24  C   UNL     1      49.605   6.533  16.319  0.00  0.00    +0.000 A 
ATOM     25  C   UNL     1      50.901   6.958  16.573  0.00  0.00    +0.000 A 
ATOM     26  S   UNL     1      51.854   5.800  17.385  0.00  0.00    +0.000 S 
ATOM     27  C   UNL     1      50.583   4.669  17.375  0.00  0.00    +0.000 A 
ATOM     28  N   UNL     1      50.753   3.421  17.888  0.00  0.00    +0.000 NA
ATOM     29  C   UNL     1      49.722   2.652  17.772  0.00  0.00    +0.000 A 
ATOM     30  N   UNL     1      48.531   3.023  17.201  0.00  0.00    +0.000 N 
ATOM     31  C   UNL     1      48.294   4.291  16.725  0.00  0.00    +0.000 A 
ATOM     32  O   UNL     1      47.187   4.622  16.309  0.00  0.00    +0.000 OA
ATOM     33  C   UNL     1      49.436   5.181  16.794  0.00  0.00    +0.000 A 
ATOM     34  H   UNL     1      47.756   2.379  17.164  0.00  0.00    +0.000 HD
ENDBRANCH  21  24
ENDBRANCH   2  20
TORSDOF 6
ENDMDL
MODEL 2
REMARK VINA RESULT:    -7.549      1.422      1.951
REMARK INTER + INTRA:         -11.384
REMARK INTER:                 -10.374
REMARK INTRA:                  -1.010
REMARK UNBOUND:                -1.188
REMARK  Name = 
REMARK  7 active torsions:
REMARK  status: ('A' for Active; 'I' for Inactive)
REMARK    1  A    between atoms: C_1  and  C_2
REMARK    2  A    between atoms: C_2  and  N_3
REMARK    3  A    between atoms: C_2  and  C_16
REMARK    4  A    between atoms: C_4  and  C_6
REMARK    5  A    between atoms: C_19  and  C_20
REMARK    6  A    between atoms: C_20  and  N_21
REMARK    7  A    between atoms: C_22  and  C_24
REMARK                            x       y       z     vdW  Elec       q    Type
REMARK                         _______ _______ _______ _____ _____    ______ ____
ROOT
ATOM      1  C   UNL     1      48.687   8.221  14.165  0.00  0.00    +0.000 C 
ATOM      2  C   UNL     1      48.150   6.981  14.886  0.00  0.00    +0.000 C 
ENDROOT
BRANCH   2   3
ATOM      3  C   UNL     1      47.313   6.053  14.018  0.00  0.00    +0.000 A 
ATOM      4  C   UNL     1      46.751   6.557  12.833  0.00  0.00    +0.000 A 
ATOM      5  C   UNL     1      45.933   5.762  12.021  0.00  0.00    +0.000 A 
ATOM      6  C   UNL     1      45.639   4.443  12.383  0.00  0.00    +0.000 A 
ATOM      7  C   UNL     1      46.212   3.926  13.552  0.00  0.00    +0.000 A 
ATOM      8  C   UNL     1      47.026   4.725  14.366  0.00  0.00    +0.000 A 
BRANCH   6   9
ATOM      9  C   UNL     1      44.689   3.614  11.560  0.00  0.00    +0.000 C 
BRANCH   9  10
ATOM     10  N   UNL     1      45.330   2.883  10.502  0.00  0.00    +0.000 N 
ATOM     11  C   UNL     1      45.155   3.258   9.190  0.00  0.00    +0.000 C 
ATOM     12  O   UNL     1      44.435   4.190   8.843  0.00  0.00    +0.000 OA
ATOM     13  H   UNL     1      45.973   2.118  10.690  0.00  0.00    +0.000 HD
BRANCH  11  14
ATOM     14  C   UNL     1      45.913   2.445   8.236  0.00  0.00    +0.000 A 
ATOM     15  C   UNL     1      46.496   2.887   7.062  0.00  0.00    +0.000 A 
ATOM     16  N   UNL     1      47.085   1.785   6.508  0.00  0.00    +0.000 N 
ATOM     17  C   UNL     1      46.850   0.729   7.341  0.00  0.00    +0.000 A 
ATOM     18  N   UNL     1      46.149   1.086   8.395  0.00  0.00    +0.000 NA
ATOM     19  H   UNL     1      47.602   1.755   5.639  0.00  0.00    +0.000 HD
ENDBRANCH  11  14
ENDBRANCH   9  10
ENDBRANCH   6   9
ENDBRANCH   2   3
BRANCH   2  20
ATOM     20  N   UNL     1      49.238   6.233  15.492  0.00  0.00    +0.000 N 
ATOM     21  C   UNL     1      49.184   5.791  16.792  0.00  0.00    +0.000 C 
ATOM     22  O   UNL     1      48.183   5.927  17.490  0.00  0.00    +0.000 OA
ATOM     23  H   UNL     1      50.127   6.243  15.005  0.00  0.00    +0.000 HD
BRANCH  21  24
ATOM     24  C   UNL     1      50.371   5.091  17.295  0.00  0.00    +0.000 A 
ATOM     25  C   UNL     1      51.440   5.820  17.797  0.00  0.00    +0.000 A 
ATOM     26  S   UNL     1      52.733   4.851  18.342  0.00  0.00    +0.000 S 
ATOM     27  C   UNL     1      51.932   3.425  17.873  0.00  0.00    +0.000 A 
ATOM     28  N   UNL     1      52.522   2.209  18.024  0.00  0.00    +0.000 NA
ATOM     29  C   UNL     1      51.822   1.218  17.582  0.00  0.00    +0.000 A 
ATOM     30  N   UNL     1      50.577   1.332  17.017  0.00  0.00    +0.000 N 
ATOM     31  C   UNL     1      49.916   2.533  16.901  0.00  0.00    +0.000 A 
ATOM     32  O   UNL     1      48.764   2.591  16.480  0.00  0.00    +0.000 OA
ATOM     33  C   UNL     1      50.680   3.683  17.343  0.00  0.00    +0.000 A 
ATOM     34  H   UNL     1      50.072   0.513  16.715  0.00  0.00    +0.000 HD
ENDBRANCH  21  24
ENDBRANCH   2  20
TORSDOF 6
ENDMDL
MODEL 3
REMARK VINA RESULT:    -7.398      1.848      1.935
REMARK INTER + INTRA:         -11.181
REMARK INTER:                 -10.294
REMARK INTRA:                  -0.887
REMARK UNBOUND:                -1.188
REMARK  Name = 
REMARK  7 active torsions:
REMARK  status: ('A' for Active; 'I' for Inactive)
REMARK    1  A    between atoms: C_1  and  C_2
REMARK    2  A    between atoms: C_2  and  N_3
REMARK    3  A    between atoms: C_2  and  C_16
REMARK    4  A    between atoms: C_4  and  C_6
REMARK    5  A    between atoms: C_19  and  C_20
REMARK    6  A    between atoms: C_20  and  N_21
REMARK    7  A    between atoms: C_22  and  C_24
REMARK                            x       y       z     vdW  Elec       q    Type
REMARK                         _______ _______ _______ _____ _____    ______ ____
ROOT
ATOM      1  C   UNL     1      49.532   7.396  13.268  0.00  0.00    +0.000 C 
ATOM      2  C   UNL     1      48.077   7.592  13.704  0.00  0.00    +0.000 C 
ENDROOT
BRANCH   2   3
ATOM      3  C   UNL     1      47.067   6.735  12.956  0.00  0.00    +0.000 A 
ATOM      4  C   UNL     1      46.731   5.474  13.476  0.00  0.00    +0.000 A 
ATOM      5  C   UNL     1      45.845   4.623  12.804  0.00  0.00    +0.000 A 
ATOM      6  C   UNL     1      45.283   5.004  11.581  0.00  0.00    +0.000 A 
ATOM      7  C   UNL     1      45.597   6.268  11.066  0.00  0.00    +0.000 A 
ATOM      8  C   UNL     1      46.488   7.116  11.736  0.00  0.00    +0.000 A 
BRANCH   6   9
ATOM      9  C   UNL     1      44.401   4.057  10.812  0.00  0.00    +0.000 C 
BRANCH   9  10
ATOM     10  N   UNL     1      45.131   3.109  10.016  0.00  0.00    +0.000 N 
ATOM     11  C   UNL     1      45.425   3.384   8.700  0.00  0.00    +0.000 C 
ATOM     12  O   UNL     1      45.066   4.409   8.127  0.00  0.00    +0.000 OA
ATOM     13  H   UNL     1      45.501   2.247  10.409  0.00  0.00    +0.000 HD
BRANCH  11  14
ATOM     14  C   UNL     1      46.215   2.343   8.039  0.00  0.00    +0.000 A 
ATOM     15  C   UNL     1      47.213   2.539   7.102  0.00  0.00    +0.000 A 
ATOM     16  N   UNL     1      47.657   1.289   6.771  0.00  0.00    +0.000 N 
ATOM     17  C   UNL     1      46.935   0.389   7.502  0.00  0.00    +0.000 A 
ATOM     18  N   UNL     1      46.058   0.984   8.279  0.00  0.00    +0.000 NA
ATOM     19  H   UNL     1      48.388   1.069   6.108  0.00  0.00    +0.000 HD
ENDBRANCH  11  14
ENDBRANCH   9  10
ENDBRANCH   6   9
ENDBRANCH   2   3
BRANCH   2  20
ATOM     20  N   UNL     1      47.940   7.371  15.134  0.00  0.00    +0.000 N 
ATOM     21  C   UNL     1      48.621   8.128  16.057  0.00  0.00    +0.000 C 
ATOM     22  O   UNL     1      49.315   9.088  15.735  0.00  0.00    +0.000 OA
ATOM     23  H   UNL     1      47.509   6.501  15.423  0.00  0.00    +0.000 HD
BRANCH  21  24
ATOM     24  C   UNL     1      48.431   7.768  17.466  0.00  0.00    +0.000 A 
ATOM     25  C   UNL     1      48.049   8.740  18.381  0.00  0.00    +0.000 A 
ATOM     26  S   UNL     1      47.871   8.151  19.971  0.00  0.00    +0.000 S 
ATOM     27  C   UNL     1      48.354   6.588  19.503  0.00  0.00    +0.000 A 
ATOM     28  N   UNL     1      48.462   5.586  20.416  0.00  0.00    +0.000 NA
ATOM     29  C   UNL     1      48.883   4.466  19.932  0.00  0.00    +0.000 A 
ATOM     30  N   UNL     1      49.193   4.253  18.612  0.00  0.00    +0.000 N 
ATOM     31  C   UNL     1      49.041   5.218  17.644  0.00  0.00    +0.000 A 
ATOM     32  O   UNL     1      49.233   4.969  16.457  0.00  0.00    +0.000 OA
ATOM     33  C   UNL     1      48.611   6.508  18.146  0.00  0.00    +0.000 A 
ATOM     34  H   UNL     1      49.494   3.344  18.295  0.00  0.00    +0.000 HD
ENDBRANCH  21  24
ENDBRANCH   2  20
TORSDOF 6
ENDMDL
MODEL 4
REMARK VINA RESULT:    -7.188      2.665      3.731
REMARK INTER + INTRA:         -10.898
REMARK INTER:                  -9.700
REMARK INTRA:                  -1.197
REMARK UNBOUND:                -1.188
REMARK  Name = 
REMARK  7 active torsions:
REMARK  status: ('A' for Active; 'I' for Inactive)
REMARK    1  A    between atoms: C_1  and  C_2
REMARK    2  A    between atoms: C_2  and  N_3
REMARK    3  A    between atoms: C_2  and  C_16
REMARK    4  A    between atoms: C_4  and  C_6
REMARK    5  A    between atoms: C_19  and  C_20
REMARK    6  A    between atoms: C_20  and  N_21
REMARK    7  A    between atoms: C_22  and  C_24
REMARK                            x       y       z     vdW  Elec       q    Type
REMARK                         _______ _______ _______ _____ _____    ______ ____
ROOT
ATOM      1  C   UNL     1      47.171   4.169  16.036  0.00  0.00    +0.000 C 
ATOM      2  C   UNL     1      47.639   5.064  14.885  0.00  0.00    +0.000 C 
ENDROOT
BRANCH   2   3
ATOM      3  C   UNL     1      46.795   4.971  13.622  0.00  0.00    +0.000 A 
ATOM      4  C   UNL     1      46.090   3.783  13.365  0.00  0.00    +0.000 A 
ATOM      5  C   UNL     1      45.337   3.624  12.195  0.00  0.00    +0.000 A 
ATOM      6  C   UNL     1      45.283   4.644  11.240  0.00  0.00    +0.000 A 
ATOM      7  C   UNL     1      45.966   5.839  11.499  0.00  0.00    +0.000 A 
ATOM      8  C   UNL     1      46.724   5.995  12.667  0.00  0.00    +0.000 A 
BRANCH   6   9
ATOM      9  C   UNL     1      44.548   4.443   9.942  0.00  0.00    +0.000 C 
BRANCH   9  10
ATOM     10  N   UNL     1      45.408   4.116   8.838  0.00  0.00    +0.000 N 
ATOM     11  C   UNL     1      45.646   2.802   8.504  0.00  0.00    +0.000 C 
ATOM     12  O   UNL     1      45.182   1.852   9.129  0.00  0.00    +0.000 OA
ATOM     13  H   UNL     1      45.811   4.832   8.239  0.00  0.00    +0.000 HD
BRANCH  11  14
ATOM     14  C   UNL     1      46.502   2.636   7.328  0.00  0.00    +0.000 A 
ATOM     15  C   UNL     1      47.550   1.743   7.195  0.00  0.00    +0.000 A 
ATOM     16  N   UNL     1      48.050   1.949   5.939  0.00  0.00    +0.000 N 
ATOM     17  C   UNL     1      47.308   2.937   5.358  0.00  0.00    +0.000 A 
ATOM     18  N   UNL     1      46.364   3.375   6.160  0.00  0.00    +0.000 NA
ATOM     19  H   UNL     1      48.828   1.459   5.516  0.00  0.00    +0.000 HD
ENDBRANCH  11  14
ENDBRANCH   9  10
ENDBRANCH   6   9
ENDBRANCH   2   3
BRANCH   2  20
ATOM     20  N   UNL     1      47.718   6.450  15.317  0.00  0.00    +0.000 N 
ATOM     21  C   UNL     1      48.919   7.102  15.459  0.00  0.00    +0.000 C 
ATOM     22  O   UNL     1      49.988   6.583  15.148  0.00  0.00    +0.000 OA
ATOM     23  H   UNL     1      46.883   6.849  15.728  0.00  0.00    +0.000 HD
BRANCH  21  24
ATOM     24  C   UNL     1      48.861   8.483  15.950  0.00  0.00    +0.000 A 
ATOM     25  C   UNL     1      49.297   9.522  15.140  0.00  0.00    +0.000 A 
ATOM     26  S   UNL     1      49.156  11.059  15.864  0.00  0.00    +0.000 S 
ATOM     27  C   UNL     1      48.560  10.384  17.307  0.00  0.00    +0.000 A 
ATOM     28  N   UNL     1      48.271  11.168  18.380  0.00  0.00    +0.000 NA
ATOM     29  C   UNL     1      47.873  10.519  19.423  0.00  0.00    +0.000 A 
ATOM     30  N   UNL     1      47.723   9.157  19.486  0.00  0.00    +0.000 N 
ATOM     31  C   UNL     1      47.943   8.331  18.409  0.00  0.00    +0.000 A 
ATOM     32  O   UNL     1      47.707   7.128  18.466  0.00  0.00    +0.000 OA
ATOM     33  C   UNL     1      48.435   9.008  17.224  0.00  0.00    +0.000 A 
ATOM     34  H   UNL     1      47.382   8.715  20.326  0.00  0.00    +0.000 HD
ENDBRANCH  21  24
ENDBRANCH   2  20
TORSDOF 6
ENDMDL
MODEL 5
REMARK VINA RESULT:    -6.377      1.550      2.339
REMARK INTER + INTRA:          -9.802
REMARK INTER:                  -8.750
REMARK INTRA:                  -1.052
REMARK UNBOUND:                -1.188
REMARK  Name = 
REMARK  7 active torsions:
REMARK  status: ('A' for Active; 'I' for Inactive)
REMARK    1  A    between atoms: C_1  and  C_2
REMARK    2  A    between atoms: C_2  and  N_3
REMARK    3  A    between atoms: C_2  and  C_16
REMARK    4  A    between atoms: C_4  and  C_6
REMARK    5  A    between atoms: C_19  and  C_20
REMARK    6  A    between atoms: C_20  and  N_21
REMARK    7  A    between atoms: C_22  and  C_24
REMARK                            x       y       z     vdW  Elec       q    Type
REMARK                         _______ _______ _______ _____ _____    ______ ____
ROOT
ATOM      1  C   UNL     1      49.576   9.926  14.578  0.00  0.00    +0.000 C 
ATOM      2  C   UNL     1      48.702   8.769  15.068  0.00  0.00    +0.000 C 
ENDROOT
BRANCH   2   3
ATOM      3  C   UNL     1      47.681   8.269  14.056  0.00  0.00    +0.000 A 
ATOM      4  C   UNL     1      46.776   9.187  13.497  0.00  0.00    +0.000 A 
ATOM      5  C   UNL     1      45.785   8.775  12.598  0.00  0.00    +0.000 A 
ATOM      6  C   UNL     1      45.660   7.426  12.247  0.00  0.00    +0.000 A 
ATOM      7  C   UNL     1      46.572   6.508  12.783  0.00  0.00    +0.000 A 
ATOM      8  C   UNL     1      47.559   6.922  13.687  0.00  0.00    +0.000 A 
BRANCH   6   9
ATOM      9  C   UNL     1      44.541   6.966  11.351  0.00  0.00    +0.000 C 
BRANCH   9  10
ATOM     10  N   UNL     1      44.885   5.835  10.534  0.00  0.00    +0.000 N 
ATOM     11  C   UNL     1      44.072   4.725  10.503  0.00  0.00    +0.000 C 
ATOM     12  O   UNL     1      43.050   4.616  11.176  0.00  0.00    +0.000 OA
ATOM     13  H   UNL     1      45.691   5.843   9.916  0.00  0.00    +0.000 HD
BRANCH  11  14
ATOM     14  C   UNL     1      44.533   3.679   9.587  0.00  0.00    +0.000 A 
ATOM     15  C   UNL     1      45.152   3.873   8.366  0.00  0.00    +0.000 A 
ATOM     16  N   UNL     1      45.394   2.620   7.874  0.00  0.00    +0.000 N 
ATOM     17  C   UNL     1      44.927   1.721   8.790  0.00  0.00    +0.000 A 
ATOM     18  N   UNL     1      44.403   2.319   9.837  0.00  0.00    +0.000 NA
ATOM     19  H   UNL     1      45.838   2.397   6.994  0.00  0.00    +0.000 HD
ENDBRANCH  11  14
ENDBRANCH   9  10
ENDBRANCH   6   9
ENDBRANCH   2   3
BRANCH   2  20
ATOM     20  N   UNL     1      49.528   7.660  15.515  0.00  0.00    +0.000 N 
ATOM     21  C   UNL     1      49.560   7.258  16.829  0.00  0.00    +0.000 C 
ATOM     22  O   UNL     1      48.831   7.752  17.684  0.00  0.00    +0.000 OA
ATOM     23  H   UNL     1      50.248   7.340  14.878  0.00  0.00    +0.000 HD
BRANCH  21  24
ATOM     24  C   UNL     1      50.474   6.158  17.154  0.00  0.00    +0.000 A 
ATOM     25  C   UNL     1      51.810   6.427  17.416  0.00  0.00    +0.000 A 
ATOM     26  S   UNL     1      52.729   5.037  17.779  0.00  0.00    +0.000 S 
ATOM     27  C   UNL     1      51.385   4.021  17.545  0.00  0.00    +0.000 A 
ATOM     28  N   UNL     1      51.500   2.671  17.660  0.00  0.00    +0.000 NA
ATOM     29  C   UNL     1      50.413   2.020  17.409  0.00  0.00    +0.000 A 
ATOM     30  N   UNL     1      49.217   2.599  17.067  0.00  0.00    +0.000 N 
ATOM     31  C   UNL     1      49.039   3.961  16.999  0.00  0.00    +0.000 A 
ATOM     32  O   UNL     1      47.934   4.452  16.786  0.00  0.00    +0.000 OA
ATOM     33  C   UNL     1      50.243   4.736  17.230  0.00  0.00    +0.000 A 
ATOM     34  H   UNL     1      48.398   2.032  16.908  0.00  0.00    +0.000 HD
ENDBRANCH  21  24
ENDBRANCH   2  20
TORSDOF 6
ENDMDL
MODEL 6
REMARK VINA RESULT:    -6.350      5.369      7.763
REMARK INTER + INTRA:          -9.766
REMARK INTER:                  -8.781
REMARK INTRA:                  -0.985
REMARK UNBOUND:                -1.188
REMARK  Name = 
REMARK  7 active torsions:
REMARK  status: ('A' for Active; 'I' for Inactive)
REMARK    1  A    between atoms: C_1  and  C_2
REMARK    2  A    between atoms: C_2  and  N_3
REMARK    3  A    between atoms: C_2  and  C_16
REMARK    4  A    between atoms: C_4  and  C_6
REMARK    5  A    between atoms: C_19  and  C_20
REMARK    6  A    between atoms: C_20  and  N_21
REMARK    7  A    between atoms: C_22  and  C_24
REMARK                            x       y       z     vdW  Elec       q    Type
REMARK                         _______ _______ _______ _____ _____    ______ ____
ROOT
ATOM      1  C   UNL     1      50.761  10.966  11.473  0.00  0.00    +0.000 C 
ATOM      2  C   UNL     1      51.353   9.561  11.616  0.00  0.00    +0.000 C 
ENDROOT
BRANCH   2   3
ATOM      3  C   UNL     1      50.478   8.577  12.380  0.00  0.00    +0.000 A 
ATOM      4  C   UNL     1      49.375   8.002  11.727  0.00  0.00    +0.000 A 
ATOM      5  C   UNL     1      48.509   7.129  12.396  0.00  0.00    +0.000 A 
ATOM      6  C   UNL     1      48.712   6.821  13.745  0.00  0.00    +0.000 A 
ATOM      7  C   UNL     1      49.821   7.374  14.398  0.00  0.00    +0.000 A 
ATOM      8  C   UNL     1      50.684   8.252  13.729  0.00  0.00    +0.000 A 
BRANCH   6   9
ATOM      9  C   UNL     1      47.733   5.954  14.491  0.00  0.00    +0.000 C 
BRANCH   9  10
ATOM     10  N   UNL     1      46.468   5.809  13.824  0.00  0.00    +0.000 N 
ATOM     11  C   UNL     1      45.977   4.558  13.525  0.00  0.00    +0.000 C 
ATOM     12  O   UNL     1      46.583   3.518  13.768  0.00  0.00    +0.000 OA
ATOM     13  H   UNL     1      45.877   6.608  13.613  0.00  0.00    +0.000 HD
BRANCH  11  14
ATOM     14  C   UNL     1      44.657   4.576  12.891  0.00  0.00    +0.000 A 
ATOM     15  C   UNL     1      44.204   3.711  11.912  0.00  0.00    +0.000 A 
ATOM     16  N   UNL     1      42.928   4.111  11.630  0.00  0.00    +0.000 N 
ATOM     17  C   UNL     1      42.647   5.183  12.429  0.00  0.00    +0.000 A 
ATOM     18  N   UNL     1      43.662   5.493  13.205  0.00  0.00    +0.000 NA
ATOM     19  H   UNL     1      42.304   3.691  10.954  0.00  0.00    +0.000 HD
ENDBRANCH  11  14
ENDBRANCH   9  10
ENDBRANCH   6   9
ENDBRANCH   2   3
BRANCH   2  20
ATOM     20  N   UNL     1      51.679   9.011  10.311  0.00  0.00    +0.000 N 
ATOM     21  C   UNL     1      52.978   8.874   9.882  0.00  0.00    +0.000 C 
ATOM     22  O   UNL     1      53.938   9.126  10.606  0.00  0.00    +0.000 OA
ATOM     23  H   UNL     1      50.923   8.945   9.640  0.00  0.00    +0.000 HD
BRANCH  21  24
ATOM     24  C   UNL     1      53.167   8.352   8.525  0.00  0.00    +0.000 A 
ATOM     25  C   UNL     1      53.049   9.204   7.436  0.00  0.00    +0.000 A 
ATOM     26  S   UNL     1      53.303   8.436   5.935  0.00  0.00    +0.000 S 
ATOM     27  C   UNL     1      53.523   6.925   6.685  0.00  0.00    +0.000 A 
ATOM     28  N   UNL     1      53.740   5.803   5.948  0.00  0.00    +0.000 NA
ATOM     29  C   UNL     1      53.842   4.720   6.644  0.00  0.00    +0.000 A 
ATOM     30  N   UNL     1      53.762   4.659   8.012  0.00  0.00    +0.000 N 
ATOM     31  C   UNL     1      53.605   5.775   8.801  0.00  0.00    +0.000 A 
ATOM     32  O   UNL     1      53.635   5.702  10.026  0.00  0.00    +0.000 OA
ATOM     33  C   UNL     1      53.442   7.013   8.064  0.00  0.00    +0.000 A 
ATOM     34  H   UNL     1      53.876   3.782   8.496  0.00  0.00    +0.000 HD
ENDBRANCH  21  24
ENDBRANCH   2  20
TORSDOF 6
ENDMDL
MODEL 7
REMARK VINA RESULT:    -6.279      5.200      8.249
REMARK INTER + INTRA:          -9.669
REMARK INTER:                  -8.813
REMARK INTRA:                  -0.856
REMARK UNBOUND:                -1.188
REMARK  Name = 
REMARK  7 active torsions:
REMARK  status: ('A' for Active; 'I' for Inactive)
REMARK    1  A    between atoms: C_1  and  C_2
REMARK    2  A    between atoms: C_2  and  N_3
REMARK    3  A    between atoms: C_2  and  C_16
REMARK    4  A    between atoms: C_4  and  C_6
REMARK    5  A    between atoms: C_19  and  C_20
REMARK    6  A    between atoms: C_20  and  N_21
REMARK    7  A    between atoms: C_22  and  C_24
REMARK                            x       y       z     vdW  Elec       q    Type
REMARK                         _______ _______ _______ _____ _____    ______ ____
ROOT
ATOM      1  C   UNL     1      53.884   3.714  17.874  0.00  0.00    +0.000 C 
ATOM      2  C   UNL     1      52.875   2.616  18.224  0.00  0.00    +0.000 C 
ENDROOT
BRANCH   2   3
ATOM      3  C   UNL     1      51.449   2.893  17.769  0.00  0.00    +0.000 A 
ATOM      4  C   UNL     1      50.914   4.177  17.962  0.00  0.00    +0.000 A 
ATOM      5  C   UNL     1      49.592   4.474  17.607  0.00  0.00    +0.000 A 
ATOM      6  C   UNL     1      48.763   3.487  17.065  0.00  0.00    +0.000 A 
ATOM      7  C   UNL     1      49.296   2.209  16.850  0.00  0.00    +0.000 A 
ATOM      8  C   UNL     1      50.617   1.912  17.211  0.00  0.00    +0.000 A 
BRANCH   6   9
ATOM      9  C   UNL     1      47.316   3.778  16.766  0.00  0.00    +0.000 C 
BRANCH   9  10
ATOM     10  N   UNL     1      47.128   4.738  15.712  0.00  0.00    +0.000 N 
ATOM     11  C   UNL     1      47.044   4.327  14.402  0.00  0.00    +0.000 C 
ATOM     12  O   UNL     1      47.156   3.155  14.052  0.00  0.00    +0.000 OA
ATOM     13  H   UNL     1      46.990   5.726  15.904  0.00  0.00    +0.000 HD
BRANCH  11  14
ATOM     14  C   UNL     1      46.803   5.417  13.454  0.00  0.00    +0.000 A 
ATOM     15  C   UNL     1      45.572   5.849  12.996  0.00  0.00    +0.000 A 
ATOM     16  N   UNL     1      45.840   6.876  12.135  0.00  0.00    +0.000 N 
ATOM     17  C   UNL     1      47.196   7.036  12.095  0.00  0.00    +0.000 A 
ATOM     18  N   UNL     1      47.812   6.178  12.878  0.00  0.00    +0.000 NA
ATOM     19  H   UNL     1      45.161   7.420  11.620  0.00  0.00    +0.000 HD
ENDBRANCH  11  14
ENDBRANCH   9  10
ENDBRANCH   6   9
ENDBRANCH   2   3
BRANCH   2  20
ATOM     20  N   UNL     1      53.315   1.335  17.698  0.00  0.00    +0.000 N 
ATOM     21  C   UNL     1      54.199   0.532  18.378  0.00  0.00    +0.000 C 
ATOM     22  O   UNL     1      54.602   0.808  19.505  0.00  0.00    +0.000 OA
ATOM     23  H   UNL     1      53.131   1.155  16.718  0.00  0.00    +0.000 HD
BRANCH  21  24
ATOM     24  C   UNL     1      54.599  -0.712  17.713  0.00  0.00    +0.000 A 
ATOM     25  C   UNL     1      55.211  -0.662  16.468  0.00  0.00    +0.000 A 
ATOM     26  S   UNL     1      55.612  -2.196  15.841  0.00  0.00    +0.000 S 
ATOM     27  C   UNL     1      54.931  -2.984  17.186  0.00  0.00    +0.000 A 
ATOM     28  N   UNL     1      54.902  -4.341  17.261  0.00  0.00    +0.000 NA
ATOM     29  C   UNL     1      54.314  -4.804  18.314  0.00  0.00    +0.000 A 
ATOM     30  N   UNL     1      53.765  -4.032  19.305  0.00  0.00    +0.000 N 
ATOM     31  C   UNL     1      53.825  -2.657  19.302  0.00  0.00    +0.000 A 
ATOM     32  O   UNL     1      53.411  -1.996  20.250  0.00  0.00    +0.000 OA
ATOM     33  C   UNL     1      54.438  -2.087  18.118  0.00  0.00    +0.000 A 
ATOM     34  H   UNL     1      53.341  -4.459  20.115  0.00  0.00    +0.000 HD
ENDBRANCH  21  24
ENDBRANCH   2  20
TORSDOF 6
ENDMDL
MODEL 8
REMARK VINA RESULT:    -6.275      5.257      8.394
REMARK INTER + INTRA:          -9.664
REMARK INTER:                  -8.507
REMARK INTRA:                  -1.157
REMARK UNBOUND:                -1.188
REMARK  Name = 
REMARK  7 active torsions:
REMARK  status: ('A' for Active; 'I' for Inactive)
REMARK    1  A    between atoms: C_1  and  C_2
REMARK    2  A    between atoms: C_2  and  N_3
REMARK    3  A    between atoms: C_2  and  C_16
REMARK    4  A    between atoms: C_4  and  C_6
REMARK    5  A    between atoms: C_19  and  C_20
REMARK    6  A    between atoms: C_20  and  N_21
REMARK    7  A    between atoms: C_22  and  C_24
REMARK                            x       y       z     vdW  Elec       q    Type
REMARK                         _______ _______ _______ _____ _____    ______ ____
ROOT
ATOM      1  C   UNL     1      54.125   3.250  17.528  0.00  0.00    +0.000 C 
ATOM      2  C   UNL     1      53.038   2.390  18.180  0.00  0.00    +0.000 C 
ENDROOT
BRANCH   2   3
ATOM      3  C   UNL     1      51.616   2.737  17.761  0.00  0.00    +0.000 A 
ATOM      4  C   UNL     1      51.170   4.060  17.907  0.00  0.00    +0.000 A 
ATOM      5  C   UNL     1      49.857   4.424  17.583  0.00  0.00    +0.000 A 
ATOM      6  C   UNL     1      48.948   3.468  17.119  0.00  0.00    +0.000 A 
ATOM      7  C   UNL     1      49.391   2.150  16.950  0.00  0.00    +0.000 A 
ATOM      8  C   UNL     1      50.703   1.786  17.281  0.00  0.00    +0.000 A 
BRANCH   6   9
ATOM      9  C   UNL     1      47.513   3.837  16.855  0.00  0.00    +0.000 C 
BRANCH   9  10
ATOM     10  N   UNL     1      47.347   4.760  15.765  0.00  0.00    +0.000 N 
ATOM     11  C   UNL     1      47.180   4.298  14.480  0.00  0.00    +0.000 C 
ATOM     12  O   UNL     1      47.196   3.107  14.182  0.00  0.00    +0.000 OA
ATOM     13  H   UNL     1      47.285   5.763  15.915  0.00  0.00    +0.000 HD
BRANCH  11  14
ATOM     14  C   UNL     1      46.974   5.359  13.491  0.00  0.00    +0.000 A 
ATOM     15  C   UNL     1      45.790   5.658  12.842  0.00  0.00    +0.000 A 
ATOM     16  N   UNL     1      46.079   6.712  12.020  0.00  0.00    +0.000 N 
ATOM     17  C   UNL     1      47.399   7.017  12.190  0.00  0.00    +0.000 A 
ATOM     18  N   UNL     1      47.973   6.227  13.069  0.00  0.00    +0.000 NA
ATOM     19  H   UNL     1      45.433   7.181  11.399  0.00  0.00    +0.000 HD
ENDBRANCH  11  14
ENDBRANCH   9  10
ENDBRANCH   6   9
ENDBRANCH   2   3
BRANCH   2  20
ATOM     20  N   UNL     1      53.288   0.980  17.936  0.00  0.00    +0.000 N 
ATOM     21  C   UNL     1      54.120   0.238  18.739  0.00  0.00    +0.000 C 
ATOM     22  O   UNL     1      54.632   0.697  19.757  0.00  0.00    +0.000 OA
ATOM     23  H   UNL     1      53.016   0.617  17.030  0.00  0.00    +0.000 HD
BRANCH  21  24
ATOM     24  C   UNL     1      54.327  -1.162  18.352  0.00  0.00    +0.000 A 
ATOM     25  C   UNL     1      54.062  -2.175  19.263  0.00  0.00    +0.000 A 
ATOM     26  S   UNL     1      54.351  -3.739  18.650  0.00  0.00    +0.000 S 
ATOM     27  C   UNL     1      54.895  -3.114  17.164  0.00  0.00    +0.000 A 
ATOM     28  N   UNL     1      55.346  -3.939  16.181  0.00  0.00    +0.000 NA
ATOM     29  C   UNL     1      55.772  -3.328  15.126  0.00  0.00    +0.000 A 
ATOM     30  N   UNL     1      55.775  -1.966  14.960  0.00  0.00    +0.000 N 
ATOM     31  C   UNL     1      55.273  -1.097  15.901  0.00  0.00    +0.000 A 
ATOM     32  O   UNL     1      55.199   0.109  15.684  0.00  0.00    +0.000 OA
ATOM     33  C   UNL     1      54.821  -1.733  17.124  0.00  0.00    +0.000 A 
ATOM     34  H   UNL     1      56.100  -1.553  14.099  0.00  0.00    +0.000 HD
ENDBRANCH  21  24
ENDBRANCH   2  20
TORSDOF 6
ENDMDL
MODEL 9
REMARK VINA RESULT:    -6.233      2.033      2.452
REMARK INTER + INTRA:          -9.608
REMARK INTER:                  -8.483
REMARK INTRA:                  -1.124
REMARK UNBOUND:                -1.188
REMARK  Name = 
REMARK  7 active torsions:
REMARK  status: ('A' for Active; 'I' for Inactive)
REMARK    1  A    between atoms: C_1  and  C_2
REMARK    2  A    between atoms: C_2  and  N_3
REMARK    3  A    between atoms: C_2  and  C_16
REMARK    4  A    between atoms: C_4  and  C_6
REMARK    5  A    between atoms: C_19  and  C_20
REMARK    6  A    between atoms: C_20  and  N_21
REMARK    7  A    between atoms: C_22  and  C_24
REMARK                            x       y       z     vdW  Elec       q    Type
REMARK                         _______ _______ _______ _____ _____    ______ ____
ROOT
ATOM      1  C   UNL     1      50.019   8.220  13.581  0.00  0.00    +0.000 C 
ATOM      2  C   UNL     1      48.665   8.200  14.296  0.00  0.00    +0.000 C 
ENDROOT
BRANCH   2   3
ATOM      3  C   UNL     1      47.523   7.609  13.481  0.00  0.00    +0.000 A 
ATOM      4  C   UNL     1      47.418   6.212  13.376  0.00  0.00    +0.000 A 
ATOM      5  C   UNL     1      46.417   5.615  12.599  0.00  0.00    +0.000 A 
ATOM      6  C   UNL     1      45.503   6.402  11.891  0.00  0.00    +0.000 A 
ATOM      7  C   UNL     1      45.588   7.795  12.008  0.00  0.00    +0.000 A 
ATOM      8  C   UNL     1      46.594   8.391  12.780  0.00  0.00    +0.000 A 
BRANCH   6   9
ATOM      9  C   UNL     1      44.482   5.766  10.985  0.00  0.00    +0.000 C 
BRANCH   9  10
ATOM     10  N   UNL     1      45.056   5.110   9.842  0.00  0.00    +0.000 N 
ATOM     11  C   UNL     1      45.062   3.737   9.757  0.00  0.00    +0.000 C 
ATOM     12  O   UNL     1      44.624   3.003  10.638  0.00  0.00    +0.000 OA
ATOM     13  H   UNL     1      45.412   5.632   9.045  0.00  0.00    +0.000 HD
BRANCH  11  14
ATOM     14  C   UNL     1      45.637   3.224   8.511  0.00  0.00    +0.000 A 
ATOM     15  C   UNL     1      45.899   1.899   8.213  0.00  0.00    +0.000 A 
ATOM     16  N   UNL     1      46.429   1.905   6.952  0.00  0.00    +0.000 N 
ATOM     17  C   UNL     1      46.470   3.203   6.529  0.00  0.00    +0.000 A 
ATOM     18  N   UNL     1      46.000   4.027   7.438  0.00  0.00    +0.000 NA
ATOM     19  H   UNL     1      46.734   1.096   6.427  0.00  0.00    +0.000 HD
ENDBRANCH  11  14
ENDBRANCH   9  10
ENDBRANCH   6   9
ENDBRANCH   2   3
BRANCH   2  20
ATOM     20  N   UNL     1      48.770   7.501  15.566  0.00  0.00    +0.000 N 
ATOM     21  C   UNL     1      48.703   8.160  16.769  0.00  0.00    +0.000 C 
ATOM     22  O   UNL     1      48.465   9.363  16.846  0.00  0.00    +0.000 OA
ATOM     23  H   UNL     1      49.121   6.550  15.538  0.00  0.00    +0.000 HD
BRANCH  21  24
ATOM     24  C   UNL     1      48.874   7.343  17.975  0.00  0.00    +0.000 A 
ATOM     25  C   UNL     1      48.033   7.534  19.062  0.00  0.00    +0.000 A 
ATOM     26  S   UNL     1      48.367   6.499  20.376  0.00  0.00    +0.000 S 
ATOM     27  C   UNL     1      49.684   5.799  19.558  0.00  0.00    +0.000 A 
ATOM     28  N   UNL     1      50.453   4.848  20.154  0.00  0.00    +0.000 NA
ATOM     29  C   UNL     1      51.446   4.439  19.438  0.00  0.00    +0.000 A 
ATOM     30  N   UNL     1      51.732   4.884  18.172  0.00  0.00    +0.000 N 
ATOM     31  C   UNL     1      50.948   5.798  17.506  0.00  0.00    +0.000 A 
ATOM     32  O   UNL     1      51.173   6.104  16.339  0.00  0.00    +0.000 OA
ATOM     33  C   UNL     1      49.843   6.321  18.287  0.00  0.00    +0.000 A 
ATOM     34  H   UNL     1      52.510   4.503  17.656  0.00  0.00    +0.000 HD
ENDBRANCH  21  24
ENDBRANCH   2  20
TORSDOF 6
ENDMDL
