MODEL 1
REMARK VINA RESULT:    -8.579      0.000      0.000
REMARK INTER + INTRA:         -12.685
REMARK INTER:                 -11.588
REMARK INTRA:                  -1.097
REMARK UNBOUND:                -1.097
REMARK  Name = 
REMARK  6 active torsions:
REMARK  status: ('A' for Active; 'I' for Inactive)
REMARK    1  A    between atoms: C_2  and  C_19
REMARK    2  A    between atoms: N_3  and  C_4
REMARK    3  A    between atoms: C_4  and  C_5
REMARK    4  A    between atoms: C_8  and  C_9
REMARK    5  A    between atoms: C_9  and  O_10
REMARK    6  A    between atoms: O_10  and  C_11
REMARK                            x       y       z     vdW  Elec       q    Type
REMARK                         _______ _______ _______ _____ _____    ______ ____
ROOT
ATOM      1  O   UNL     1      48.987   6.700  13.122  0.00  0.00    +0.000 OA
ATOM      2  C   UNL     1      48.230   6.688  14.087  0.00  0.00    +0.000 C 
ATOM      3  N   UNL     1      46.905   7.024  13.993  0.00  0.00    +0.000 N 
ATOM      4  H   UNL     1      46.372   7.171  14.841  0.00  0.00    +0.000 HD
ENDROOT
BRANCH   2   5
ATOM      5  C   UNL     1      48.686   6.245  15.412  0.00  0.00    +0.000 A 
ATOM      6  C   UNL     1      49.655   6.974  16.089  0.00  0.00    +0.000 A 
ATOM      7  S   UNL     1      50.088   6.300  17.595  0.00  0.00    +0.000 S 
ATOM      8  C   UNL     1      48.959   5.039  17.417  0.00  0.00    +0.000 A 
ATOM      9  N   UNL     1      48.797   4.102  18.390  0.00  0.00    +0.000 NA
ATOM     10  C   UNL     1      47.871   3.235  18.147  0.00  0.00    +0.000 A 
ATOM     11  N   UNL     1      47.100   3.212  17.015  0.00  0.00    +0.000 N 
ATOM     12  C   UNL     1      47.286   4.086  15.972  0.00  0.00    +0.000 A 
ATOM     13  O   UNL     1      46.677   3.946  14.915  0.00  0.00    +0.000 OA
ATOM     14  C   UNL     1      48.280   5.116  16.215  0.00  0.00    +0.000 A 
ATOM     15  H   UNL     1      46.414   2.486  16.869  0.00  0.00    +0.000 HD
ENDBRANCH   2   5
BRANCH   3  16
ATOM     16  C   UNL     1      46.307   7.525  12.783  0.00  0.00    +0.000 C 
BRANCH  16  17
ATOM     17  C   UNL     1      45.811   6.405  11.905  0.00  0.00    +0.000 A 
ATOM     18  C   UNL     1      46.163   6.367  10.551  0.00  0.00    +0.000 A 
ATOM     19  C   UNL     1      45.725   5.324   9.732  0.00  0.00    +0.000 A 
ATOM     20  C   UNL     1      44.907   4.310  10.245  0.00  0.00    +0.000 A 
ATOM     21  C   UNL     1      44.545   4.352  11.598  0.00  0.00    +0.000 A 
ATOM     22  C   UNL     1      44.983   5.397  12.418  0.00  0.00    +0.000 A 
BRANCH  20  23
ATOM     23  C   UNL     1      44.422   3.195   9.351  0.00  0.00    +0.000 C 
BRANCH  23  24
ATOM     24  O   UNL     1      44.736   3.497   7.991  0.00  0.00    +0.000 OA
BRANCH  24  25
ATOM     25  C   UNL     1      45.801   2.829   7.447  0.00  0.00    +0.000 A 
ATOM     26  C   UNL     1      46.579   3.264   6.377  0.00  0.00    +0.000 A 
ATOM     27  C   UNL     1      47.625   2.457   5.954  0.00  0.00    +0.000 A 
ATOM     28  N   UNL     1      47.935   1.270   6.516  0.00  0.00    +0.000 NA
ATOM     29  C   UNL     1      47.165   0.872   7.548  0.00  0.00    +0.000 A 
ATOM     30  C   UNL     1      46.100   1.606   8.041  0.00  0.00    +0.000 A 
ENDBRANCH  24  25
ENDBRANCH  23  24
ENDBRANCH  20  23
ENDBRANCH  16  17
ENDBRANCH   3  16
TORSDOF 6
ENDMDL
MODEL 2
REMARK VINA RESULT:    -7.721      2.427      4.183
REMARK INTER + INTRA:         -11.526
REMARK INTER:                 -10.396
REMARK INTRA:                  -1.130
REMARK UNBOUND:                -1.097
REMARK  Name = 
REMARK  6 active torsions:
REMARK  status: ('A' for Active; 'I' for Inactive)
REMARK    1  A    between atoms: C_2  and  C_19
REMARK    2  A    between atoms: N_3  and  C_4
REMARK    3  A    between atoms: C_4  and  C_5
REMARK    4  A    between atoms: C_8  and  C_9
REMARK    5  A    between atoms: C_9  and  O_10
REMARK    6  A    between atoms: O_10  and  C_11
REMARK                            x       y       z     vdW  Elec       q    Type
REMARK                         _______ _______ _______ _____ _____    ______ ____
ROOT
ATOM      1  O   UNL     1      49.166   5.993  15.743  0.00  0.00    +0.000 OA
ATOM      2  C   UNL     1      48.601   6.793  15.005  0.00  0.00    +0.000 C 
ATOM      3  N   UNL     1      47.481   6.472  14.283  0.00  0.00    +0.000 N 
ATOM      4  H   UNL     1      47.164   7.105  13.559  0.00  0.00    +0.000 HD
ENDROOT
BRANCH   2   5
ATOM      5  C   UNL     1      49.058   8.186  14.894  0.00  0.00    +0.000 A 
ATOM      6  C   UNL     1      49.071   9.002  16.018  0.00  0.00    +0.000 A 
ATOM      7  S   UNL     1      49.598  10.592  15.701  0.00  0.00    +0.000 S 
ATOM      8  C   UNL     1      49.876  10.231  14.061  0.00  0.00    +0.000 A 
ATOM      9  N   UNL     1      50.370  11.172  13.211  0.00  0.00    +0.000 NA
ATOM     10  C   UNL     1      50.581  10.748  12.010  0.00  0.00    +0.000 A 
ATOM     11  N   UNL     1      50.332   9.473  11.576  0.00  0.00    +0.000 N 
ATOM     12  C   UNL     1      49.756   8.516  12.376  0.00  0.00    +0.000 A 
ATOM     13  O   UNL     1      49.415   7.430  11.916  0.00  0.00    +0.000 OA
ATOM     14  C   UNL     1      49.547   8.924  13.754  0.00  0.00    +0.000 A 
ATOM     15  H   UNL     1      50.487   9.212  10.614  0.00  0.00    +0.000 HD
ENDBRANCH   2   5
BRANCH   3  16
ATOM     16  C   UNL     1      46.931   5.143  14.239  0.00  0.00    +0.000 C 
BRANCH  16  17
ATOM     17  C   UNL     1      46.264   4.863  12.918  0.00  0.00    +0.000 A 
ATOM     18  C   UNL     1      45.620   3.639  12.702  0.00  0.00    +0.000 A 
ATOM     19  C   UNL     1      44.982   3.375  11.489  0.00  0.00    +0.000 A 
ATOM     20  C   UNL     1      44.996   4.320  10.456  0.00  0.00    +0.000 A 
ATOM     21  C   UNL     1      45.650   5.542  10.666  0.00  0.00    +0.000 A 
ATOM     22  C   UNL     1      46.289   5.806  11.881  0.00  0.00    +0.000 A 
BRANCH  20  23
ATOM     23  C   UNL     1      44.321   4.022   9.139  0.00  0.00    +0.000 C 
BRANCH  23  24
ATOM     24  O   UNL     1      45.229   4.270   8.066  0.00  0.00    +0.000 OA
BRANCH  24  25
ATOM     25  C   UNL     1      46.000   3.212   7.662  0.00  0.00    +0.000 A 
ATOM     26  C   UNL     1      46.005   1.940   8.230  0.00  0.00    +0.000 A 
ATOM     27  C   UNL     1      46.853   0.983   7.692  0.00  0.00    +0.000 A 
ATOM     28  N   UNL     1      47.678   1.210   6.649  0.00  0.00    +0.000 NA
ATOM     29  C   UNL     1      47.654   2.449   6.120  0.00  0.00    +0.000 A 
ATOM     30  C   UNL     1      46.845   3.470   6.587  0.00  0.00    +0.000 A 
ENDBRANCH  24  25
ENDBRANCH  23  24
ENDBRANCH  20  23
ENDBRANCH  16  17
ENDBRANCH   3  16
TORSDOF 6
ENDMDL
MODEL 3
REMARK VINA RESULT:    -7.652      1.318      1.795
REMARK INTER + INTRA:         -11.433
REMARK INTER:                 -10.326
REMARK INTRA:                  -1.107
REMARK UNBOUND:                -1.097
REMARK  Name = 
REMARK  6 active torsions:
REMARK  status: ('A' for Active; 'I' for Inactive)
REMARK    1  A    between atoms: C_2  and  C_19
REMARK    2  A    between atoms: N_3  and  C_4
REMARK    3  A    between atoms: C_4  and  C_5
REMARK    4  A    between atoms: C_8  and  C_9
REMARK    5  A    between atoms: C_9  and  O_10
REMARK    6  A    between atoms: O_10  and  C_11
REMARK                            x       y       z     vdW  Elec       q    Type
REMARK                         _______ _______ _______ _____ _____    ______ ____
ROOT
ATOM      1  O   UNL     1      49.814   7.021  14.309  0.00  0.00    +0.000 OA
ATOM      2  C   UNL     1      48.846   7.114  15.056  0.00  0.00    +0.000 C 
ATOM      3  N   UNL     1      47.571   7.309  14.595  0.00  0.00    +0.000 N 
ATOM      4  H   UNL     1      46.841   7.557  15.252  0.00  0.00    +0.000 HD
ENDROOT
BRANCH   2   5
ATOM      5  C   UNL     1      48.985   6.956  16.511  0.00  0.00    +0.000 A 
ATOM      6  C   UNL     1      49.303   8.055  17.298  0.00  0.00    +0.000 A 
ATOM      7  S   UNL     1      49.456   7.685  18.956  0.00  0.00    +0.000 S 
ATOM      8  C   UNL     1      49.052   6.054  18.685  0.00  0.00    +0.000 A 
ATOM      9  N   UNL     1      48.972   5.172  19.719  0.00  0.00    +0.000 NA
ATOM     10  C   UNL     1      48.606   3.982  19.377  0.00  0.00    +0.000 A 
ATOM     11  N   UNL     1      48.322   3.590  18.096  0.00  0.00    +0.000 N 
ATOM     12  C   UNL     1      48.469   4.423  17.013  0.00  0.00    +0.000 A 
ATOM     13  O   UNL     1      48.346   3.998  15.868  0.00  0.00    +0.000 OA
ATOM     14  C   UNL     1      48.829   5.790  17.346  0.00  0.00    +0.000 A 
ATOM     15  H   UNL     1      48.072   2.634  17.889  0.00  0.00    +0.000 HD
ENDBRANCH   2   5
BRANCH   3  16
ATOM     16  C   UNL     1      47.264   7.531  13.205  0.00  0.00    +0.000 C 
BRANCH  16  17
ATOM     17  C   UNL     1      46.387   6.440  12.650  0.00  0.00    +0.000 A 
ATOM     18  C   UNL     1      45.405   6.744  11.700  0.00  0.00    +0.000 A 
ATOM     19  C   UNL     1      44.599   5.738  11.164  0.00  0.00    +0.000 A 
ATOM     20  C   UNL     1      44.741   4.410  11.585  0.00  0.00    +0.000 A 
ATOM     21  C   UNL     1      45.716   4.105  12.544  0.00  0.00    +0.000 A 
ATOM     22  C   UNL     1      46.523   5.113  13.081  0.00  0.00    +0.000 A 
BRANCH  20  23
ATOM     23  C   UNL     1      43.854   3.330  11.015  0.00  0.00    +0.000 C 
BRANCH  23  24
ATOM     24  O   UNL     1      43.763   3.480   9.599  0.00  0.00    +0.000 OA
BRANCH  24  25
ATOM     25  C   UNL     1      44.818   3.006   8.865  0.00  0.00    +0.000 A 
ATOM     26  C   UNL     1      45.291   1.696   8.866  0.00  0.00    +0.000 A 
ATOM     27  C   UNL     1      46.374   1.387   8.057  0.00  0.00    +0.000 A 
ATOM     28  N   UNL     1      47.002   2.282   7.266  0.00  0.00    +0.000 NA
ATOM     29  C   UNL     1      46.524   3.543   7.285  0.00  0.00    +0.000 A 
ATOM     30  C   UNL     1      45.451   3.947   8.059  0.00  0.00    +0.000 A 
ENDBRANCH  24  25
ENDBRANCH  23  24
ENDBRANCH  20  23
ENDBRANCH  16  17
ENDBRANCH   3  16
TORSDOF 6
ENDMDL
MODEL 4
REMARK VINA RESULT:    -7.364      1.791      2.374
REMARK INTER + INTRA:         -11.044
REMARK INTER:                 -10.088
REMARK INTRA:                  -0.956
REMARK UNBOUND:                -1.097
REMARK  Name = 
REMARK  6 active torsions:
REMARK  status: ('A' for Active; 'I' for Inactive)
REMARK    1  A    between atoms: C_2  and  C_19
REMARK    2  A    between atoms: N_3  and  C_4
REMARK    3  A    between atoms: C_4  and  C_5
REMARK    4  A    between atoms: C_8  and  C_9
REMARK    5  A    between atoms: C_9  and  O_10
REMARK    6  A    between atoms: O_10  and  C_11
REMARK                            x       y       z     vdW  Elec       q    Type
REMARK                         _______ _______ _______ _____ _____    ______ ____
ROOT
ATOM      1  O   UNL     1      48.197   7.788  11.672  0.00  0.00    +0.000 OA
ATOM      2  C   UNL     1      48.159   7.810  12.898  0.00  0.00    +0.000 C 
ATOM      3  N   UNL     1      46.987   7.736  13.604  0.00  0.00    +0.000 N 
ATOM      4  H   UNL     1      46.995   7.939  14.596  0.00  0.00    +0.000 HD
ENDROOT
BRANCH   2   5
ATOM      5  C   UNL     1      49.389   7.855  13.701  0.00  0.00    +0.000 A 
ATOM      6  C   UNL     1      50.409   8.732  13.356  0.00  0.00    +0.000 A 
ATOM      7  S   UNL     1      51.772   8.628  14.375  0.00  0.00    +0.000 S 
ATOM      8  C   UNL     1      51.027   7.444  15.343  0.00  0.00    +0.000 A 
ATOM      9  N   UNL     1      51.659   6.931  16.433  0.00  0.00    +0.000 NA
ATOM     10  C   UNL     1      50.958   6.079  17.105  0.00  0.00    +0.000 A 
ATOM     11  N   UNL     1      49.687   5.685  16.781  0.00  0.00    +0.000 N 
ATOM     12  C   UNL     1      49.043   6.113  15.646  0.00  0.00    +0.000 A 
ATOM     13  O   UNL     1      47.965   5.631  15.311  0.00  0.00    +0.000 OA
ATOM     14  C   UNL     1      49.766   7.113  14.880  0.00  0.00    +0.000 A 
ATOM     15  H   UNL     1      49.204   4.990  17.330  0.00  0.00    +0.000 HD
ENDBRANCH   2   5
BRANCH   3  16
ATOM     16  C   UNL     1      45.691   7.735  12.975  0.00  0.00    +0.000 C 
BRANCH  16  17
ATOM     17  C   UNL     1      45.423   6.436  12.262  0.00  0.00    +0.000 A 
ATOM     18  C   UNL     1      45.434   5.230  12.973  0.00  0.00    +0.000 A 
ATOM     19  C   UNL     1      45.167   4.021  12.327  0.00  0.00    +0.000 A 
ATOM     20  C   UNL     1      44.908   3.991  10.951  0.00  0.00    +0.000 A 
ATOM     21  C   UNL     1      44.907   5.196  10.235  0.00  0.00    +0.000 A 
ATOM     22  C   UNL     1      45.174   6.406  10.883  0.00  0.00    +0.000 A 
BRANCH  20  23
ATOM     23  C   UNL     1      44.639   2.679  10.254  0.00  0.00    +0.000 C 
BRANCH  23  24
ATOM     24  O   UNL     1      44.608   2.882   8.842  0.00  0.00    +0.000 OA
BRANCH  24  25
ATOM     25  C   UNL     1      45.718   2.485   8.143  0.00  0.00    +0.000 A 
ATOM     26  C   UNL     1      46.550   3.312   7.392  0.00  0.00    +0.000 A 
ATOM     27  C   UNL     1      47.636   2.740   6.747  0.00  0.00    +0.000 A 
ATOM     28  N   UNL     1      47.938   1.426   6.801  0.00  0.00    +0.000 NA
ATOM     29  C   UNL     1      47.115   0.648   7.533  0.00  0.00    +0.000 A 
ATOM     30  C   UNL     1      46.007   1.126   8.211  0.00  0.00    +0.000 A 
ENDBRANCH  24  25
ENDBRANCH  23  24
ENDBRANCH  20  23
ENDBRANCH  16  17
ENDBRANCH   3  16
TORSDOF 6
ENDMDL
MODEL 5
REMARK VINA RESULT:    -7.328      2.411      3.295
REMARK INTER + INTRA:         -10.995
REMARK INTER:                 -10.083
REMARK INTRA:                  -0.912
REMARK UNBOUND:                -1.097
REMARK  Name = 
REMARK  6 active torsions:
REMARK  status: ('A' for Active; 'I' for Inactive)
REMARK    1  A    between atoms: C_2  and  C_19
REMARK    2  A    between atoms: N_3  and  C_4
REMARK    3  A    between atoms: C_4  and  C_5
REMARK    4  A    between atoms: C_8  and  C_9
REMARK    5  A    between atoms: C_9  and  O_10
REMARK    6  A    between atoms: O_10  and  C_11
REMARK                            x       y       z     vdW  Elec       q    Type
REMARK                         _______ _______ _______ _____ _____    ______ ____
ROOT
ATOM      1  O   UNL     1      48.978   4.938  16.266  0.00  0.00    +0.000 OA
ATOM      2  C   UNL     1      48.560   5.902  15.634  0.00  0.00    +0.000 C 
ATOM      3  N   UNL     1      47.443   5.842  14.843  0.00  0.00    +0.000 N 
ATOM      4  H   UNL     1      47.247   6.606  14.208  0.00  0.00    +0.000 HD
ENDROOT
BRANCH   2   5
ATOM      5  C   UNL     1      49.203   7.220  15.736  0.00  0.00    +0.000 A 
ATOM      6  C   UNL     1      49.981   7.694  14.688  0.00  0.00    +0.000 A 
ATOM      7  S   UNL     1      50.675   9.222  14.989  0.00  0.00    +0.000 S 
ATOM      8  C   UNL     1      49.918   9.327  16.510  0.00  0.00    +0.000 A 
ATOM      9  N   UNL     1      50.077  10.426  17.296  0.00  0.00    +0.000 NA
ATOM     10  C   UNL     1      49.406  10.394  18.399  0.00  0.00    +0.000 A 
ATOM     11  N   UNL     1      48.599   9.360  18.793  0.00  0.00    +0.000 N 
ATOM     12  C   UNL     1      48.475   8.197  18.071  0.00  0.00    +0.000 A 
ATOM     13  O   UNL     1      47.860   7.236  18.523  0.00  0.00    +0.000 OA
ATOM     14  C   UNL     1      49.168   8.201  16.795  0.00  0.00    +0.000 A 
ATOM     15  H   UNL     1      48.125   9.381  19.684  0.00  0.00    +0.000 HD
ENDBRANCH   2   5
BRANCH   3  16
ATOM     16  C   UNL     1      46.724   4.620  14.594  0.00  0.00    +0.000 C 
BRANCH  16  17
ATOM     17  C   UNL     1      46.186   4.570  13.188  0.00  0.00    +0.000 A 
ATOM     18  C   UNL     1      45.603   3.395  12.701  0.00  0.00    +0.000 A 
ATOM     19  C   UNL     1      45.084   3.342  11.405  0.00  0.00    +0.000 A 
ATOM     20  C   UNL     1      45.160   4.457  10.561  0.00  0.00    +0.000 A 
ATOM     21  C   UNL     1      45.753   5.631  11.043  0.00  0.00    +0.000 A 
ATOM     22  C   UNL     1      46.273   5.683  12.340  0.00  0.00    +0.000 A 
BRANCH  20  23
ATOM     23  C   UNL     1      44.613   4.388   9.156  0.00  0.00    +0.000 C 
BRANCH  23  24
ATOM     24  O   UNL     1      44.630   3.037   8.699  0.00  0.00    +0.000 OA
BRANCH  24  25
ATOM     25  C   UNL     1      45.752   2.634   8.024  0.00  0.00    +0.000 A 
ATOM     26  C   UNL     1      46.550   3.437   7.212  0.00  0.00    +0.000 A 
ATOM     27  C   UNL     1      47.656   2.863   6.603  0.00  0.00    +0.000 A 
ATOM     28  N   UNL     1      48.008   1.568   6.748  0.00  0.00    +0.000 NA
ATOM     29  C   UNL     1      47.217   0.813   7.537  0.00  0.00    +0.000 A 
ATOM     30  C   UNL     1      46.094   1.294   8.186  0.00  0.00    +0.000 A 
ENDBRANCH  24  25
ENDBRANCH  23  24
ENDBRANCH  20  23
ENDBRANCH  16  17
ENDBRANCH   3  16
TORSDOF 6
ENDMDL
MODEL 6
REMARK VINA RESULT:    -7.139      2.482      3.264
REMARK INTER + INTRA:         -10.740
REMARK INTER:                  -9.762
REMARK INTRA:                  -0.978
REMARK UNBOUND:                -1.097
REMARK  Name = 
REMARK  6 active torsions:
REMARK  status: ('A' for Active; 'I' for Inactive)
REMARK    1  A    between atoms: C_2  and  C_19
REMARK    2  A    between atoms: N_3  and  C_4
REMARK    3  A    between atoms: C_4  and  C_5
REMARK    4  A    between atoms: C_8  and  C_9
REMARK    5  A    between atoms: C_9  and  O_10
REMARK    6  A    between atoms: O_10  and  C_11
REMARK                            x       y       z     vdW  Elec       q    Type
REMARK                         _______ _______ _______ _____ _____    ______ ____
ROOT
ATOM      1  O   UNL     1      50.285   7.482  15.474  0.00  0.00    +0.000 OA
ATOM      2  C   UNL     1      49.204   7.022  15.828  0.00  0.00    +0.000 C 
ATOM      3  N   UNL     1      48.235   6.639  14.939  0.00  0.00    +0.000 N 
ATOM      4  H   UNL     1      47.303   6.438  15.281  0.00  0.00    +0.000 HD
ENDROOT
BRANCH   2   5
ATOM      5  C   UNL     1      48.900   6.791  17.247  0.00  0.00    +0.000 A 
ATOM      6  C   UNL     1      49.212   5.571  17.832  0.00  0.00    +0.000 A 
ATOM      7  S   UNL     1      48.760   5.465  19.473  0.00  0.00    +0.000 S 
ATOM      8  C   UNL     1      48.177   7.064  19.472  0.00  0.00    +0.000 A 
ATOM      9  N   UNL     1      47.666   7.623  20.603  0.00  0.00    +0.000 NA
ATOM     10  C   UNL     1      47.309   8.858  20.473  0.00  0.00    +0.000 A 
ATOM     11  N   UNL     1      47.407   9.581  19.314  0.00  0.00    +0.000 N 
ATOM     12  C   UNL     1      47.838   9.034  18.130  0.00  0.00    +0.000 A 
ATOM     13  O   UNL     1      47.777   9.669  17.081  0.00  0.00    +0.000 OA
ATOM     14  C   UNL     1      48.302   7.662  18.231  0.00  0.00    +0.000 A 
ATOM     15  H   UNL     1      47.079  10.535  19.269  0.00  0.00    +0.000 HD
ENDBRANCH   2   5
BRANCH   3  16
ATOM     16  C   UNL     1      48.350   6.841  13.518  0.00  0.00    +0.000 C 
BRANCH  16  17
ATOM     17  C   UNL     1      47.222   6.179  12.771  0.00  0.00    +0.000 A 
ATOM     18  C   UNL     1      46.714   4.951  13.212  0.00  0.00    +0.000 A 
ATOM     19  C   UNL     1      45.655   4.337  12.539  0.00  0.00    +0.000 A 
ATOM     20  C   UNL     1      45.098   4.926  11.397  0.00  0.00    +0.000 A 
ATOM     21  C   UNL     1      45.613   6.150  10.948  0.00  0.00    +0.000 A 
ATOM     22  C   UNL     1      46.673   6.764  11.622  0.00  0.00    +0.000 A 
BRANCH  20  23
ATOM     23  C   UNL     1      43.966   4.249  10.664  0.00  0.00    +0.000 C 
BRANCH  23  24
ATOM     24  O   UNL     1      44.171   4.359   9.256  0.00  0.00    +0.000 OA
BRANCH  24  25
ATOM     25  C   UNL     1      45.048   3.468   8.694  0.00  0.00    +0.000 A 
ATOM     26  C   UNL     1      45.091   2.098   8.941  0.00  0.00    +0.000 A 
ATOM     27  C   UNL     1      46.047   1.341   8.282  0.00  0.00    +0.000 A 
ATOM     28  N   UNL     1      46.945   1.852   7.413  0.00  0.00    +0.000 NA
ATOM     29  C   UNL     1      46.882   3.181   7.194  0.00  0.00    +0.000 A 
ATOM     30  C   UNL     1      45.965   4.019   7.805  0.00  0.00    +0.000 A 
ENDBRANCH  24  25
ENDBRANCH  23  24
ENDBRANCH  20  23
ENDBRANCH  16  17
ENDBRANCH   3  16
TORSDOF 6
ENDMDL
MODEL 7
REMARK VINA RESULT:    -7.008      1.512      2.721
REMARK INTER + INTRA:         -10.563
REMARK INTER:                 -10.053
REMARK INTRA:                  -0.510
REMARK UNBOUND:                -1.097
REMARK  Name = 
REMARK  6 active torsions:
REMARK  status: ('A' for Active; 'I' for Inactive)
REMARK    1  A    between atoms: C_2  and  C_19
REMARK    2  A    between atoms: N_3  and  C_4
REMARK    3  A    between atoms: C_4  and  C_5
REMARK    4  A    between atoms: C_8  and  C_9
REMARK    5  A    between atoms: C_9  and  O_10
REMARK    6  A    between atoms: O_10  and  C_11
REMARK                            x       y       z     vdW  Elec       q    Type
REMARK                         _______ _______ _______ _____ _____    ______ ____
ROOT
ATOM      1  O   UNL     1      48.527   6.002  12.927  0.00  0.00    +0.000 OA
ATOM      2  C   UNL     1      48.040   6.435  13.966  0.00  0.00    +0.000 C 
ATOM      3  N   UNL     1      46.902   7.200  13.988  0.00  0.00    +0.000 N 
ATOM      4  H   UNL     1      46.646   7.678  14.843  0.00  0.00    +0.000 HD
ENDROOT
BRANCH   2   5
ATOM      5  C   UNL     1      48.616   6.106  15.277  0.00  0.00    +0.000 A 
ATOM      6  C   UNL     1      47.984   5.183  16.099  0.00  0.00    +0.000 A 
ATOM      7  S   UNL     1      48.771   4.947  17.593  0.00  0.00    +0.000 S 
ATOM      8  C   UNL     1      50.013   6.032  17.172  0.00  0.00    +0.000 A 
ATOM      9  N   UNL     1      51.049   6.272  18.020  0.00  0.00    +0.000 NA
ATOM     10  C   UNL     1      51.946   7.075  17.552  0.00  0.00    +0.000 A 
ATOM     11  N   UNL     1      51.896   7.670  16.319  0.00  0.00    +0.000 N 
ATOM     12  C   UNL     1      50.829   7.522  15.466  0.00  0.00    +0.000 A 
ATOM     13  O   UNL     1      50.750   8.181  14.434  0.00  0.00    +0.000 OA
ATOM     14  C   UNL     1      49.816   6.586  15.920  0.00  0.00    +0.000 A 
ATOM     15  H   UNL     1      52.613   8.316  16.025  0.00  0.00    +0.000 HD
ENDBRANCH   2   5
BRANCH   3  16
ATOM     16  C   UNL     1      46.239   7.654  12.794  0.00  0.00    +0.000 C 
BRANCH  16  17
ATOM     17  C   UNL     1      45.757   6.499  11.955  0.00  0.00    +0.000 A 
ATOM     18  C   UNL     1      44.891   5.546  12.504  0.00  0.00    +0.000 A 
ATOM     19  C   UNL     1      44.422   4.482  11.731  0.00  0.00    +0.000 A 
ATOM     20  C   UNL     1      44.829   4.336  10.399  0.00  0.00    +0.000 A 
ATOM     21  C   UNL     1      45.704   5.283   9.850  0.00  0.00    +0.000 A 
ATOM     22  C   UNL     1      46.174   6.348  10.625  0.00  0.00    +0.000 A 
BRANCH  20  23
ATOM     23  C   UNL     1      44.333   3.173   9.573  0.00  0.00    +0.000 C 
BRANCH  23  24
ATOM     24  O   UNL     1      44.666   3.381   8.201  0.00  0.00    +0.000 OA
BRANCH  24  25
ATOM     25  C   UNL     1      45.733   2.671   7.717  0.00  0.00    +0.000 A 
ATOM     26  C   UNL     1      46.115   1.393   8.119  0.00  0.00    +0.000 A 
ATOM     27  C   UNL     1      47.226   0.820   7.520  0.00  0.00    +0.000 A 
ATOM     28  N   UNL     1      47.966   1.427   6.568  0.00  0.00    +0.000 NA
ATOM     29  C   UNL     1      47.576   2.664   6.199  0.00  0.00    +0.000 A 
ATOM     30  C   UNL     1      46.482   3.319   6.739  0.00  0.00    +0.000 A 
ENDBRANCH  24  25
ENDBRANCH  23  24
ENDBRANCH  20  23
ENDBRANCH  16  17
ENDBRANCH   3  16
TORSDOF 6
ENDMDL
MODEL 8
REMARK VINA RESULT:    -6.934      3.853      7.684
REMARK INTER + INTRA:         -10.464
REMARK INTER:                  -9.061
REMARK INTRA:                  -1.403
REMARK UNBOUND:                -1.097
REMARK  Name = 
REMARK  6 active torsions:
REMARK  status: ('A' for Active; 'I' for Inactive)
REMARK    1  A    between atoms: C_2  and  C_19
REMARK    2  A    between atoms: N_3  and  C_4
REMARK    3  A    between atoms: C_4  and  C_5
REMARK    4  A    between atoms: C_8  and  C_9
REMARK    5  A    between atoms: C_9  and  O_10
REMARK    6  A    between atoms: O_10  and  C_11
REMARK                            x       y       z     vdW  Elec       q    Type
REMARK                         _______ _______ _______ _____ _____    ______ ____
ROOT
ATOM      1  O   UNL     1      48.187   6.900  12.179  0.00  0.00    +0.000 OA
ATOM      2  C   UNL     1      47.130   7.208  12.720  0.00  0.00    +0.000 C 
ATOM      3  N   UNL     1      47.046   8.183  13.679  0.00  0.00    +0.000 N 
ATOM      4  H   UNL     1      46.193   8.273  14.218  0.00  0.00    +0.000 HD
ENDROOT
BRANCH   2   5
ATOM      5  C   UNL     1      45.858   6.586  12.325  0.00  0.00    +0.000 A 
ATOM      6  C   UNL     1      44.866   7.357  11.733  0.00  0.00    +0.000 A 
ATOM      7  S   UNL     1      43.448   6.482  11.370  0.00  0.00    +0.000 S 
ATOM      8  C   UNL     1      44.130   5.032  11.945  0.00  0.00    +0.000 A 
ATOM      9  N   UNL     1      43.434   3.864  11.895  0.00  0.00    +0.000 NA
ATOM     10  C   UNL     1      44.091   2.834  12.316  0.00  0.00    +0.000 A 
ATOM     11  N   UNL     1      45.375   2.867  12.792  0.00  0.00    +0.000 N 
ATOM     12  C   UNL     1      46.083   4.035  12.938  0.00  0.00    +0.000 A 
ATOM     13  O   UNL     1      47.174   4.045  13.501  0.00  0.00    +0.000 OA
ATOM     14  C   UNL     1      45.412   5.218  12.430  0.00  0.00    +0.000 A 
ATOM     15  H   UNL     1      45.821   2.031  13.138  0.00  0.00    +0.000 HD
ENDBRANCH   2   5
BRANCH   3  16
ATOM     16  C   UNL     1      48.200   8.857  14.216  0.00  0.00    +0.000 C 
BRANCH  16  17
ATOM     17  C   UNL     1      48.813   8.084  15.354  0.00  0.00    +0.000 A 
ATOM     18  C   UNL     1      49.975   7.332  15.146  0.00  0.00    +0.000 A 
ATOM     19  C   UNL     1      50.564   6.627  16.198  0.00  0.00    +0.000 A 
ATOM     20  C   UNL     1      49.988   6.639  17.475  0.00  0.00    +0.000 A 
ATOM     21  C   UNL     1      48.818   7.382  17.682  0.00  0.00    +0.000 A 
ATOM     22  C   UNL     1      48.229   8.088  16.629  0.00  0.00    +0.000 A 
BRANCH  20  23
ATOM     23  C   UNL     1      50.618   5.860  18.603  0.00  0.00    +0.000 C 
BRANCH  23  24
ATOM     24  O   UNL     1      49.756   4.790  18.989  0.00  0.00    +0.000 OA
BRANCH  24  25
ATOM     25  C   UNL     1      49.561   3.798  18.065  0.00  0.00    +0.000 A 
ATOM     26  C   UNL     1      48.371   3.528  17.394  0.00  0.00    +0.000 A 
ATOM     27  C   UNL     1      48.352   2.481  16.485  0.00  0.00    +0.000 A 
ATOM     28  N   UNL     1      49.419   1.703  16.210  0.00  0.00    +0.000 NA
ATOM     29  C   UNL     1      50.558   1.985  16.874  0.00  0.00    +0.000 A 
ATOM     30  C   UNL     1      50.675   3.007  17.800  0.00  0.00    +0.000 A 
ENDBRANCH  24  25
ENDBRANCH  23  24
ENDBRANCH  20  23
ENDBRANCH  16  17
ENDBRANCH   3  16
TORSDOF 6
ENDMDL
MODEL 9
REMARK VINA RESULT:    -6.581      4.486      7.149
REMARK INTER + INTRA:          -9.986
REMARK INTER:                  -8.977
REMARK INTRA:                  -1.009
REMARK UNBOUND:                -1.097
REMARK  Name = 
REMARK  6 active torsions:
REMARK  status: ('A' for Active; 'I' for Inactive)
REMARK    1  A    between atoms: C_2  and  C_19
REMARK    2  A    between atoms: N_3  and  C_4
REMARK    3  A    between atoms: C_4  and  C_5
REMARK    4  A    between atoms: C_8  and  C_9
REMARK    5  A    between atoms: C_9  and  O_10
REMARK    6  A    between atoms: O_10  and  C_11
REMARK                            x       y       z     vdW  Elec       q    Type
REMARK                         _______ _______ _______ _____ _____    ______ ____
ROOT
ATOM      1  O   UNL     1      44.514   7.585  11.243  0.00  0.00    +0.000 OA
ATOM      2  C   UNL     1      44.993   6.639  11.860  0.00  0.00    +0.000 C 
ATOM      3  N   UNL     1      45.919   6.799  12.858  0.00  0.00    +0.000 N 
ATOM      4  H   UNL     1      46.412   5.987  13.208  0.00  0.00    +0.000 HD
ENDROOT
BRANCH   2   5
ATOM      5  C   UNL     1      44.554   5.259  11.608  0.00  0.00    +0.000 A 
ATOM      6  C   UNL     1      43.818   4.581  12.570  0.00  0.00    +0.000 A 
ATOM      7  S   UNL     1      43.422   2.983  12.126  0.00  0.00    +0.000 S 
ATOM      8  C   UNL     1      44.177   3.159  10.611  0.00  0.00    +0.000 A 
ATOM      9  N   UNL     1      44.177   2.142   9.707  0.00  0.00    +0.000 NA
ATOM     10  C   UNL     1      44.740   2.430   8.581  0.00  0.00    +0.000 A 
ATOM     11  N   UNL     1      45.313   3.637   8.280  0.00  0.00    +0.000 N 
ATOM     12  C   UNL     1      45.410   4.661   9.190  0.00  0.00    +0.000 A 
ATOM     13  O   UNL     1      46.056   5.674   8.936  0.00  0.00    +0.000 OA
ATOM     14  C   UNL     1      44.746   4.410  10.457  0.00  0.00    +0.000 A 
ATOM     15  H   UNL     1      45.768   3.789   7.391  0.00  0.00    +0.000 HD
ENDBRANCH   2   5
BRANCH   3  16
ATOM     16  C   UNL     1      46.492   8.075  13.199  0.00  0.00    +0.000 C 
BRANCH  16  17
ATOM     17  C   UNL     1      47.843   8.264  12.561  0.00  0.00    +0.000 A 
ATOM     18  C   UNL     1      48.194   9.504  12.015  0.00  0.00    +0.000 A 
ATOM     19  C   UNL     1      49.450   9.698  11.437  0.00  0.00    +0.000 A 
ATOM     20  C   UNL     1      50.374   8.646  11.371  0.00  0.00    +0.000 A 
ATOM     21  C   UNL     1      50.020   7.401  11.907  0.00  0.00    +0.000 A 
ATOM     22  C   UNL     1      48.761   7.208  12.485  0.00  0.00    +0.000 A 
BRANCH  20  23
ATOM     23  C   UNL     1      51.723   8.856  10.729  0.00  0.00    +0.000 C 
BRANCH  23  24
ATOM     24  O   UNL     1      52.554   7.721  10.975  0.00  0.00    +0.000 OA
BRANCH  24  25
ATOM     25  C   UNL     1      52.936   6.995   9.878  0.00  0.00    +0.000 A 
ATOM     26  C   UNL     1      52.432   7.137   8.588  0.00  0.00    +0.000 A 
ATOM     27  C   UNL     1      52.936   6.315   7.591  0.00  0.00    +0.000 A 
ATOM     28  N   UNL     1      53.887   5.380   7.795  0.00  0.00    +0.000 NA
ATOM     29  C   UNL     1      54.356   5.262   9.054  0.00  0.00    +0.000 A 
ATOM     30  C   UNL     1      53.916   6.035  10.114  0.00  0.00    +0.000 A 
ENDBRANCH  24  25
ENDBRANCH  23  24
ENDBRANCH  20  23
ENDBRANCH  16  17
ENDBRANCH   3  16
TORSDOF 6
ENDMDL
