MODEL 1
REMARK VINA RESULT:    -9.062      0.000      0.000
REMARK INTER + INTRA:         -12.038
REMARK INTER:                 -11.710
REMARK INTRA:                  -0.327
REMARK UNBOUND:                -0.327
REMARK  Name = 
REMARK  5 active torsions:
REMARK  status: ('A' for Active; 'I' for Inactive)
REMARK    1  A    between atoms: C_2  and  C_18
REMARK    2  A    between atoms: N_3  and  C_4
REMARK    3  A    between atoms: C_4  and  C_5
REMARK    4  A    between atoms: C_8  and  O_9
REMARK    5  A    between atoms: O_9  and  C_10
REMARK                            x       y       z     vdW  Elec       q    Type
REMARK                         _______ _______ _______ _____ _____    ______ ____
ROOT
ATOM      1  O   UNL     1      46.666   3.226  13.765  0.00  0.00    +0.000 OA
ATOM      2  C   UNL     1      46.404   4.374  14.119  0.00  0.00    +0.000 C 
ATOM      3  N   UNL     1      45.173   4.942  13.929  0.00  0.00    +0.000 N 
ATOM      4  H   UNL     1      45.069   5.943  14.051  0.00  0.00    +0.000 HD
ENDROOT
BRANCH   2   5
ATOM      5  C   UNL     1      47.389   5.202  14.824  0.00  0.00    +0.000 A 
ATOM      6  C   UNL     1      48.036   6.227  14.150  0.00  0.00    +0.000 A 
ATOM      7  S   UNL     1      49.168   7.067  15.111  0.00  0.00    +0.000 S 
ATOM      8  C   UNL     1      48.794   6.122  16.476  0.00  0.00    +0.000 A 
ATOM      9  N   UNL     1      49.401   6.349  17.672  0.00  0.00    +0.000 NA
ATOM     10  C   UNL     1      48.991   5.587  18.633  0.00  0.00    +0.000 A 
ATOM     11  N   UNL     1      48.037   4.611  18.501  0.00  0.00    +0.000 N 
ATOM     12  C   UNL     1      47.455   4.297  17.297  0.00  0.00    +0.000 A 
ATOM     13  O   UNL     1      46.710   3.327  17.190  0.00  0.00    +0.000 OA
ATOM     14  C   UNL     1      47.843   5.158  16.196  0.00  0.00    +0.000 A 
ATOM     15  H   UNL     1      47.784   4.028  19.284  0.00  0.00    +0.000 HD
ENDBRANCH   2   5
BRANCH   3  16
ATOM     16  C   UNL     1      44.127   4.301  13.173  0.00  0.00    +0.000 C 
BRANCH  16  17
ATOM     17  C   UNL     1      44.446   4.316  11.701  0.00  0.00    +0.000 A 
ATOM     18  C   UNL     1      45.296   5.300  11.182  0.00  0.00    +0.000 A 
ATOM     19  C   UNL     1      45.604   5.323   9.822  0.00  0.00    +0.000 A 
ATOM     20  C   UNL     1      45.108   4.329   8.973  0.00  0.00    +0.000 A 
ATOM     21  C   UNL     1      44.202   3.390   9.468  0.00  0.00    +0.000 A 
ATOM     22  C   UNL     1      43.866   3.387  10.825  0.00  0.00    +0.000 A 
BRANCH  20  23
ATOM     23  O   UNL     1      45.414   4.235   7.634  0.00  0.00    +0.000 OA
BRANCH  23  24
ATOM     24  C   UNL     1      46.264   3.243   7.197  0.00  0.00    +0.000 A 
ATOM     25  C   UNL     1      46.449   2.019   7.839  0.00  0.00    +0.000 A 
ATOM     26  C   UNL     1      47.377   1.139   7.310  0.00  0.00    +0.000 A 
ATOM     27  N   UNL     1      48.070   1.372   6.177  0.00  0.00    +0.000 NA
ATOM     28  C   UNL     1      47.819   2.535   5.538  0.00  0.00    +0.000 A 
ATOM     29  C   UNL     1      46.934   3.492   6.004  0.00  0.00    +0.000 A 
ENDBRANCH  23  24
ENDBRANCH  20  23
ENDBRANCH  16  17
ENDBRANCH   3  16
TORSDOF 5
ENDMDL
MODEL 2
REMARK VINA RESULT:    -8.844      1.504      2.287
REMARK INTER + INTRA:         -11.757
REMARK INTER:                 -11.030
REMARK INTRA:                  -0.727
REMARK UNBOUND:                -0.327
REMARK  Name = 
REMARK  5 active torsions:
REMARK  status: ('A' for Active; 'I' for Inactive)
REMARK    1  A    between atoms: C_2  and  C_18
REMARK    2  A    between atoms: N_3  and  C_4
REMARK    3  A    between atoms: C_4  and  C_5
REMARK    4  A    between atoms: C_8  and  O_9
REMARK    5  A    between atoms: O_9  and  C_10
REMARK                            x       y       z     vdW  Elec       q    Type
REMARK                         _______ _______ _______ _____ _____    ______ ____
ROOT
ATOM      1  O   UNL     1      48.378   7.182  12.639  0.00  0.00    +0.000 OA
ATOM      2  C   UNL     1      47.706   6.822  13.604  0.00  0.00    +0.000 C 
ATOM      3  N   UNL     1      46.338   6.764  13.568  0.00  0.00    +0.000 N 
ATOM      4  H   UNL     1      45.828   6.660  14.439  0.00  0.00    +0.000 HD
ENDROOT
BRANCH   2   5
ATOM      5  C   UNL     1      48.334   6.377  14.853  0.00  0.00    +0.000 A 
ATOM      6  C   UNL     1      49.363   7.123  15.410  0.00  0.00    +0.000 A 
ATOM      7  S   UNL     1      49.996   6.446  16.843  0.00  0.00    +0.000 S 
ATOM      8  C   UNL     1      48.882   5.161  16.794  0.00  0.00    +0.000 A 
ATOM      9  N   UNL     1      48.861   4.215  17.772  0.00  0.00    +0.000 NA
ATOM     10  C   UNL     1      47.936   3.323  17.634  0.00  0.00    +0.000 A 
ATOM     11  N   UNL     1      47.037   3.286  16.598  0.00  0.00    +0.000 N 
ATOM     12  C   UNL     1      47.071   4.174  15.552  0.00  0.00    +0.000 A 
ATOM     13  O   UNL     1      46.341   4.027  14.575  0.00  0.00    +0.000 OA
ATOM     14  C   UNL     1      48.058   5.229  15.685  0.00  0.00    +0.000 A 
ATOM     15  H   UNL     1      46.358   2.542  16.532  0.00  0.00    +0.000 HD
ENDBRANCH   2   5
BRANCH   3  16
ATOM     16  C   UNL     1      45.566   7.253  12.455  0.00  0.00    +0.000 C 
BRANCH  16  17
ATOM     17  C   UNL     1      45.328   6.160  11.448  0.00  0.00    +0.000 A 
ATOM     18  C   UNL     1      44.461   5.104  11.756  0.00  0.00    +0.000 A 
ATOM     19  C   UNL     1      44.229   4.087  10.831  0.00  0.00    +0.000 A 
ATOM     20  C   UNL     1      44.819   4.141   9.565  0.00  0.00    +0.000 A 
ATOM     21  C   UNL     1      45.741   5.148   9.278  0.00  0.00    +0.000 A 
ATOM     22  C   UNL     1      46.002   6.150  10.218  0.00  0.00    +0.000 A 
BRANCH  20  23
ATOM     23  O   UNL     1      44.593   3.218   8.568  0.00  0.00    +0.000 OA
BRANCH  23  24
ATOM     24  C   UNL     1      45.661   2.681   7.883  0.00  0.00    +0.000 A 
ATOM     25  C   UNL     1      46.365   3.337   6.875  0.00  0.00    +0.000 A 
ATOM     26  C   UNL     1      47.385   2.651   6.239  0.00  0.00    +0.000 A 
ATOM     27  N   UNL     1      47.775   1.405   6.578  0.00  0.00    +0.000 NA
ATOM     28  C   UNL     1      47.121   0.821   7.605  0.00  0.00    +0.000 A 
ATOM     29  C   UNL     1      46.069   1.412   8.282  0.00  0.00    +0.000 A 
ENDBRANCH  23  24
ENDBRANCH  20  23
ENDBRANCH  16  17
ENDBRANCH   3  16
TORSDOF 5
ENDMDL
MODEL 3
REMARK VINA RESULT:    -8.593      1.677      2.086
REMARK INTER + INTRA:         -11.431
REMARK INTER:                 -10.664
REMARK INTRA:                  -0.767
REMARK UNBOUND:                -0.327
REMARK  Name = 
REMARK  5 active torsions:
REMARK  status: ('A' for Active; 'I' for Inactive)
REMARK    1  A    between atoms: C_2  and  C_18
REMARK    2  A    between atoms: N_3  and  C_4
REMARK    3  A    between atoms: C_4  and  C_5
REMARK    4  A    between atoms: C_8  and  O_9
REMARK    5  A    between atoms: O_9  and  C_10
REMARK                            x       y       z     vdW  Elec       q    Type
REMARK                         _______ _______ _______ _____ _____    ______ ____
ROOT
ATOM      1  O   UNL     1      47.640   4.577  13.683  0.00  0.00    +0.000 OA
ATOM      2  C   UNL     1      47.490   5.793  13.581  0.00  0.00    +0.000 C 
ATOM      3  N   UNL     1      46.261   6.372  13.409  0.00  0.00    +0.000 N 
ATOM      4  H   UNL     1      46.212   7.346  13.130  0.00  0.00    +0.000 HD
ENDROOT
BRANCH   2   5
ATOM      5  C   UNL     1      48.625   6.717  13.690  0.00  0.00    +0.000 A 
ATOM      6  C   UNL     1      49.043   7.429  12.575  0.00  0.00    +0.000 A 
ATOM      7  S   UNL     1      50.390   8.432  12.873  0.00  0.00    +0.000 S 
ATOM      8  C   UNL     1      50.428   7.988  14.515  0.00  0.00    +0.000 A 
ATOM      9  N   UNL     1      51.345   8.525  15.365  0.00  0.00    +0.000 NA
ATOM     10  C   UNL     1      51.232   8.133  16.592  0.00  0.00    +0.000 A 
ATOM     11  N   UNL     1      50.290   7.243  17.042  0.00  0.00    +0.000 N 
ATOM     12  C   UNL     1      49.396   6.620  16.206  0.00  0.00    +0.000 A 
ATOM     13  O   UNL     1      48.662   5.726  16.621  0.00  0.00    +0.000 OA
ATOM     14  C   UNL     1      49.447   7.064  14.826  0.00  0.00    +0.000 A 
ATOM     15  H   UNL     1      50.276   6.953  18.008  0.00  0.00    +0.000 HD
ENDBRANCH   2   5
BRANCH   3  16
ATOM     16  C   UNL     1      45.062   5.605  13.190  0.00  0.00    +0.000 C 
BRANCH  16  17
ATOM     17  C   UNL     1      44.989   5.124  11.765  0.00  0.00    +0.000 A 
ATOM     18  C   UNL     1      45.713   5.786  10.767  0.00  0.00    +0.000 A 
ATOM     19  C   UNL     1      45.659   5.348   9.444  0.00  0.00    +0.000 A 
ATOM     20  C   UNL     1      44.922   4.208   9.112  0.00  0.00    +0.000 A 
ATOM     21  C   UNL     1      44.140   3.587  10.086  0.00  0.00    +0.000 A 
ATOM     22  C   UNL     1      44.166   4.046  11.406  0.00  0.00    +0.000 A 
BRANCH  20  23
ATOM     23  O   UNL     1      44.867   3.666   7.848  0.00  0.00    +0.000 OA
BRANCH  23  24
ATOM     24  C   UNL     1      45.890   2.854   7.409  0.00  0.00    +0.000 A 
ATOM     25  C   UNL     1      46.242   1.638   7.992  0.00  0.00    +0.000 A 
ATOM     26  C   UNL     1      47.327   0.955   7.472  0.00  0.00    +0.000 A 
ATOM     27  N   UNL     1      48.029   1.369   6.397  0.00  0.00    +0.000 NA
ATOM     28  C   UNL     1      47.621   2.516   5.809  0.00  0.00    +0.000 A 
ATOM     29  C   UNL     1      46.568   3.285   6.273  0.00  0.00    +0.000 A 
ENDBRANCH  23  24
ENDBRANCH  20  23
ENDBRANCH  16  17
ENDBRANCH   3  16
TORSDOF 5
ENDMDL
MODEL 4
REMARK VINA RESULT:    -8.582      1.731      2.423
REMARK INTER + INTRA:         -11.418
REMARK INTER:                 -10.612
REMARK INTRA:                  -0.806
REMARK UNBOUND:                -0.327
REMARK  Name = 
REMARK  5 active torsions:
REMARK  status: ('A' for Active; 'I' for Inactive)
REMARK    1  A    between atoms: C_2  and  C_18
REMARK    2  A    between atoms: N_3  and  C_4
REMARK    3  A    between atoms: C_4  and  C_5
REMARK    4  A    between atoms: C_8  and  O_9
REMARK    5  A    between atoms: O_9  and  C_10
REMARK                            x       y       z     vdW  Elec       q    Type
REMARK                         _______ _______ _______ _____ _____    ______ ____
ROOT
ATOM      1  O   UNL     1      48.286   6.263  13.598  0.00  0.00    +0.000 OA
ATOM      2  C   UNL     1      47.429   5.715  14.289  0.00  0.00    +0.000 C 
ATOM      3  N   UNL     1      46.099   5.731  13.965  0.00  0.00    +0.000 N 
ATOM      4  H   UNL     1      45.420   5.445  14.661  0.00  0.00    +0.000 HD
ENDROOT
BRANCH   2   5
ATOM      5  C   UNL     1      47.786   4.955  15.493  0.00  0.00    +0.000 A 
ATOM      6  C   UNL     1      47.430   3.619  15.595  0.00  0.00    +0.000 A 
ATOM      7  S   UNL     1      47.897   2.899  17.069  0.00  0.00    +0.000 S 
ATOM      8  C   UNL     1      48.637   4.336  17.600  0.00  0.00    +0.000 A 
ATOM      9  N   UNL     1      49.272   4.394  18.802  0.00  0.00    +0.000 NA
ATOM     10  C   UNL     1      49.827   5.533  19.060  0.00  0.00    +0.000 A 
ATOM     11  N   UNL     1      49.794   6.622  18.227  0.00  0.00    +0.000 N 
ATOM     12  C   UNL     1      49.102   6.631  17.041  0.00  0.00    +0.000 A 
ATOM     13  O   UNL     1      48.979   7.666  16.390  0.00  0.00    +0.000 OA
ATOM     14  C   UNL     1      48.503   5.360  16.680  0.00  0.00    +0.000 A 
ATOM     15  H   UNL     1      50.221   7.494  18.502  0.00  0.00    +0.000 HD
ENDBRANCH   2   5
BRANCH   3  16
ATOM     16  C   UNL     1      45.572   6.507  12.872  0.00  0.00    +0.000 C 
BRANCH  16  17
ATOM     17  C   UNL     1      45.377   5.648  11.651  0.00  0.00    +0.000 A 
ATOM     18  C   UNL     1      44.662   4.448  11.750  0.00  0.00    +0.000 A 
ATOM     19  C   UNL     1      44.470   3.644  10.627  0.00  0.00    +0.000 A 
ATOM     20  C   UNL     1      44.943   4.057   9.379  0.00  0.00    +0.000 A 
ATOM     21  C   UNL     1      45.720   5.213   9.286  0.00  0.00    +0.000 A 
ATOM     22  C   UNL     1      45.943   6.002  10.418  0.00  0.00    +0.000 A 
BRANCH  20  23
ATOM     23  O   UNL     1      44.741   3.362   8.208  0.00  0.00    +0.000 OA
BRANCH  23  24
ATOM     24  C   UNL     1      45.810   2.765   7.576  0.00  0.00    +0.000 A 
ATOM     25  C   UNL     1      46.514   3.324   6.511  0.00  0.00    +0.000 A 
ATOM     26  C   UNL     1      47.535   2.582   5.944  0.00  0.00    +0.000 A 
ATOM     27  N   UNL     1      47.928   1.375   6.399  0.00  0.00    +0.000 NA
ATOM     28  C   UNL     1      47.273   0.889   7.477  0.00  0.00    +0.000 A 
ATOM     29  C   UNL     1      46.220   1.540   8.094  0.00  0.00    +0.000 A 
ENDBRANCH  23  24
ENDBRANCH  20  23
ENDBRANCH  16  17
ENDBRANCH   3  16
TORSDOF 5
ENDMDL
MODEL 5
REMARK VINA RESULT:    -8.358      2.133      3.132
REMARK INTER + INTRA:         -11.128
REMARK INTER:                 -10.760
REMARK INTRA:                  -0.367
REMARK UNBOUND:                -0.327
REMARK  Name = 
REMARK  5 active torsions:
REMARK  status: ('A' for Active; 'I' for Inactive)
REMARK    1  A    between atoms: C_2  and  C_18
REMARK    2  A    between atoms: N_3  and  C_4
REMARK    3  A    between atoms: C_4  and  C_5
REMARK    4  A    between atoms: C_8  and  O_9
REMARK    5  A    between atoms: O_9  and  C_10
REMARK                            x       y       z     vdW  Elec       q    Type
REMARK                         _______ _______ _______ _____ _____    ______ ____
ROOT
ATOM      1  O   UNL     1      46.993   4.205  14.583  0.00  0.00    +0.000 OA
ATOM      2  C   UNL     1      47.023   5.377  14.211  0.00  0.00    +0.000 C 
ATOM      3  N   UNL     1      45.947   5.993  13.628  0.00  0.00    +0.000 N 
ATOM      4  H   UNL     1      46.085   6.882  13.161  0.00  0.00    +0.000 HD
ENDROOT
BRANCH   2   5
ATOM      5  C   UNL     1      48.208   6.217  14.418  0.00  0.00    +0.000 A 
ATOM      6  C   UNL     1      48.814   6.258  15.665  0.00  0.00    +0.000 A 
ATOM      7  S   UNL     1      50.159   7.306  15.736  0.00  0.00    +0.000 S 
ATOM      8  C   UNL     1      50.007   7.701  14.088  0.00  0.00    +0.000 A 
ATOM      9  N   UNL     1      50.886   8.549  13.487  0.00  0.00    +0.000 NA
ATOM     10  C   UNL     1      50.679   8.727  12.223  0.00  0.00    +0.000 A 
ATOM     11  N   UNL     1      49.665   8.141  11.510  0.00  0.00    +0.000 N 
ATOM     12  C   UNL     1      48.711   7.342  12.090  0.00  0.00    +0.000 A 
ATOM     13  O   UNL     1      47.740   6.950  11.448  0.00  0.00    +0.000 OA
ATOM     14  C   UNL     1      48.927   7.068  13.498  0.00  0.00    +0.000 A 
ATOM     15  H   UNL     1      49.539   8.347  10.530  0.00  0.00    +0.000 HD
ENDBRANCH   2   5
BRANCH   3  16
ATOM     16  C   UNL     1      44.745   5.286  13.269  0.00  0.00    +0.000 C 
BRANCH  16  17
ATOM     17  C   UNL     1      44.764   4.904  11.813  0.00  0.00    +0.000 A 
ATOM     18  C   UNL     1      45.564   5.620  10.915  0.00  0.00    +0.000 A 
ATOM     19  C   UNL     1      45.595   5.274   9.564  0.00  0.00    +0.000 A 
ATOM     20  C   UNL     1      44.867   4.173   9.104  0.00  0.00    +0.000 A 
ATOM     21  C   UNL     1      44.011   3.502   9.978  0.00  0.00    +0.000 A 
ATOM     22  C   UNL     1      43.952   3.869  11.325  0.00  0.00    +0.000 A 
BRANCH  20  23
ATOM     23  O   UNL     1      44.891   3.720   7.805  0.00  0.00    +0.000 OA
BRANCH  23  24
ATOM     24  C   UNL     1      45.911   2.891   7.391  0.00  0.00    +0.000 A 
ATOM     25  C   UNL     1      46.233   1.674   7.989  0.00  0.00    +0.000 A 
ATOM     26  C   UNL     1      47.319   0.972   7.495  0.00  0.00    +0.000 A 
ATOM     27  N   UNL     1      48.047   1.368   6.431  0.00  0.00    +0.000 NA
ATOM     28  C   UNL     1      47.668   2.516   5.828  0.00  0.00    +0.000 A 
ATOM     29  C   UNL     1      46.617   3.304   6.266  0.00  0.00    +0.000 A 
ENDBRANCH  23  24
ENDBRANCH  20  23
ENDBRANCH  16  17
ENDBRANCH   3  16
TORSDOF 5
ENDMDL
MODEL 6
REMARK VINA RESULT:    -7.787      2.042      2.994
REMARK INTER + INTRA:         -10.390
REMARK INTER:                  -9.587
REMARK INTRA:                  -0.803
REMARK UNBOUND:                -0.327
REMARK  Name = 
REMARK  5 active torsions:
REMARK  status: ('A' for Active; 'I' for Inactive)
REMARK    1  A    between atoms: C_2  and  C_18
REMARK    2  A    between atoms: N_3  and  C_4
REMARK    3  A    between atoms: C_4  and  C_5
REMARK    4  A    between atoms: C_8  and  O_9
REMARK    5  A    between atoms: O_9  and  C_10
REMARK                            x       y       z     vdW  Elec       q    Type
REMARK                         _______ _______ _______ _____ _____    ______ ____
ROOT
ATOM      1  O   UNL     1      49.464   6.673  14.026  0.00  0.00    +0.000 OA
ATOM      2  C   UNL     1      48.681   6.963  14.930  0.00  0.00    +0.000 C 
ATOM      3  N   UNL     1      47.519   7.653  14.706  0.00  0.00    +0.000 N 
ATOM      4  H   UNL     1      47.017   8.039  15.497  0.00  0.00    +0.000 HD
ENDROOT
BRANCH   2   5
ATOM      5  C   UNL     1      48.918   6.539  16.315  0.00  0.00    +0.000 A 
ATOM      6  C   UNL     1      49.492   7.423  17.217  0.00  0.00    +0.000 A 
ATOM      7  S   UNL     1      49.722   6.757  18.771  0.00  0.00    +0.000 S 
ATOM      8  C   UNL     1      49.014   5.282  18.304  0.00  0.00    +0.000 A 
ATOM      9  N   UNL     1      48.868   4.263  19.194  0.00  0.00    +0.000 NA
ATOM     10  C   UNL     1      48.275   3.218  18.717  0.00  0.00    +0.000 A 
ATOM     11  N   UNL     1      47.826   3.096  17.427  0.00  0.00    +0.000 N 
ATOM     12  C   UNL     1      48.021   4.068  16.477  0.00  0.00    +0.000 A 
ATOM     13  O   UNL     1      47.730   3.868  15.300  0.00  0.00    +0.000 OA
ATOM     14  C   UNL     1      48.636   5.285  16.973  0.00  0.00    +0.000 A 
ATOM     15  H   UNL     1      47.399   2.239  17.108  0.00  0.00    +0.000 HD
ENDBRANCH   2   5
BRANCH   3  16
ATOM     16  C   UNL     1      47.185   8.221  13.425  0.00  0.00    +0.000 C 
BRANCH  16  17
ATOM     17  C   UNL     1      46.329   7.273  12.628  0.00  0.00    +0.000 A 
ATOM     18  C   UNL     1      45.315   7.774  11.803  0.00  0.00    +0.000 A 
ATOM     19  C   UNL     1      44.518   6.908  11.055  0.00  0.00    +0.000 A 
ATOM     20  C   UNL     1      44.760   5.532  11.082  0.00  0.00    +0.000 A 
ATOM     21  C   UNL     1      45.718   5.019  11.957  0.00  0.00    +0.000 A 
ATOM     22  C   UNL     1      46.496   5.884  12.733  0.00  0.00    +0.000 A 
BRANCH  20  23
ATOM     23  O   UNL     1      44.069   4.612  10.326  0.00  0.00    +0.000 OA
BRANCH  23  24
ATOM     24  C   UNL     1      44.757   3.777   9.472  0.00  0.00    +0.000 A 
ATOM     25  C   UNL     1      44.733   2.385   9.537  0.00  0.00    +0.000 A 
ATOM     26  C   UNL     1      45.516   1.677   8.642  0.00  0.00    +0.000 A 
ATOM     27  N   UNL     1      46.255   2.255   7.673  0.00  0.00    +0.000 NA
ATOM     28  C   UNL     1      46.204   3.602   7.590  0.00  0.00    +0.000 A 
ATOM     29  C   UNL     1      45.476   4.398   8.457  0.00  0.00    +0.000 A 
ENDBRANCH  23  24
ENDBRANCH  20  23
ENDBRANCH  16  17
ENDBRANCH   3  16
TORSDOF 5
ENDMDL
MODEL 7
REMARK VINA RESULT:    -7.258      3.575      8.507
REMARK INTER + INTRA:          -9.706
REMARK INTER:                  -8.645
REMARK INTRA:                  -1.061
REMARK UNBOUND:                -0.327
REMARK  Name = 
REMARK  5 active torsions:
REMARK  status: ('A' for Active; 'I' for Inactive)
REMARK    1  A    between atoms: C_2  and  C_18
REMARK    2  A    between atoms: N_3  and  C_4
REMARK    3  A    between atoms: C_4  and  C_5
REMARK    4  A    between atoms: C_8  and  O_9
REMARK    5  A    between atoms: O_9  and  C_10
REMARK                            x       y       z     vdW  Elec       q    Type
REMARK                         _______ _______ _______ _____ _____    ______ ____
ROOT
ATOM      1  O   UNL     1      46.227   8.001  11.653  0.00  0.00    +0.000 OA
ATOM      2  C   UNL     1      46.480   6.814  11.849  0.00  0.00    +0.000 C 
ATOM      3  N   UNL     1      47.362   6.397  12.810  0.00  0.00    +0.000 N 
ATOM      4  H   UNL     1      47.686   5.436  12.796  0.00  0.00    +0.000 HD
ENDROOT
BRANCH   2   5
ATOM      5  C   UNL     1      45.806   5.751  11.094  0.00  0.00    +0.000 A 
ATOM      6  C   UNL     1      45.980   5.667   9.720  0.00  0.00    +0.000 A 
ATOM      7  S   UNL     1      45.104   4.393   8.999  0.00  0.00    +0.000 S 
ATOM      8  C   UNL     1      44.503   3.880  10.506  0.00  0.00    +0.000 A 
ATOM      9  N   UNL     1      43.694   2.790  10.603  0.00  0.00    +0.000 NA
ATOM     10  C   UNL     1      43.348   2.486  11.811  0.00  0.00    +0.000 A 
ATOM     11  N   UNL     1      43.729   3.182  12.929  0.00  0.00    +0.000 N 
ATOM     12  C   UNL     1      44.480   4.330  12.871  0.00  0.00    +0.000 A 
ATOM     13  O   UNL     1      44.684   5.003  13.879  0.00  0.00    +0.000 OA
ATOM     14  C   UNL     1      44.939   4.686  11.542  0.00  0.00    +0.000 A 
ATOM     15  H   UNL     1      43.397   2.912  13.842  0.00  0.00    +0.000 HD
ENDBRANCH   2   5
BRANCH   3  16
ATOM     16  C   UNL     1      48.174   7.311  13.572  0.00  0.00    +0.000 C 
BRANCH  16  17
ATOM     17  C   UNL     1      48.688   6.653  14.825  0.00  0.00    +0.000 A 
ATOM     18  C   UNL     1      47.915   5.678  15.468  0.00  0.00    +0.000 A 
ATOM     19  C   UNL     1      48.381   5.057  16.626  0.00  0.00    +0.000 A 
ATOM     20  C   UNL     1      49.650   5.363  17.125  0.00  0.00    +0.000 A 
ATOM     21  C   UNL     1      50.393   6.385  16.534  0.00  0.00    +0.000 A 
ATOM     22  C   UNL     1      49.913   7.033  15.392  0.00  0.00    +0.000 A 
BRANCH  20  23
ATOM     23  O   UNL     1      50.216   4.752  18.221  0.00  0.00    +0.000 OA
BRANCH  23  24
ATOM     24  C   UNL     1      51.033   3.656  18.044  0.00  0.00    +0.000 A 
ATOM     25  C   UNL     1      50.643   2.469  17.427  0.00  0.00    +0.000 A 
ATOM     26  C   UNL     1      51.560   1.434  17.366  0.00  0.00    +0.000 A 
ATOM     27  N   UNL     1      52.828   1.528  17.816  0.00  0.00    +0.000 NA
ATOM     28  C   UNL     1      53.199   2.714  18.345  0.00  0.00    +0.000 A 
ATOM     29  C   UNL     1      52.347   3.797  18.478  0.00  0.00    +0.000 A 
ENDBRANCH  23  24
ENDBRANCH  20  23
ENDBRANCH  16  17
ENDBRANCH   3  16
TORSDOF 5
ENDMDL
MODEL 8
REMARK VINA RESULT:    -7.081      3.281      4.996
REMARK INTER + INTRA:          -9.478
REMARK INTER:                  -8.082
REMARK INTRA:                  -1.396
REMARK UNBOUND:                -0.327
REMARK  Name = 
REMARK  5 active torsions:
REMARK  status: ('A' for Active; 'I' for Inactive)
REMARK    1  A    between atoms: C_2  and  C_18
REMARK    2  A    between atoms: N_3  and  C_4
REMARK    3  A    between atoms: C_4  and  C_5
REMARK    4  A    between atoms: C_8  and  O_9
REMARK    5  A    between atoms: O_9  and  C_10
REMARK                            x       y       z     vdW  Elec       q    Type
REMARK                         _______ _______ _______ _____ _____    ______ ____
ROOT
ATOM      1  O   UNL     1      48.035   9.122  16.844  0.00  0.00    +0.000 OA
ATOM      2  C   UNL     1      48.671   8.088  16.649  0.00  0.00    +0.000 C 
ATOM      3  N   UNL     1      49.296   7.819  15.461  0.00  0.00    +0.000 N 
ATOM      4  H   UNL     1      49.629   6.878  15.283  0.00  0.00    +0.000 HD
ENDROOT
BRANCH   2   5
ATOM      5  C   UNL     1      48.848   7.086  17.707  0.00  0.00    +0.000 A 
ATOM      6  C   UNL     1      49.284   7.481  18.964  0.00  0.00    +0.000 A 
ATOM      7  S   UNL     1      49.463   6.188  20.061  0.00  0.00    +0.000 S 
ATOM      8  C   UNL     1      48.914   5.062  18.909  0.00  0.00    +0.000 A 
ATOM      9  N   UNL     1      48.794   3.743  19.221  0.00  0.00    +0.000 NA
ATOM     10  C   UNL     1      48.324   3.008  18.266  0.00  0.00    +0.000 A 
ATOM     11  N   UNL     1      47.976   3.473  17.024  0.00  0.00    +0.000 N 
ATOM     12  C   UNL     1      48.153   4.780  16.643  0.00  0.00    +0.000 A 
ATOM     13  O   UNL     1      47.960   5.130  15.480  0.00  0.00    +0.000 OA
ATOM     14  C   UNL     1      48.628   5.658  17.694  0.00  0.00    +0.000 A 
ATOM     15  H   UNL     1      47.645   2.840  16.311  0.00  0.00    +0.000 HD
ENDBRANCH   2   5
BRANCH   3  16
ATOM     16  C   UNL     1      49.143   8.650  14.294  0.00  0.00    +0.000 C 
BRANCH  16  17
ATOM     17  C   UNL     1      47.999   8.170  13.442  0.00  0.00    +0.000 A 
ATOM     18  C   UNL     1      48.205   7.141  12.514  0.00  0.00    +0.000 A 
ATOM     19  C   UNL     1      47.153   6.683  11.721  0.00  0.00    +0.000 A 
ATOM     20  C   UNL     1      45.869   7.211  11.884  0.00  0.00    +0.000 A 
ATOM     21  C   UNL     1      45.672   8.285  12.752  0.00  0.00    +0.000 A 
ATOM     22  C   UNL     1      46.733   8.769  13.524  0.00  0.00    +0.000 A 
BRANCH  20  23
ATOM     23  O   UNL     1      44.761   6.773  11.194  0.00  0.00    +0.000 OA
BRANCH  23  24
ATOM     24  C   UNL     1      44.342   5.468  11.336  0.00  0.00    +0.000 A 
ATOM     25  C   UNL     1      44.368   4.513  10.321  0.00  0.00    +0.000 A 
ATOM     26  C   UNL     1      43.866   3.254  10.597  0.00  0.00    +0.000 A 
ATOM     27  N   UNL     1      43.406   2.879  11.809  0.00  0.00    +0.000 NA
ATOM     28  C   UNL     1      43.459   3.804  12.792  0.00  0.00    +0.000 A 
ATOM     29  C   UNL     1      43.914   5.098  12.607  0.00  0.00    +0.000 A 
ENDBRANCH  23  24
ENDBRANCH  20  23
ENDBRANCH  16  17
ENDBRANCH   3  16
TORSDOF 5
ENDMDL
MODEL 9
REMARK VINA RESULT:    -7.046      4.113      8.439
REMARK INTER + INTRA:          -9.432
REMARK INTER:                  -8.318
REMARK INTRA:                  -1.114
REMARK UNBOUND:                -0.327
REMARK  Name = 
REMARK  5 active torsions:
REMARK  status: ('A' for Active; 'I' for Inactive)
REMARK    1  A    between atoms: C_2  and  C_18
REMARK    2  A    between atoms: N_3  and  C_4
REMARK    3  A    between atoms: C_4  and  C_5
REMARK    4  A    between atoms: C_8  and  O_9
REMARK    5  A    between atoms: O_9  and  C_10
REMARK                            x       y       z     vdW  Elec       q    Type
REMARK                         _______ _______ _______ _____ _____    ______ ____
ROOT
ATOM      1  O   UNL     1      47.384   7.982  11.722  0.00  0.00    +0.000 OA
ATOM      2  C   UNL     1      46.774   7.307  12.550  0.00  0.00    +0.000 C 
ATOM      3  N   UNL     1      47.175   7.205  13.855  0.00  0.00    +0.000 N 
ATOM      4  H   UNL     1      46.763   6.486  14.440  0.00  0.00    +0.000 HD
ENDROOT
BRANCH   2   5
ATOM      5  C   UNL     1      45.536   6.602  12.202  0.00  0.00    +0.000 A 
ATOM      6  C   UNL     1      44.481   7.301  11.633  0.00  0.00    +0.000 A 
ATOM      7  S   UNL     1      43.111   6.333  11.320  0.00  0.00    +0.000 S 
ATOM      8  C   UNL     1      43.901   4.936  11.886  0.00  0.00    +0.000 A 
ATOM      9  N   UNL     1      43.281   3.725  11.864  0.00  0.00    +0.000 NA
ATOM     10  C   UNL     1      44.011   2.743  12.282  0.00  0.00    +0.000 A 
ATOM     11  N   UNL     1      45.301   2.867  12.731  0.00  0.00    +0.000 N 
ATOM     12  C   UNL     1      45.937   4.078  12.842  0.00  0.00    +0.000 A 
ATOM     13  O   UNL     1      47.039   4.166  13.379  0.00  0.00    +0.000 OA
ATOM     14  C   UNL     1      45.180   5.208  12.337  0.00  0.00    +0.000 A 
ATOM     15  H   UNL     1      45.806   2.064  13.075  0.00  0.00    +0.000 HD
ENDBRANCH   2   5
BRANCH   3  16
ATOM     16  C   UNL     1      48.415   7.757  14.336  0.00  0.00    +0.000 C 
BRANCH  16  17
ATOM     17  C   UNL     1      49.024   6.867  15.387  0.00  0.00    +0.000 A 
ATOM     18  C   UNL     1      50.374   7.012  15.728  0.00  0.00    +0.000 A 
ATOM     19  C   UNL     1      50.950   6.198  16.702  0.00  0.00    +0.000 A 
ATOM     20  C   UNL     1      50.168   5.264  17.388  0.00  0.00    +0.000 A 
ATOM     21  C   UNL     1      48.842   5.062  17.003  0.00  0.00    +0.000 A 
ATOM     22  C   UNL     1      48.273   5.854  16.002  0.00  0.00    +0.000 A 
BRANCH  20  23
ATOM     23  O   UNL     1      50.635   4.467  18.409  0.00  0.00    +0.000 OA
BRANCH  23  24
ATOM     24  C   UNL     1      51.409   3.366  18.114  0.00  0.00    +0.000 A 
ATOM     25  C   UNL     1      50.941   2.216  17.482  0.00  0.00    +0.000 A 
ATOM     26  C   UNL     1      51.825   1.167  17.298  0.00  0.00    +0.000 A 
ATOM     27  N   UNL     1      53.128   1.216  17.641  0.00  0.00    +0.000 NA
ATOM     28  C   UNL     1      53.570   2.369  18.188  0.00  0.00    +0.000 A 
ATOM     29  C   UNL     1      52.758   3.461  18.441  0.00  0.00    +0.000 A 
ENDBRANCH  23  24
ENDBRANCH  20  23
ENDBRANCH  16  17
ENDBRANCH   3  16
TORSDOF 5
ENDMDL
