MODEL 1
REMARK VINA RESULT:    -7.748      0.000      0.000
REMARK INTER + INTRA:         -12.031
REMARK INTER:                 -10.919
REMARK INTRA:                  -1.112
REMARK UNBOUND:                -1.112
REMARK  Name = 
REMARK  7 active torsions:
REMARK  status: ('A' for Active; 'I' for Inactive)
REMARK    1  A    between atoms: C_2  and  C_19
REMARK    2  A    between atoms: N_3  and  C_4
REMARK    3  A    between atoms: C_4  and  C_5
REMARK    4  A    between atoms: C_8  and  C_9
REMARK    5  A    between atoms: C_9  and  C_10
REMARK    6  A    between atoms: C_10  and  N_11
REMARK    7  A    between atoms: N_11  and  C_12
REMARK                            x       y       z     vdW  Elec       q    Type
REMARK                         _______ _______ _______ _____ _____    ______ ____
ROOT
ATOM      1  C   UNL     1      46.398   7.581  12.763  0.00  0.00    +0.000 C 
ENDROOT
BRANCH   1   2
ATOM      2  C   UNL     1      45.819   6.453  11.964  0.00  0.00    +0.000 A 
ATOM      3  C   UNL     1      44.887   5.563  12.501  0.00  0.00    +0.000 A 
ATOM      4  C   UNL     1      44.346   4.549  11.708  0.00  0.00    +0.000 A 
ATOM      5  C   UNL     1      44.762   4.438  10.387  0.00  0.00    +0.000 A 
ATOM      6  N   UNL     1      45.694   5.276   9.863  0.00  0.00    +0.000 NA
ATOM      7  C   UNL     1      46.202   6.245  10.650  0.00  0.00    +0.000 A 
BRANCH   5   8
ATOM      8  C   UNL     1      44.171   3.382   9.464  0.00  0.00    +0.000 C 
BRANCH   8   9
ATOM      9  C   UNL     1      45.151   2.206   9.305  0.00  0.00    +0.000 C 
BRANCH   9  10
ATOM     10  N   UNL     1      45.568   1.885   7.932  0.00  0.00    +0.000 NA
ATOM     11  H   UNL     1      44.845   2.163   7.269  0.00  0.00    +0.000 HD
BRANCH  10  12
ATOM     12  C   UNL     1      46.836   2.579   7.605  0.00  0.00    +0.000 C 
ATOM     13  C   UNL     1      46.775   3.558   6.430  0.00  0.00    +0.000 C 
ATOM     14  C   UNL     1      47.148   2.720   5.231  0.00  0.00    +0.000 C 
ATOM     15  N   UNL     1      48.210   1.837   5.714  0.00  0.00    +0.000 NA
ATOM     16  C   UNL     1      47.925   1.585   7.142  0.00  0.00    +0.000 C 
ATOM     17  H   UNL     1      49.101   2.329   5.646  0.00  0.00    +0.000 HD
ENDBRANCH  10  12
ENDBRANCH   9  10
ENDBRANCH   8   9
ENDBRANCH   5   8
ENDBRANCH   1   2
BRANCH   1  20
ATOM     18  O   UNL     1      48.957   6.477  13.093  0.00  0.00    +0.000 OA
ATOM     19  C   UNL     1      48.249   6.640  14.082  0.00  0.00    +0.000 C 
ATOM     20  N   UNL     1      46.969   7.124  14.000  0.00  0.00    +0.000 N 
ATOM     21  H   UNL     1      46.498   7.412  14.852  0.00  0.00    +0.000 HD
BRANCH  19  22
ATOM     22  C   UNL     1      48.713   6.272  15.421  0.00  0.00    +0.000 A 
ATOM     23  C   UNL     1      49.656   7.055  16.071  0.00  0.00    +0.000 A 
ATOM     24  S   UNL     1      50.068   6.478  17.623  0.00  0.00    +0.000 S 
ATOM     25  C   UNL     1      48.973   5.181  17.490  0.00  0.00    +0.000 A 
ATOM     26  N   UNL     1      48.804   4.296  18.512  0.00  0.00    +0.000 NA
ATOM     27  C   UNL     1      47.911   3.391  18.288  0.00  0.00    +0.000 A 
ATOM     28  N   UNL     1      47.183   3.280  17.132  0.00  0.00    +0.000 N 
ATOM     29  C   UNL     1      47.381   4.102  16.044  0.00  0.00    +0.000 A 
ATOM     30  O   UNL     1      46.832   3.868  14.970  0.00  0.00    +0.000 OA
ATOM     31  C   UNL     1      48.331   5.168  16.266  0.00  0.00    +0.000 A 
ATOM     32  H   UNL     1      46.527   2.521  17.006  0.00  0.00    +0.000 HD
ENDBRANCH  19  22
ENDBRANCH   1  20
TORSDOF 7
ENDMDL
MODEL 2
REMARK VINA RESULT:    -7.357      3.327      7.977
REMARK INTER + INTRA:         -11.480
REMARK INTER:                 -10.095
REMARK INTRA:                  -1.385
REMARK UNBOUND:                -1.112
REMARK  Name = 
REMARK  7 active torsions:
REMARK  status: ('A' for Active; 'I' for Inactive)
REMARK    1  A    between atoms: C_2  and  C_19
REMARK    2  A    between atoms: N_3  and  C_4
REMARK    3  A    between atoms: C_4  and  C_5
REMARK    4  A    between atoms: C_8  and  C_9
REMARK    5  A    between atoms: C_9  and  C_10
REMARK    6  A    between atoms: C_10  and  N_11
REMARK    7  A    between atoms: N_11  and  C_12
REMARK                            x       y       z     vdW  Elec       q    Type
REMARK                         _______ _______ _______ _____ _____    ______ ____
ROOT
ATOM      1  C   UNL     1      48.161   8.003  12.461  0.00  0.00    +0.000 C 
ENDROOT
BRANCH   1   2
ATOM      2  C   UNL     1      48.990   7.578  13.635  0.00  0.00    +0.000 A 
ATOM      3  C   UNL     1      50.282   8.061  13.847  0.00  0.00    +0.000 A 
ATOM      4  C   UNL     1      51.004   7.665  14.976  0.00  0.00    +0.000 A 
ATOM      5  C   UNL     1      50.416   6.776  15.868  0.00  0.00    +0.000 A 
ATOM      6  N   UNL     1      49.174   6.272  15.654  0.00  0.00    +0.000 NA
ATOM      7  C   UNL     1      48.499   6.668  14.557  0.00  0.00    +0.000 A 
BRANCH   5   8
ATOM      8  C   UNL     1      51.137   6.348  17.138  0.00  0.00    +0.000 C 
BRANCH   8   9
ATOM      9  C   UNL     1      50.380   5.191  17.815  0.00  0.00    +0.000 C 
BRANCH   9  10
ATOM     10  N   UNL     1      50.379   3.906  17.101  0.00  0.00    +0.000 NA
ATOM     11  H   UNL     1      51.276   3.434  17.220  0.00  0.00    +0.000 HD
BRANCH  10  12
ATOM     12  C   UNL     1      49.290   3.037  17.607  0.00  0.00    +0.000 C 
ATOM     13  C   UNL     1      48.261   2.587  16.568  0.00  0.00    +0.000 C 
ATOM     14  C   UNL     1      47.185   3.645  16.633  0.00  0.00    +0.000 C 
ATOM     15  N   UNL     1      47.065   3.962  18.056  0.00  0.00    +0.000 NA
ATOM     16  C   UNL     1      48.408   3.773  18.640  0.00  0.00    +0.000 C 
ATOM     17  H   UNL     1      46.429   3.291  18.488  0.00  0.00    +0.000 HD
ENDBRANCH  10  12
ENDBRANCH   9  10
ENDBRANCH   8   9
ENDBRANCH   5   8
ENDBRANCH   1   2
BRANCH   1  20
ATOM     18  O   UNL     1      45.463   7.984  11.690  0.00  0.00    +0.000 OA
ATOM     19  C   UNL     1      46.147   6.988  11.480  0.00  0.00    +0.000 C 
ATOM     20  N   UNL     1      47.458   6.897  11.871  0.00  0.00    +0.000 N 
ATOM     21  H   UNL     1      48.026   6.136  11.513  0.00  0.00    +0.000 HD
BRANCH  19  22
ATOM     22  C   UNL     1      45.584   5.798  10.837  0.00  0.00    +0.000 A 
ATOM     23  C   UNL     1      45.838   5.545   9.497  0.00  0.00    +0.000 A 
ATOM     24  S   UNL     1      45.110   4.113   8.924  0.00  0.00    +0.000 S 
ATOM     25  C   UNL     1      44.460   3.766  10.459  0.00  0.00    +0.000 A 
ATOM     26  N   UNL     1      43.733   2.634  10.676  0.00  0.00    +0.000 NA
ATOM     27  C   UNL     1      43.340   2.481  11.896  0.00  0.00    +0.000 A 
ATOM     28  N   UNL     1      43.594   3.362  12.915  0.00  0.00    +0.000 N 
ATOM     29  C   UNL     1      44.254   4.556  12.723  0.00  0.00    +0.000 A 
ATOM     30  O   UNL     1      44.316   5.393  13.620  0.00  0.00    +0.000 OA
ATOM     31  C   UNL     1      44.763   4.748  11.384  0.00  0.00    +0.000 A 
ATOM     32  H   UNL     1      43.222   3.200  13.842  0.00  0.00    +0.000 HD
ENDBRANCH  19  22
ENDBRANCH   1  20
TORSDOF 7
ENDMDL
MODEL 3
REMARK VINA RESULT:    -7.322      1.995      2.939
REMARK INTER + INTRA:         -11.430
REMARK INTER:                 -10.221
REMARK INTRA:                  -1.208
REMARK UNBOUND:                -1.112
REMARK  Name = 
REMARK  7 active torsions:
REMARK  status: ('A' for Active; 'I' for Inactive)
REMARK    1  A    between atoms: C_2  and  C_19
REMARK    2  A    between atoms: N_3  and  C_4
REMARK    3  A    between atoms: C_4  and  C_5
REMARK    4  A    between atoms: C_8  and  C_9
REMARK    5  A    between atoms: C_9  and  C_10
REMARK    6  A    between atoms: C_10  and  N_11
REMARK    7  A    between atoms: N_11  and  C_12
REMARK                            x       y       z     vdW  Elec       q    Type
REMARK                         _______ _______ _______ _____ _____    ______ ____
ROOT
ATOM      1  C   UNL     1      48.264   6.601  14.048  0.00  0.00    +0.000 C 
ENDROOT
BRANCH   1   2
ATOM      2  C   UNL     1      46.930   6.051  13.643  0.00  0.00    +0.000 A 
ATOM      3  C   UNL     1      46.013   6.796  12.899  0.00  0.00    +0.000 A 
ATOM      4  C   UNL     1      44.796   6.229  12.513  0.00  0.00    +0.000 A 
ATOM      5  C   UNL     1      44.515   4.923  12.895  0.00  0.00    +0.000 A 
ATOM      6  N   UNL     1      45.383   4.201  13.650  0.00  0.00    +0.000 NA
ATOM      7  C   UNL     1      46.550   4.771  14.011  0.00  0.00    +0.000 A 
BRANCH   5   8
ATOM      8  C   UNL     1      43.226   4.239  12.463  0.00  0.00    +0.000 C 
BRANCH   8   9
ATOM      9  C   UNL     1      43.533   2.859  11.855  0.00  0.00    +0.000 C 
BRANCH   9  10
ATOM     10  N   UNL     1      44.731   2.773  11.006  0.00  0.00    +0.000 NA
ATOM     11  H   UNL     1      45.286   1.955  11.259  0.00  0.00    +0.000 HD
BRANCH  10  12
ATOM     12  C   UNL     1      44.345   2.690   9.577  0.00  0.00    +0.000 C 
ATOM     13  C   UNL     1      45.233   1.806   8.699  0.00  0.00    +0.000 C 
ATOM     14  C   UNL     1      46.280   2.753   8.161  0.00  0.00    +0.000 C 
ATOM     15  N   UNL     1      45.550   3.990   7.883  0.00  0.00    +0.000 NA
ATOM     16  C   UNL     1      44.458   4.062   8.876  0.00  0.00    +0.000 C 
ATOM     17  H   UNL     1      45.135   3.923   6.954  0.00  0.00    +0.000 HD
ENDBRANCH  10  12
ENDBRANCH   9  10
ENDBRANCH   8   9
ENDBRANCH   5   8
ENDBRANCH   1   2
BRANCH   1  20
ATOM     18  O   UNL     1      50.698   6.813  15.430  0.00  0.00    +0.000 OA
ATOM     19  C   UNL     1      49.652   6.773  16.071  0.00  0.00    +0.000 C 
ATOM     20  N   UNL     1      48.427   6.619  15.476  0.00  0.00    +0.000 N 
ATOM     21  H   UNL     1      47.590   6.778  16.027  0.00  0.00    +0.000 HD
BRANCH  19  22
ATOM     22  C   UNL     1      49.652   6.836  17.535  0.00  0.00    +0.000 A 
ATOM     23  C   UNL     1      50.003   8.012  18.181  0.00  0.00    +0.000 A 
ATOM     24  S   UNL     1      49.937   7.900  19.882  0.00  0.00    +0.000 S 
ATOM     25  C   UNL     1      49.403   6.286  19.809  0.00  0.00    +0.000 A 
ATOM     26  N   UNL     1      49.118   5.587  20.943  0.00  0.00    +0.000 NA
ATOM     27  C   UNL     1      48.683   4.390  20.734  0.00  0.00    +0.000 A 
ATOM     28  N   UNL     1      48.520   3.822  19.497  0.00  0.00    +0.000 N 
ATOM     29  C   UNL     1      48.872   4.464  18.329  0.00  0.00    +0.000 A 
ATOM     30  O   UNL     1      48.870   3.864  17.257  0.00  0.00    +0.000 OA
ATOM     31  C   UNL     1      49.313   5.829  18.507  0.00  0.00    +0.000 A 
ATOM     32  H   UNL     1      48.212   2.863  19.406  0.00  0.00    +0.000 HD
ENDBRANCH  19  22
ENDBRANCH   1  20
TORSDOF 7
ENDMDL
MODEL 4
REMARK VINA RESULT:    -7.144      2.888      8.353
REMARK INTER + INTRA:         -11.180
REMARK INTER:                  -9.666
REMARK INTRA:                  -1.514
REMARK UNBOUND:                -1.112
REMARK  Name = 
REMARK  7 active torsions:
REMARK  status: ('A' for Active; 'I' for Inactive)
REMARK    1  A    between atoms: C_2  and  C_19
REMARK    2  A    between atoms: N_3  and  C_4
REMARK    3  A    between atoms: C_4  and  C_5
REMARK    4  A    between atoms: C_8  and  C_9
REMARK    5  A    between atoms: C_9  and  C_10
REMARK    6  A    between atoms: C_10  and  N_11
REMARK    7  A    between atoms: N_11  and  C_12
REMARK                            x       y       z     vdW  Elec       q    Type
REMARK                         _______ _______ _______ _____ _____    ______ ____
ROOT
ATOM      1  C   UNL     1      47.363   7.710  12.019  0.00  0.00    +0.000 C 
ENDROOT
BRANCH   1   2
ATOM      2  C   UNL     1      48.426   7.567  13.065  0.00  0.00    +0.000 A 
ATOM      3  C   UNL     1      49.649   8.235  12.979  0.00  0.00    +0.000 A 
ATOM      4  C   UNL     1      50.596   8.101  13.996  0.00  0.00    +0.000 A 
ATOM      5  C   UNL     1      50.301   7.285  15.081  0.00  0.00    +0.000 A 
ATOM      6  N   UNL     1      49.130   6.602  15.160  0.00  0.00    +0.000 NA
ATOM      7  C   UNL     1      48.234   6.746  14.164  0.00  0.00    +0.000 A 
BRANCH   5   8
ATOM      8  C   UNL     1      51.276   7.139  16.241  0.00  0.00    +0.000 C 
BRANCH   8   9
ATOM      9  C   UNL     1      50.667   6.250  17.340  0.00  0.00    +0.000 C 
BRANCH   9  10
ATOM     10  N   UNL     1      50.569   4.814  17.037  0.00  0.00    +0.000 NA
ATOM     11  H   UNL     1      51.449   4.346  17.255  0.00  0.00    +0.000 HD
BRANCH  10  12
ATOM     12  C   UNL     1      49.471   4.197  17.819  0.00  0.00    +0.000 C 
ATOM     13  C   UNL     1      48.690   3.089  17.109  0.00  0.00    +0.000 C 
ATOM     14  C   UNL     1      47.547   3.814  16.440  0.00  0.00    +0.000 C 
ATOM     15  N   UNL     1      47.139   4.833  17.408  0.00  0.00    +0.000 NA
ATOM     16  C   UNL     1      48.360   5.220  18.145  0.00  0.00    +0.000 C 
ATOM     17  H   UNL     1      46.485   4.413  18.068  0.00  0.00    +0.000 HD
ENDBRANCH  10  12
ENDBRANCH   9  10
ENDBRANCH   8   9
ENDBRANCH   5   8
ENDBRANCH   1   2
BRANCH   1  20
ATOM     18  O   UNL     1      44.584   7.312  11.982  0.00  0.00    +0.000 OA
ATOM     19  C   UNL     1      45.323   6.368  11.718  0.00  0.00    +0.000 C 
ATOM     20  N   UNL     1      46.689   6.466  11.764  0.00  0.00    +0.000 N 
ATOM     21  H   UNL     1      47.249   5.721  11.361  0.00  0.00    +0.000 HD
BRANCH  19  22
ATOM     22  C   UNL     1      44.783   5.048  11.386  0.00  0.00    +0.000 A 
ATOM     23  C   UNL     1      44.011   4.359  12.308  0.00  0.00    +0.000 A 
ATOM     24  S   UNL     1      43.463   2.845  11.743  0.00  0.00    +0.000 S 
ATOM     25  C   UNL     1      44.211   3.078  10.232  0.00  0.00    +0.000 A 
ATOM     26  N   UNL     1      44.104   2.148   9.242  0.00  0.00    +0.000 NA
ATOM     27  C   UNL     1      44.685   2.478   8.138  0.00  0.00    +0.000 A 
ATOM     28  N   UNL     1      45.377   3.644   7.937  0.00  0.00    +0.000 N 
ATOM     29  C   UNL     1      45.579   4.573   8.934  0.00  0.00    +0.000 A 
ATOM     30  O   UNL     1      46.343   5.521   8.765  0.00  0.00    +0.000 OA
ATOM     31  C   UNL     1      44.900   4.276  10.174  0.00  0.00    +0.000 A 
ATOM     32  H   UNL     1      45.844   3.822   7.057  0.00  0.00    +0.000 HD
ENDBRANCH  19  22
ENDBRANCH   1  20
TORSDOF 7
ENDMDL
MODEL 5
REMARK VINA RESULT:    -6.767      3.184      8.993
REMARK INTER + INTRA:         -10.648
REMARK INTER:                  -9.483
REMARK INTRA:                  -1.165
REMARK UNBOUND:                -1.112
REMARK  Name = 
REMARK  7 active torsions:
REMARK  status: ('A' for Active; 'I' for Inactive)
REMARK    1  A    between atoms: C_2  and  C_19
REMARK    2  A    between atoms: N_3  and  C_4
REMARK    3  A    between atoms: C_4  and  C_5
REMARK    4  A    between atoms: C_8  and  C_9
REMARK    5  A    between atoms: C_9  and  C_10
REMARK    6  A    between atoms: C_10  and  N_11
REMARK    7  A    between atoms: N_11  and  C_12
REMARK                            x       y       z     vdW  Elec       q    Type
REMARK                         _______ _______ _______ _____ _____    ______ ____
ROOT
ATOM      1  C   UNL     1      44.624   3.547  12.051  0.00  0.00    +0.000 C 
ENDROOT
BRANCH   1   2
ATOM      2  C   UNL     1      45.615   4.525  12.607  0.00  0.00    +0.000 A 
ATOM      3  C   UNL     1      45.558   5.889  12.314  0.00  0.00    +0.000 A 
ATOM      4  C   UNL     1      46.480   6.768  12.885  0.00  0.00    +0.000 A 
ATOM      5  C   UNL     1      47.456   6.258  13.732  0.00  0.00    +0.000 A 
ATOM      6  N   UNL     1      47.544   4.929  13.996  0.00  0.00    +0.000 NA
ATOM      7  C   UNL     1      46.643   4.100  13.431  0.00  0.00    +0.000 A 
BRANCH   5   8
ATOM      8  C   UNL     1      48.457   7.176  14.419  0.00  0.00    +0.000 C 
BRANCH   8   9
ATOM      9  C   UNL     1      48.960   6.534  15.724  0.00  0.00    +0.000 C 
BRANCH   9  10
ATOM     10  N   UNL     1      47.937   6.220  16.732  0.00  0.00    +0.000 NA
ATOM     11  H   UNL     1      47.089   5.878  16.281  0.00  0.00    +0.000 HD
BRANCH  10  12
ATOM     12  C   UNL     1      48.443   5.197  17.678  0.00  0.00    +0.000 C 
ATOM     13  C   UNL     1      49.054   3.946  17.040  0.00  0.00    +0.000 C 
ATOM     14  C   UNL     1      47.894   2.986  16.925  0.00  0.00    +0.000 C 
ATOM     15  N   UNL     1      47.129   3.183  18.156  0.00  0.00    +0.000 NA
ATOM     16  C   UNL     1      47.305   4.600  18.535  0.00  0.00    +0.000 C 
ATOM     17  H   UNL     1      47.535   2.602  18.889  0.00  0.00    +0.000 HD
ENDBRANCH  10  12
ENDBRANCH   9  10
ENDBRANCH   8   9
ENDBRANCH   5   8
ENDBRANCH   1   2
BRANCH   1  20
ATOM     18  O   UNL     1      44.152   3.884   9.305  0.00  0.00    +0.000 OA
ATOM     19  C   UNL     1      44.941   3.018   9.669  0.00  0.00    +0.000 C 
ATOM     20  N   UNL     1      45.188   2.755  10.992  0.00  0.00    +0.000 N 
ATOM     21  H   UNL     1      45.977   2.165  11.236  0.00  0.00    +0.000 HD
BRANCH  19  22
ATOM     22  C   UNL     1      45.636   2.165   8.703  0.00  0.00    +0.000 A 
ATOM     23  C   UNL     1      45.528   0.786   8.787  0.00  0.00    +0.000 A 
ATOM     24  S   UNL     1      46.397  -0.042   7.574  0.00  0.00    +0.000 S 
ATOM     25  C   UNL     1      46.919   1.420   6.876  0.00  0.00    +0.000 A 
ATOM     26  N   UNL     1      47.692   1.427   5.755  0.00  0.00    +0.000 NA
ATOM     27  C   UNL     1      47.976   2.606   5.313  0.00  0.00    +0.000 A 
ATOM     28  N   UNL     1      47.571   3.778   5.897  0.00  0.00    +0.000 N 
ATOM     29  C   UNL     1      46.858   3.817   7.075  0.00  0.00    +0.000 A 
ATOM     30  O   UNL     1      46.658   4.882   7.655  0.00  0.00    +0.000 OA
ATOM     31  C   UNL     1      46.467   2.521   7.580  0.00  0.00    +0.000 A 
ATOM     32  H   UNL     1      47.863   4.670   5.520  0.00  0.00    +0.000 HD
ENDBRANCH  19  22
ENDBRANCH   1  20
TORSDOF 7
ENDMDL
MODEL 6
REMARK VINA RESULT:    -6.710      2.783      3.796
REMARK INTER + INTRA:         -10.568
REMARK INTER:                  -8.943
REMARK INTRA:                  -1.625
REMARK UNBOUND:                -1.112
REMARK  Name = 
REMARK  7 active torsions:
REMARK  status: ('A' for Active; 'I' for Inactive)
REMARK    1  A    between atoms: C_2  and  C_19
REMARK    2  A    between atoms: N_3  and  C_4
REMARK    3  A    between atoms: C_4  and  C_5
REMARK    4  A    between atoms: C_8  and  C_9
REMARK    5  A    between atoms: C_9  and  C_10
REMARK    6  A    between atoms: C_10  and  N_11
REMARK    7  A    between atoms: N_11  and  C_12
REMARK                            x       y       z     vdW  Elec       q    Type
REMARK                         _______ _______ _______ _____ _____    ______ ____
ROOT
ATOM      1  C   UNL     1      49.297   7.819  13.298  0.00  0.00    +0.000 C 
ENDROOT
BRANCH   1   2
ATOM      2  C   UNL     1      47.881   7.871  12.811  0.00  0.00    +0.000 A 
ATOM      3  C   UNL     1      47.032   8.939  13.108  0.00  0.00    +0.000 A 
ATOM      4  C   UNL     1      45.730   8.962  12.601  0.00  0.00    +0.000 A 
ATOM      5  C   UNL     1      45.299   7.902  11.814  0.00  0.00    +0.000 A 
ATOM      6  N   UNL     1      46.104   6.841  11.548  0.00  0.00    +0.000 NA
ATOM      7  C   UNL     1      47.355   6.841  12.050  0.00  0.00    +0.000 A 
BRANCH   5   8
ATOM      8  C   UNL     1      43.908   7.897  11.197  0.00  0.00    +0.000 C 
BRANCH   8   9
ATOM      9  C   UNL     1      43.212   6.551  11.463  0.00  0.00    +0.000 C 
BRANCH   9  10
ATOM     10  N   UNL     1      43.416   5.501  10.453  0.00  0.00    +0.000 NA
ATOM     11  H   UNL     1      44.345   5.581  10.042  0.00  0.00    +0.000 HD
BRANCH  10  12
ATOM     12  C   UNL     1      43.258   4.161  11.066  0.00  0.00    +0.000 C 
ATOM     13  C   UNL     1      43.429   4.100  12.586  0.00  0.00    +0.000 C 
ATOM     14  C   UNL     1      44.897   3.803  12.781  0.00  0.00    +0.000 C 
ATOM     15  N   UNL     1      45.224   2.850  11.720  0.00  0.00    +0.000 NA
ATOM     16  C   UNL     1      44.347   3.179  10.578  0.00  0.00    +0.000 C 
ATOM     17  H   UNL     1      44.993   1.910  12.042  0.00  0.00    +0.000 HD
ENDBRANCH  10  12
ENDBRANCH   9  10
ENDBRANCH   8   9
ENDBRANCH   5   8
ENDBRANCH   1   2
BRANCH   1  20
ATOM     18  O   UNL     1      49.059   8.530  16.003  0.00  0.00    +0.000 OA
ATOM     19  C   UNL     1      49.267   7.356  15.714  0.00  0.00    +0.000 C 
ATOM     20  N   UNL     1      49.446   6.935  14.422  0.00  0.00    +0.000 N 
ATOM     21  H   UNL     1      49.429   5.940  14.223  0.00  0.00    +0.000 HD
BRANCH  19  22
ATOM     22  C   UNL     1      49.389   6.327  16.749  0.00  0.00    +0.000 A 
ATOM     23  C   UNL     1      50.279   6.498  17.799  0.00  0.00    +0.000 A 
ATOM     24  S   UNL     1      50.278   5.203  18.910  0.00  0.00    +0.000 S 
ATOM     25  C   UNL     1      49.062   4.388  18.041  0.00  0.00    +0.000 A 
ATOM     26  N   UNL     1      48.563   3.198  18.478  0.00  0.00    +0.000 NA
ATOM     27  C   UNL     1      47.616   2.718  17.743  0.00  0.00    +0.000 A 
ATOM     28  N   UNL     1      47.133   3.309  16.605  0.00  0.00    +0.000 N 
ATOM     29  C   UNL     1      47.664   4.469  16.084  0.00  0.00    +0.000 A 
ATOM     30  O   UNL     1      47.320   4.877  14.978  0.00  0.00    +0.000 OA
ATOM     31  C   UNL     1      48.690   5.076  16.902  0.00  0.00    +0.000 A 
ATOM     32  H   UNL     1      46.416   2.857  16.053  0.00  0.00    +0.000 HD
ENDBRANCH  19  22
ENDBRANCH   1  20
TORSDOF 7
ENDMDL
MODEL 7
REMARK VINA RESULT:    -6.471      2.293      3.181
REMARK INTER + INTRA:         -10.231
REMARK INTER:                  -9.063
REMARK INTRA:                  -1.168
REMARK UNBOUND:                -1.112
REMARK  Name = 
REMARK  7 active torsions:
REMARK  status: ('A' for Active; 'I' for Inactive)
REMARK    1  A    between atoms: C_2  and  C_19
REMARK    2  A    between atoms: N_3  and  C_4
REMARK    3  A    between atoms: C_4  and  C_5
REMARK    4  A    between atoms: C_8  and  C_9
REMARK    5  A    between atoms: C_9  and  C_10
REMARK    6  A    between atoms: C_10  and  N_11
REMARK    7  A    between atoms: N_11  and  C_12
REMARK                            x       y       z     vdW  Elec       q    Type
REMARK                         _______ _______ _______ _____ _____    ______ ____
ROOT
ATOM      1  C   UNL     1      47.826   7.884  13.800  0.00  0.00    +0.000 C 
ENDROOT
BRANCH   1   2
ATOM      2  C   UNL     1      46.631   7.369  13.056  0.00  0.00    +0.000 A 
ATOM      3  C   UNL     1      45.785   8.212  12.334  0.00  0.00    +0.000 A 
ATOM      4  C   UNL     1      44.704   7.682  11.625  0.00  0.00    +0.000 A 
ATOM      5  C   UNL     1      44.484   6.311  11.665  0.00  0.00    +0.000 A 
ATOM      6  N   UNL     1      45.280   5.485  12.393  0.00  0.00    +0.000 NA
ATOM      7  C   UNL     1      46.315   6.021  13.069  0.00  0.00    +0.000 A 
BRANCH   5   8
ATOM      8  C   UNL     1      43.351   5.675  10.874  0.00  0.00    +0.000 C 
BRANCH   8   9
ATOM      9  C   UNL     1      43.865   4.447  10.102  0.00  0.00    +0.000 C 
BRANCH   9  10
ATOM     10  N   UNL     1      45.019   4.668   9.219  0.00  0.00    +0.000 NA
ATOM     11  H   UNL     1      45.889   4.493   9.722  0.00  0.00    +0.000 HD
BRANCH  10  12
ATOM     12  C   UNL     1      44.941   3.776   8.037  0.00  0.00    +0.000 C 
ATOM     13  C   UNL     1      44.595   2.314   8.328  0.00  0.00    +0.000 C 
ATOM     14  C   UNL     1      45.938   1.645   8.503  0.00  0.00    +0.000 C 
ATOM     15  N   UNL     1      46.794   2.265   7.491  0.00  0.00    +0.000 NA
ATOM     16  C   UNL     1      46.308   3.651   7.327  0.00  0.00    +0.000 C 
ATOM     17  H   UNL     1      46.664   1.772   6.608  0.00  0.00    +0.000 HD
ENDBRANCH  10  12
ENDBRANCH   9  10
ENDBRANCH   8   9
ENDBRANCH   5   8
ENDBRANCH   1   2
BRANCH   1  20
ATOM     18  O   UNL     1      50.098   6.796  15.037  0.00  0.00    +0.000 OA
ATOM     19  C   UNL     1      49.059   6.889  15.682  0.00  0.00    +0.000 C 
ATOM     20  N   UNL     1      47.892   7.360  15.137  0.00  0.00    +0.000 N 
ATOM     21  H   UNL     1      47.120   7.590  15.754  0.00  0.00    +0.000 HD
BRANCH  19  22
ATOM     22  C   UNL     1      48.984   6.446  17.076  0.00  0.00    +0.000 A 
ATOM     23  C   UNL     1      49.396   5.169  17.424  0.00  0.00    +0.000 A 
ATOM     24  S   UNL     1      49.246   4.835  19.091  0.00  0.00    +0.000 S 
ATOM     25  C   UNL     1      48.658   6.401  19.406  0.00  0.00    +0.000 A 
ATOM     26  N   UNL     1      48.354   6.796  20.674  0.00  0.00    +0.000 NA
ATOM     27  C   UNL     1      47.960   8.022  20.768  0.00  0.00    +0.000 A 
ATOM     28  N   UNL     1      47.828   8.884  19.710  0.00  0.00    +0.000 N 
ATOM     29  C   UNL     1      48.046   8.502  18.404  0.00  0.00    +0.000 A 
ATOM     30  O   UNL     1      47.757   9.249  17.474  0.00  0.00    +0.000 OA
ATOM     31  C   UNL     1      48.543   7.153  18.252  0.00  0.00    +0.000 A 
ATOM     32  H   UNL     1      47.475   9.822  19.850  0.00  0.00    +0.000 HD
ENDBRANCH  19  22
ENDBRANCH   1  20
TORSDOF 7
ENDMDL
MODEL 8
REMARK VINA RESULT:    -6.444      4.094      9.035
REMARK INTER + INTRA:         -10.193
REMARK INTER:                  -8.569
REMARK INTRA:                  -1.624
REMARK UNBOUND:                -1.112
REMARK  Name = 
REMARK  7 active torsions:
REMARK  status: ('A' for Active; 'I' for Inactive)
REMARK    1  A    between atoms: C_2  and  C_19
REMARK    2  A    between atoms: N_3  and  C_4
REMARK    3  A    between atoms: C_4  and  C_5
REMARK    4  A    between atoms: C_8  and  C_9
REMARK    5  A    between atoms: C_9  and  C_10
REMARK    6  A    between atoms: C_10  and  N_11
REMARK    7  A    between atoms: N_11  and  C_12
REMARK                            x       y       z     vdW  Elec       q    Type
REMARK                         _______ _______ _______ _____ _____    ______ ____
ROOT
ATOM      1  C   UNL     1      47.399   3.517  16.357  0.00  0.00    +0.000 C 
ENDROOT
BRANCH   1   2
ATOM      2  C   UNL     1      47.907   4.158  17.612  0.00  0.00    +0.000 A 
ATOM      3  C   UNL     1      49.178   3.888  18.123  0.00  0.00    +0.000 A 
ATOM      4  C   UNL     1      49.624   4.537  19.276  0.00  0.00    +0.000 A 
ATOM      5  C   UNL     1      48.777   5.440  19.906  0.00  0.00    +0.000 A 
ATOM      6  N   UNL     1      47.525   5.684  19.440  0.00  0.00    +0.000 NA
ATOM      7  C   UNL     1      47.117   5.043  18.326  0.00  0.00    +0.000 A 
BRANCH   5   8
ATOM      8  C   UNL     1      49.228   6.211  21.139  0.00  0.00    +0.000 C 
BRANCH   8   9
ATOM      9  C   UNL     1      49.712   7.616  20.740  0.00  0.00    +0.000 C 
BRANCH   9  10
ATOM     10  N   UNL     1      48.811   8.396  19.879  0.00  0.00    +0.000 NA
ATOM     11  H   UNL     1      48.403   9.170  20.404  0.00  0.00    +0.000 HD
BRANCH  10  12
ATOM     12  C   UNL     1      49.549   8.925  18.708  0.00  0.00    +0.000 C 
ATOM     13  C   UNL     1      48.776   8.942  17.386  0.00  0.00    +0.000 C 
ATOM     14  C   UNL     1      49.106   7.612  16.750  0.00  0.00    +0.000 C 
ATOM     15  N   UNL     1      50.522   7.399  17.054  0.00  0.00    +0.000 NA
ATOM     16  C   UNL     1      50.770   8.045  18.359  0.00  0.00    +0.000 C 
ATOM     17  H   UNL     1      51.082   7.875  16.347  0.00  0.00    +0.000 HD
ENDBRANCH  10  12
ENDBRANCH   9  10
ENDBRANCH   8   9
ENDBRANCH   5   8
ENDBRANCH   1   2
BRANCH   1  20
ATOM     18  O   UNL     1      47.410   3.433  13.551  0.00  0.00    +0.000 OA
ATOM     19  C   UNL     1      46.792   4.330  14.116  0.00  0.00    +0.000 C 
ATOM     20  N   UNL     1      46.779   4.472  15.479  0.00  0.00    +0.000 N 
ATOM     21  H   UNL     1      46.110   5.109  15.900  0.00  0.00    +0.000 HD
BRANCH  19  22
ATOM     22  C   UNL     1      46.064   5.349  13.356  0.00  0.00    +0.000 A 
ATOM     23  C   UNL     1      46.649   6.581  13.107  0.00  0.00    +0.000 A 
ATOM     24  S   UNL     1      45.658   7.635  12.201  0.00  0.00    +0.000 S 
ATOM     25  C   UNL     1      44.429   6.464  12.083  0.00  0.00    +0.000 A 
ATOM     26  N   UNL     1      43.282   6.715  11.392  0.00  0.00    +0.000 NA
ATOM     27  C   UNL     1      42.459   5.721  11.350  0.00  0.00    +0.000 A 
ATOM     28  N   UNL     1      42.669   4.506  11.949  0.00  0.00    +0.000 N 
ATOM     29  C   UNL     1      43.776   4.238  12.725  0.00  0.00    +0.000 A 
ATOM     30  O   UNL     1      43.848   3.202  13.381  0.00  0.00    +0.000 OA
ATOM     31  C   UNL     1      44.755   5.301  12.756  0.00  0.00    +0.000 A 
ATOM     32  H   UNL     1      41.963   3.783  11.911  0.00  0.00    +0.000 HD
ENDBRANCH  19  22
ENDBRANCH   1  20
TORSDOF 7
ENDMDL
MODEL 9
REMARK VINA RESULT:    -6.119      3.905      7.707
REMARK INTER + INTRA:          -9.736
REMARK INTER:                  -7.717
REMARK INTRA:                  -2.019
REMARK UNBOUND:                -1.112
REMARK  Name = 
REMARK  7 active torsions:
REMARK  status: ('A' for Active; 'I' for Inactive)
REMARK    1  A    between atoms: C_2  and  C_19
REMARK    2  A    between atoms: N_3  and  C_4
REMARK    3  A    between atoms: C_4  and  C_5
REMARK    4  A    between atoms: C_8  and  C_9
REMARK    5  A    between atoms: C_9  and  C_10
REMARK    6  A    between atoms: C_10  and  N_11
REMARK    7  A    between atoms: N_11  and  C_12
REMARK                            x       y       z     vdW  Elec       q    Type
REMARK                         _______ _______ _______ _____ _____    ______ ____
ROOT
ATOM      1  C   UNL     1      48.253   9.644  13.893  0.00  0.00    +0.000 C 
ENDROOT
BRANCH   1   2
ATOM      2  C   UNL     1      49.188   8.897  14.796  0.00  0.00    +0.000 A 
ATOM      3  C   UNL     1      50.506   8.617  14.433  0.00  0.00    +0.000 A 
ATOM      4  C   UNL     1      51.353   7.950  15.321  0.00  0.00    +0.000 A 
ATOM      5  C   UNL     1      50.853   7.563  16.558  0.00  0.00    +0.000 A 
ATOM      6  N   UNL     1      49.563   7.798  16.909  0.00  0.00    +0.000 NA
ATOM      7  C   UNL     1      48.765   8.441  16.033  0.00  0.00    +0.000 A 
BRANCH   5   8
ATOM      8  C   UNL     1      51.743   6.875  17.584  0.00  0.00    +0.000 C 
BRANCH   8   9
ATOM      9  C   UNL     1      51.218   5.460  17.881  0.00  0.00    +0.000 C 
BRANCH   9  10
ATOM     10  N   UNL     1      50.270   4.898  16.907  0.00  0.00    +0.000 NA
ATOM     11  H   UNL     1      50.749   4.252  16.280  0.00  0.00    +0.000 HD
BRANCH  10  12
ATOM     12  C   UNL     1      49.172   4.189  17.607  0.00  0.00    +0.000 C 
ATOM     13  C   UNL     1      49.084   2.682  17.352  0.00  0.00    +0.000 C 
ATOM     14  C   UNL     1      48.150   2.562  16.172  0.00  0.00    +0.000 C 
ATOM     15  N   UNL     1      47.122   3.576  16.410  0.00  0.00    +0.000 NA
ATOM     16  C   UNL     1      47.786   4.680  17.134  0.00  0.00    +0.000 C 
ATOM     17  H   UNL     1      46.405   3.178  17.017  0.00  0.00    +0.000 HD
ENDBRANCH  10  12
ENDBRANCH   9  10
ENDBRANCH   8   9
ENDBRANCH   5   8
ENDBRANCH   1   2
BRANCH   1  20
ATOM     18  O   UNL     1      48.166   7.900  11.696  0.00  0.00    +0.000 OA
ATOM     19  C   UNL     1      47.188   7.975  12.434  0.00  0.00    +0.000 C 
ATOM     20  N   UNL     1      47.131   8.838  13.497  0.00  0.00    +0.000 N 
ATOM     21  H   UNL     1      46.386   8.730  14.178  0.00  0.00    +0.000 HD
BRANCH  19  22
ATOM     22  C   UNL     1      45.986   7.174  12.190  0.00  0.00    +0.000 A 
ATOM     23  C   UNL     1      44.891   7.738  11.554  0.00  0.00    +0.000 A 
ATOM     24  S   UNL     1      43.590   6.653  11.349  0.00  0.00    +0.000 S 
ATOM     25  C   UNL     1      44.463   5.384  12.074  0.00  0.00    +0.000 A 
ATOM     26  N   UNL     1      43.926   4.138  12.189  0.00  0.00    +0.000 NA
ATOM     27  C   UNL     1      44.717   3.266  12.720  0.00  0.00    +0.000 A 
ATOM     28  N   UNL     1      45.988   3.530  13.159  0.00  0.00    +0.000 N 
ATOM     29  C   UNL     1      46.539   4.792  13.136  0.00  0.00    +0.000 A 
ATOM     30  O   UNL     1      47.612   5.021  13.689  0.00  0.00    +0.000 OA
ATOM     31  C   UNL     1      45.713   5.793  12.499  0.00  0.00    +0.000 A 
ATOM     32  H   UNL     1      46.541   2.808  13.603  0.00  0.00    +0.000 HD
ENDBRANCH  19  22
ENDBRANCH   1  20
TORSDOF 7
ENDMDL
