MODEL 1
REMARK VINA RESULT:    -7.694      0.000      0.000
REMARK INTER + INTRA:         -12.830
REMARK INTER:                 -11.518
REMARK INTRA:                  -1.312
REMARK UNBOUND:                -1.312
REMARK  Name = 
REMARK  10 active torsions:
REMARK  status: ('A' for Active; 'I' for Inactive)
REMARK    1  A    between atoms: C_1  and  C_2
REMARK    2  A    between atoms: C_2  and  N_3
REMARK    3  A    between atoms: C_2  and  C_19
REMARK    4  A    between atoms: N_3  and  C_4
REMARK    5  A    between atoms: C_4  and  C_5
REMARK    6  A    between atoms: C_8  and  C_9
REMARK    7  A    between atoms: C_9  and  O_10
REMARK    8  A    between atoms: C_9  and  C_11
REMARK    9  A    between atoms: C_11  and  N_12
REMARK   10  A    between atoms: C_19  and  C_21
REMARK                            x       y       z     vdW  Elec       q    Type
REMARK                         _______ _______ _______ _____ _____    ______ ____
ROOT
ATOM      1  N   UNL     1      46.958   6.615  11.792  0.00  0.00    +0.000 NA
ATOM      2  H   UNL     1      47.340   6.492  10.855  0.00  0.00    +0.000 HD
ENDROOT
BRANCH   1   4
ATOM      3  C   UNL     1      45.806   8.491  12.969  0.00  0.00    +0.000 C 
ATOM      4  C   UNL     1      45.859   7.605  11.722  0.00  0.00    +0.000 C 
BRANCH   4   5
ATOM      5  C   UNL     1      44.489   6.957  11.407  0.00  0.00    +0.000 C 
ATOM      6  O   UNL     1      43.529   7.658  11.079  0.00  0.00    +0.000 OA
BRANCH   5   7
ATOM      7  C   UNL     1      44.321   5.497  11.529  0.00  0.00    +0.000 A 
ATOM      8  C   UNL     1      43.793   4.862  12.641  0.00  0.00    +0.000 A 
ATOM      9  S   UNL     1      43.521   3.191  12.402  0.00  0.00    +0.000 S 
ATOM     10  C   UNL     1      44.139   3.261  10.818  0.00  0.00    +0.000 A 
ATOM     11  N   UNL     1      44.147   2.165  10.015  0.00  0.00    +0.000 NA
ATOM     12  C   UNL     1      44.632   2.380   8.836  0.00  0.00    +0.000 A 
ATOM     13  N   UNL     1      45.142   3.578   8.402  0.00  0.00    +0.000 N 
ATOM     14  C   UNL     1      45.288   4.668   9.232  0.00  0.00    +0.000 A 
ATOM     15  O   UNL     1      46.018   5.604   8.929  0.00  0.00    +0.000 OA
ATOM     16  C   UNL     1      44.611   4.523  10.508  0.00  0.00    +0.000 A 
ATOM     17  H   UNL     1      45.604   3.644   7.509  0.00  0.00    +0.000 HD
ENDBRANCH   5   7
ENDBRANCH   4   5
ENDBRANCH   1   4
BRANCH   1  18
ATOM     18  C   UNL     1      48.052   6.969  12.698  0.00  0.00    +0.000 C 
BRANCH  18  19
ATOM     19  C   UNL     1      47.966   6.183  13.986  0.00  0.00    +0.000 A 
ATOM     20  C   UNL     1      48.620   6.624  15.147  0.00  0.00    +0.000 A 
ATOM     21  C   UNL     1      48.521   5.906  16.341  0.00  0.00    +0.000 A 
ATOM     22  C   UNL     1      47.751   4.739  16.410  0.00  0.00    +0.000 A 
ATOM     23  C   UNL     1      47.091   4.300  15.249  0.00  0.00    +0.000 A 
ATOM     24  C   UNL     1      47.203   5.011  14.050  0.00  0.00    +0.000 A 
BRANCH  22  25
ATOM     25  C   UNL     1      47.619   3.995  17.720  0.00  0.00    +0.000 C 
BRANCH  25  26
ATOM     26  O   UNL     1      46.531   3.079  17.579  0.00  0.00    +0.000 OA
ATOM     27  H   UNL     1      46.910   2.186  17.579  0.00  0.00    +0.000 HD
ENDBRANCH  25  26
BRANCH  25  28
ATOM     28  C   UNL     1      48.946   3.293  18.135  0.00  0.00    +0.000 C 
BRANCH  28  29
ATOM     29  N   UNL     1      49.984   3.204  17.079  0.00  0.00    +0.000 NA
ATOM     30  C   UNL     1      50.300   1.819  16.689  0.00  0.00    +0.000 C 
ATOM     31  C   UNL     1      51.324   1.352  17.703  0.00  0.00    +0.000 C 
ATOM     32  C   UNL     1      52.189   2.583  17.884  0.00  0.00    +0.000 C 
ATOM     33  C   UNL     1      51.266   3.760  17.569  0.00  0.00    +0.000 C 
ENDBRANCH  28  29
ENDBRANCH  25  28
ENDBRANCH  22  25
ENDBRANCH  18  19
ENDBRANCH   1  18
TORSDOF 9
ENDMDL
MODEL 2
REMARK VINA RESULT:    -7.576      2.709      8.712
REMARK INTER + INTRA:         -12.653
REMARK INTER:                 -11.857
REMARK INTRA:                  -0.796
REMARK UNBOUND:                -1.312
REMARK  Name = 
REMARK  10 active torsions:
REMARK  status: ('A' for Active; 'I' for Inactive)
REMARK    1  A    between atoms: C_1  and  C_2
REMARK    2  A    between atoms: C_2  and  N_3
REMARK    3  A    between atoms: C_2  and  C_19
REMARK    4  A    between atoms: N_3  and  C_4
REMARK    5  A    between atoms: C_4  and  C_5
REMARK    6  A    between atoms: C_8  and  C_9
REMARK    7  A    between atoms: C_9  and  O_10
REMARK    8  A    between atoms: C_9  and  C_11
REMARK    9  A    between atoms: C_11  and  N_12
REMARK   10  A    between atoms: C_19  and  C_21
REMARK                            x       y       z     vdW  Elec       q    Type
REMARK                         _______ _______ _______ _____ _____    ______ ____
ROOT
ATOM      1  N   UNL     1      48.610   5.182  15.795  0.00  0.00    +0.000 NA
ATOM      2  H   UNL     1      48.069   4.392  15.445  0.00  0.00    +0.000 HD
ENDROOT
BRANCH   1   4
ATOM      3  C   UNL     1      48.621   6.796  17.699  0.00  0.00    +0.000 C 
ATOM      4  C   UNL     1      48.276   5.382  17.223  0.00  0.00    +0.000 C 
BRANCH   4   5
ATOM      5  C   UNL     1      48.884   4.293  18.139  0.00  0.00    +0.000 C 
ATOM      6  O   UNL     1      48.152   3.577  18.826  0.00  0.00    +0.000 OA
BRANCH   5   7
ATOM      7  C   UNL     1      50.348   4.129  18.212  0.00  0.00    +0.000 A 
ATOM      8  C   UNL     1      51.209   5.053  18.780  0.00  0.00    +0.000 A 
ATOM      9  S   UNL     1      52.817   4.488  18.915  0.00  0.00    +0.000 S 
ATOM     10  C   UNL     1      52.416   3.006  18.181  0.00  0.00    +0.000 A 
ATOM     11  N   UNL     1      53.338   2.019  18.034  0.00  0.00    +0.000 NA
ATOM     12  C   UNL     1      52.879   0.948  17.474  0.00  0.00    +0.000 A 
ATOM     13  N   UNL     1      51.595   0.789  17.017  0.00  0.00    +0.000 N 
ATOM     14  C   UNL     1      50.675   1.815  17.013  0.00  0.00    +0.000 A 
ATOM     15  O   UNL     1      49.660   1.756  16.329  0.00  0.00    +0.000 OA
ATOM     16  C   UNL     1      51.095   2.976  17.776  0.00  0.00    +0.000 A 
ATOM     17  H   UNL     1      51.336  -0.032  16.492  0.00  0.00    +0.000 HD
ENDBRANCH   5   7
ENDBRANCH   4   5
ENDBRANCH   1   4
BRANCH   1  18
ATOM     18  C   UNL     1      48.356   6.338  14.932  0.00  0.00    +0.000 C 
BRANCH  18  19
ATOM     19  C   UNL     1      47.446   5.968  13.784  0.00  0.00    +0.000 A 
ATOM     20  C   UNL     1      47.494   6.670  12.569  0.00  0.00    +0.000 A 
ATOM     21  C   UNL     1      46.666   6.311  11.502  0.00  0.00    +0.000 A 
ATOM     22  C   UNL     1      45.784   5.231  11.616  0.00  0.00    +0.000 A 
ATOM     23  C   UNL     1      45.739   4.524  12.830  0.00  0.00    +0.000 A 
ATOM     24  C   UNL     1      46.558   4.893  13.902  0.00  0.00    +0.000 A 
BRANCH  22  25
ATOM     25  C   UNL     1      44.924   4.828  10.438  0.00  0.00    +0.000 C 
BRANCH  25  26
ATOM     26  O   UNL     1      43.746   5.637  10.477  0.00  0.00    +0.000 OA
ATOM     27  H   UNL     1      42.988   5.032  10.506  0.00  0.00    +0.000 HD
ENDBRANCH  25  26
BRANCH  25  28
ATOM     28  C   UNL     1      45.687   4.942   9.085  0.00  0.00    +0.000 C 
BRANCH  28  29
ATOM     29  N   UNL     1      45.198   4.063   7.995  0.00  0.00    +0.000 NA
ATOM     30  C   UNL     1      44.583   2.818   8.484  0.00  0.00    +0.000 C 
ATOM     31  C   UNL     1      45.742   1.867   8.700  0.00  0.00    +0.000 C 
ATOM     32  C   UNL     1      46.634   2.165   7.512  0.00  0.00    +0.000 C 
ATOM     33  C   UNL     1      46.328   3.617   7.147  0.00  0.00    +0.000 C 
ENDBRANCH  28  29
ENDBRANCH  25  28
ENDBRANCH  22  25
ENDBRANCH  18  19
ENDBRANCH   1  18
TORSDOF 9
ENDMDL
MODEL 3
REMARK VINA RESULT:    -7.139      2.776      8.437
REMARK INTER + INTRA:         -11.999
REMARK INTER:                 -10.808
REMARK INTRA:                  -1.191
REMARK UNBOUND:                -1.312
REMARK  Name = 
REMARK  10 active torsions:
REMARK  status: ('A' for Active; 'I' for Inactive)
REMARK    1  A    between atoms: C_1  and  C_2
REMARK    2  A    between atoms: C_2  and  N_3
REMARK    3  A    between atoms: C_2  and  C_19
REMARK    4  A    between atoms: N_3  and  C_4
REMARK    5  A    between atoms: C_4  and  C_5
REMARK    6  A    between atoms: C_8  and  C_9
REMARK    7  A    between atoms: C_9  and  O_10
REMARK    8  A    between atoms: C_9  and  C_11
REMARK    9  A    between atoms: C_11  and  N_12
REMARK   10  A    between atoms: C_19  and  C_21
REMARK                            x       y       z     vdW  Elec       q    Type
REMARK                         _______ _______ _______ _____ _____    ______ ____
ROOT
ATOM      1  N   UNL     1      49.573   6.126  15.683  0.00  0.00    +0.000 NA
ATOM      2  H   UNL     1      49.396   5.335  15.065  0.00  0.00    +0.000 HD
ENDROOT
BRANCH   1   4
ATOM      3  C   UNL     1      48.609   7.309  17.659  0.00  0.00    +0.000 C 
ATOM      4  C   UNL     1      48.691   6.002  16.866  0.00  0.00    +0.000 C 
BRANCH   4   5
ATOM      5  C   UNL     1      49.060   4.796  17.764  0.00  0.00    +0.000 C 
ATOM      6  O   UNL     1      48.176   4.144  18.325  0.00  0.00    +0.000 OA
BRANCH   5   7
ATOM      7  C   UNL     1      50.476   4.442  17.973  0.00  0.00    +0.000 A 
ATOM      8  C   UNL     1      51.419   5.291  18.530  0.00  0.00    +0.000 A 
ATOM      9  S   UNL     1      52.916   4.528  18.845  0.00  0.00    +0.000 S 
ATOM     10  C   UNL     1      52.359   3.051  18.210  0.00  0.00    +0.000 A 
ATOM     11  N   UNL     1      53.139   1.938  18.224  0.00  0.00    +0.000 NA
ATOM     12  C   UNL     1      52.571   0.890  17.721  0.00  0.00    +0.000 A 
ATOM     13  N   UNL     1      51.313   0.865  17.175  0.00  0.00    +0.000 N 
ATOM     14  C   UNL     1      50.552   2.001  17.007  0.00  0.00    +0.000 A 
ATOM     15  O   UNL     1      49.590   2.015  16.248  0.00  0.00    +0.000 OA
ATOM     16  C   UNL     1      51.079   3.162  17.700  0.00  0.00    +0.000 A 
ATOM     17  H   UNL     1      50.977   0.040  16.702  0.00  0.00    +0.000 HD
ENDBRANCH   5   7
ENDBRANCH   4   5
ENDBRANCH   1   4
BRANCH   1  18
ATOM     18  C   UNL     1      49.407   7.362  14.916  0.00  0.00    +0.000 C 
BRANCH  18  19
ATOM     19  C   UNL     1      48.183   7.293  14.033  0.00  0.00    +0.000 A 
ATOM     20  C   UNL     1      47.847   6.111  13.354  0.00  0.00    +0.000 A 
ATOM     21  C   UNL     1      46.702   6.044  12.556  0.00  0.00    +0.000 A 
ATOM     22  C   UNL     1      45.855   7.151  12.431  0.00  0.00    +0.000 A 
ATOM     23  C   UNL     1      46.187   8.333  13.114  0.00  0.00    +0.000 A 
ATOM     24  C   UNL     1      47.341   8.404  13.901  0.00  0.00    +0.000 A 
BRANCH  22  25
ATOM     25  C   UNL     1      44.597   7.051  11.596  0.00  0.00    +0.000 C 
BRANCH  25  26
ATOM     26  O   UNL     1      44.499   8.254  10.831  0.00  0.00    +0.000 OA
ATOM     27  H   UNL     1      45.405   8.562  10.668  0.00  0.00    +0.000 HD
ENDBRANCH  25  26
BRANCH  25  28
ATOM     28  C   UNL     1      44.579   5.772  10.709  0.00  0.00    +0.000 C 
BRANCH  28  29
ATOM     29  N   UNL     1      43.360   4.933  10.814  0.00  0.00    +0.000 NA
ATOM     30  C   UNL     1      42.637   5.116  12.084  0.00  0.00    +0.000 C 
ATOM     31  C   UNL     1      43.330   4.192  13.065  0.00  0.00    +0.000 C 
ATOM     32  C   UNL     1      43.609   2.968  12.219  0.00  0.00    +0.000 C 
ATOM     33  C   UNL     1      43.720   3.496  10.789  0.00  0.00    +0.000 C 
ENDBRANCH  28  29
ENDBRANCH  25  28
ENDBRANCH  22  25
ENDBRANCH  18  19
ENDBRANCH   1  18
TORSDOF 9
ENDMDL
MODEL 4
REMARK VINA RESULT:    -7.052      1.517      2.285
REMARK INTER + INTRA:         -11.869
REMARK INTER:                 -10.321
REMARK INTRA:                  -1.548
REMARK UNBOUND:                -1.312
REMARK  Name = 
REMARK  10 active torsions:
REMARK  status: ('A' for Active; 'I' for Inactive)
REMARK    1  A    between atoms: C_1  and  C_2
REMARK    2  A    between atoms: C_2  and  N_3
REMARK    3  A    between atoms: C_2  and  C_19
REMARK    4  A    between atoms: N_3  and  C_4
REMARK    5  A    between atoms: C_4  and  C_5
REMARK    6  A    between atoms: C_8  and  C_9
REMARK    7  A    between atoms: C_9  and  O_10
REMARK    8  A    between atoms: C_9  and  C_11
REMARK    9  A    between atoms: C_11  and  N_12
REMARK   10  A    between atoms: C_19  and  C_21
REMARK                            x       y       z     vdW  Elec       q    Type
REMARK                         _______ _______ _______ _____ _____    ______ ____
ROOT
ATOM      1  N   UNL     1      47.322   6.596  11.906  0.00  0.00    +0.000 NA
ATOM      2  H   UNL     1      47.728   6.442  10.984  0.00  0.00    +0.000 HD
ENDROOT
BRANCH   1   4
ATOM      3  C   UNL     1      46.308   8.569  13.052  0.00  0.00    +0.000 C 
ATOM      4  C   UNL     1      46.325   7.684  11.802  0.00  0.00    +0.000 C 
BRANCH   4   5
ATOM      5  C   UNL     1      44.912   7.168  11.433  0.00  0.00    +0.000 C 
ATOM      6  O   UNL     1      44.048   7.951  11.033  0.00  0.00    +0.000 OA
BRANCH   5   7
ATOM      7  C   UNL     1      44.589   5.738  11.589  0.00  0.00    +0.000 A 
ATOM      8  C   UNL     1      44.023   5.185  12.727  0.00  0.00    +0.000 A 
ATOM      9  S   UNL     1      43.564   3.550  12.529  0.00  0.00    +0.000 S 
ATOM     10  C   UNL     1      44.145   3.523  10.930  0.00  0.00    +0.000 A 
ATOM     11  N   UNL     1      44.013   2.418  10.150  0.00  0.00    +0.000 NA
ATOM     12  C   UNL     1      44.488   2.557   8.955  0.00  0.00    +0.000 A 
ATOM     13  N   UNL     1      45.114   3.684   8.485  0.00  0.00    +0.000 N 
ATOM     14  C   UNL     1      45.400   4.766   9.288  0.00  0.00    +0.000 A 
ATOM     15  O   UNL     1      46.220   5.610   8.949  0.00  0.00    +0.000 OA
ATOM     16  C   UNL     1      44.744   4.719  10.582  0.00  0.00    +0.000 A 
ATOM     17  H   UNL     1      45.558   3.682   7.579  0.00  0.00    +0.000 HD
ENDBRANCH   5   7
ENDBRANCH   4   5
ENDBRANCH   1   4
BRANCH   1  18
ATOM     18  C   UNL     1      48.409   6.843  12.857  0.00  0.00    +0.000 C 
BRANCH  18  19
ATOM     19  C   UNL     1      48.132   6.175  14.183  0.00  0.00    +0.000 A 
ATOM     20  C   UNL     1      47.294   5.051  14.266  0.00  0.00    +0.000 A 
ATOM     21  C   UNL     1      47.057   4.423  15.491  0.00  0.00    +0.000 A 
ATOM     22  C   UNL     1      47.666   4.891  16.661  0.00  0.00    +0.000 A 
ATOM     23  C   UNL     1      48.509   6.012  16.579  0.00  0.00    +0.000 A 
ATOM     24  C   UNL     1      48.734   6.649  15.355  0.00  0.00    +0.000 A 
BRANCH  22  25
ATOM     25  C   UNL     1      47.433   4.176  17.974  0.00  0.00    +0.000 C 
BRANCH  25  26
ATOM     26  O   UNL     1      46.807   2.927  17.672  0.00  0.00    +0.000 OA
ATOM     27  H   UNL     1      45.896   3.125  17.401  0.00  0.00    +0.000 HD
ENDBRANCH  25  26
BRANCH  25  28
ATOM     28  C   UNL     1      48.747   4.006  18.793  0.00  0.00    +0.000 C 
BRANCH  28  29
ATOM     29  N   UNL     1      48.694   4.479  20.198  0.00  0.00    +0.000 NA
ATOM     30  C   UNL     1      47.830   5.656  20.383  0.00  0.00    +0.000 C 
ATOM     31  C   UNL     1      48.708   6.843  20.041  0.00  0.00    +0.000 C 
ATOM     32  C   UNL     1      50.039   6.450  20.648  0.00  0.00    +0.000 C 
ATOM     33  C   UNL     1      50.035   4.922  20.643  0.00  0.00    +0.000 C 
ENDBRANCH  28  29
ENDBRANCH  25  28
ENDBRANCH  22  25
ENDBRANCH  18  19
ENDBRANCH   1  18
TORSDOF 9
ENDMDL
MODEL 5
REMARK VINA RESULT:    -6.916      2.365      7.970
REMARK INTER + INTRA:         -11.665
REMARK INTER:                 -10.707
REMARK INTRA:                  -0.959
REMARK UNBOUND:                -1.312
REMARK  Name = 
REMARK  10 active torsions:
REMARK  status: ('A' for Active; 'I' for Inactive)
REMARK    1  A    between atoms: C_1  and  C_2
REMARK    2  A    between atoms: C_2  and  N_3
REMARK    3  A    between atoms: C_2  and  C_19
REMARK    4  A    between atoms: N_3  and  C_4
REMARK    5  A    between atoms: C_4  and  C_5
REMARK    6  A    between atoms: C_8  and  C_9
REMARK    7  A    between atoms: C_9  and  O_10
REMARK    8  A    between atoms: C_9  and  C_11
REMARK    9  A    between atoms: C_11  and  N_12
REMARK   10  A    between atoms: C_19  and  C_21
REMARK                            x       y       z     vdW  Elec       q    Type
REMARK                         _______ _______ _______ _____ _____    ______ ____
ROOT
ATOM      1  N   UNL     1      49.662   6.619  14.788  0.00  0.00    +0.000 NA
ATOM      2  H   UNL     1      49.046   5.835  14.998  0.00  0.00    +0.000 HD
ENDROOT
BRANCH   1   4
ATOM      3  C   UNL     1      51.339   7.787  16.221  0.00  0.00    +0.000 C 
ATOM      4  C   UNL     1      49.871   7.395  16.031  0.00  0.00    +0.000 C 
BRANCH   4   5
ATOM      5  C   UNL     1      49.288   6.693  17.281  0.00  0.00    +0.000 C 
ATOM      6  O   UNL     1      49.063   7.336  18.309  0.00  0.00    +0.000 OA
BRANCH   5   7
ATOM      7  C   UNL     1      49.026   5.242  17.253  0.00  0.00    +0.000 A 
ATOM      8  C   UNL     1      47.793   4.677  16.969  0.00  0.00    +0.000 A 
ATOM      9  S   UNL     1      47.851   2.977  16.795  0.00  0.00    +0.000 S 
ATOM     10  C   UNL     1      49.518   2.944  17.132  0.00  0.00    +0.000 A 
ATOM     11  N   UNL     1      50.223   1.783  17.094  0.00  0.00    +0.000 NA
ATOM     12  C   UNL     1      51.481   1.921  17.357  0.00  0.00    +0.000 A 
ATOM     13  N   UNL     1      52.088   3.106  17.691  0.00  0.00    +0.000 N 
ATOM     14  C   UNL     1      51.383   4.273  17.886  0.00  0.00    +0.000 A 
ATOM     15  O   UNL     1      51.880   5.224  18.479  0.00  0.00    +0.000 OA
ATOM     16  C   UNL     1      50.003   4.200  17.445  0.00  0.00    +0.000 A 
ATOM     17  H   UNL     1      53.050   3.121  17.991  0.00  0.00    +0.000 HD
ENDBRANCH   5   7
ENDBRANCH   4   5
ENDBRANCH   1   4
BRANCH   1  18
ATOM     18  C   UNL     1      49.085   7.377  13.675  0.00  0.00    +0.000 C 
BRANCH  18  19
ATOM     19  C   UNL     1      47.875   6.673  13.109  0.00  0.00    +0.000 A 
ATOM     20  C   UNL     1      47.332   7.051  11.870  0.00  0.00    +0.000 A 
ATOM     21  C   UNL     1      46.225   6.384  11.340  0.00  0.00    +0.000 A 
ATOM     22  C   UNL     1      45.645   5.310  12.024  0.00  0.00    +0.000 A 
ATOM     23  C   UNL     1      46.191   4.926  13.261  0.00  0.00    +0.000 A 
ATOM     24  C   UNL     1      47.289   5.605  13.799  0.00  0.00    +0.000 A 
BRANCH  22  25
ATOM     25  C   UNL     1      44.473   4.570  11.418  0.00  0.00    +0.000 C 
BRANCH  25  26
ATOM     26  O   UNL     1      43.812   5.475  10.531  0.00  0.00    +0.000 OA
ATOM     27  H   UNL     1      42.959   5.074  10.301  0.00  0.00    +0.000 HD
ENDBRANCH  25  26
BRANCH  25  28
ATOM     28  C   UNL     1      44.910   3.251  10.714  0.00  0.00    +0.000 C 
BRANCH  28  29
ATOM     29  N   UNL     1      44.475   3.100   9.304  0.00  0.00    +0.000 NA
ATOM     30  C   UNL     1      44.596   1.720   8.802  0.00  0.00    +0.000 C 
ATOM     31  C   UNL     1      46.036   1.595   8.348  0.00  0.00    +0.000 C 
ATOM     32  C   UNL     1      46.292   2.941   7.701  0.00  0.00    +0.000 C 
ATOM     33  C   UNL     1      45.339   3.903   8.410  0.00  0.00    +0.000 C 
ENDBRANCH  28  29
ENDBRANCH  25  28
ENDBRANCH  22  25
ENDBRANCH  18  19
ENDBRANCH   1  18
TORSDOF 9
ENDMDL
MODEL 6
REMARK VINA RESULT:    -6.645      3.117      7.930
REMARK INTER + INTRA:         -11.259
REMARK INTER:                 -10.136
REMARK INTRA:                  -1.123
REMARK UNBOUND:                -1.312
REMARK  Name = 
REMARK  10 active torsions:
REMARK  status: ('A' for Active; 'I' for Inactive)
REMARK    1  A    between atoms: C_1  and  C_2
REMARK    2  A    between atoms: C_2  and  N_3
REMARK    3  A    between atoms: C_2  and  C_19
REMARK    4  A    between atoms: N_3  and  C_4
REMARK    5  A    between atoms: C_4  and  C_5
REMARK    6  A    between atoms: C_8  and  C_9
REMARK    7  A    between atoms: C_9  and  O_10
REMARK    8  A    between atoms: C_9  and  C_11
REMARK    9  A    between atoms: C_11  and  N_12
REMARK   10  A    between atoms: C_19  and  C_21
REMARK                            x       y       z     vdW  Elec       q    Type
REMARK                         _______ _______ _______ _____ _____    ______ ____
ROOT
ATOM      1  N   UNL     1      47.133   8.727  14.546  0.00  0.00    +0.000 NA
ATOM      2  H   UNL     1      46.639   9.428  15.097  0.00  0.00    +0.000 HD
ENDROOT
BRANCH   1   4
ATOM      3  C   UNL     1      49.145   9.654  13.393  0.00  0.00    +0.000 C 
ATOM      4  C   UNL     1      48.586   8.988  14.654  0.00  0.00    +0.000 C 
BRANCH   4   5
ATOM      5  C   UNL     1      49.393   7.728  15.054  0.00  0.00    +0.000 C 
ATOM      6  O   UNL     1      49.766   6.928  14.193  0.00  0.00    +0.000 OA
BRANCH   5   7
ATOM      7  C   UNL     1      49.692   7.469  16.474  0.00  0.00    +0.000 A 
ATOM      8  C   UNL     1      50.556   8.234  17.242  0.00  0.00    +0.000 A 
ATOM      9  S   UNL     1      50.531   7.824  18.901  0.00  0.00    +0.000 S 
ATOM     10  C   UNL     1      49.393   6.587  18.635  0.00  0.00    +0.000 A 
ATOM     11  N   UNL     1      48.889   5.858  19.666  0.00  0.00    +0.000 NA
ATOM     12  C   UNL     1      48.024   4.967  19.307  0.00  0.00    +0.000 A 
ATOM     13  N   UNL     1      47.647   4.714  18.012  0.00  0.00    +0.000 N 
ATOM     14  C   UNL     1      48.244   5.326  16.931  0.00  0.00    +0.000 A 
ATOM     15  O   UNL     1      48.126   4.873  15.799  0.00  0.00    +0.000 OA
ATOM     16  C   UNL     1      49.097   6.443  17.293  0.00  0.00    +0.000 A 
ATOM     17  H   UNL     1      47.051   3.931  17.796  0.00  0.00    +0.000 HD
ENDBRANCH   5   7
ENDBRANCH   4   5
ENDBRANCH   1   4
BRANCH   1  18
ATOM     18  C   UNL     1      46.602   8.749  13.181  0.00  0.00    +0.000 C 
BRANCH  18  19
ATOM     19  C   UNL     1      45.943   7.434  12.834  0.00  0.00    +0.000 A 
ATOM     20  C   UNL     1      44.807   7.388  12.012  0.00  0.00    +0.000 A 
ATOM     21  C   UNL     1      44.214   6.168  11.677  0.00  0.00    +0.000 A 
ATOM     22  C   UNL     1      44.753   4.963  12.139  0.00  0.00    +0.000 A 
ATOM     23  C   UNL     1      45.894   5.006  12.958  0.00  0.00    +0.000 A 
ATOM     24  C   UNL     1      46.479   6.229  13.305  0.00  0.00    +0.000 A 
BRANCH  22  25
ATOM     25  C   UNL     1      44.125   3.648  11.733  0.00  0.00    +0.000 C 
BRANCH  25  26
ATOM     26  O   UNL     1      42.823   3.939  11.222  0.00  0.00    +0.000 OA
ATOM     27  H   UNL     1      42.266   4.175  11.981  0.00  0.00    +0.000 HD
ENDBRANCH  25  26
BRANCH  25  28
ATOM     28  C   UNL     1      45.007   2.862  10.718  0.00  0.00    +0.000 C 
BRANCH  28  29
ATOM     29  N   UNL     1      44.444   2.717   9.354  0.00  0.00    +0.000 NA
ATOM     30  C   UNL     1      44.921   1.514   8.652  0.00  0.00    +0.000 C 
ATOM     31  C   UNL     1      46.246   1.920   8.037  0.00  0.00    +0.000 C 
ATOM     32  C   UNL     1      45.967   3.332   7.565  0.00  0.00    +0.000 C 
ATOM     33  C   UNL     1      44.871   3.848   8.498  0.00  0.00    +0.000 C 
ENDBRANCH  28  29
ENDBRANCH  25  28
ENDBRANCH  22  25
ENDBRANCH  18  19
ENDBRANCH   1  18
TORSDOF 9
ENDMDL
MODEL 7
REMARK VINA RESULT:    -6.471      3.262      8.296
REMARK INTER + INTRA:         -10.999
REMARK INTER:                  -9.812
REMARK INTRA:                  -1.186
REMARK UNBOUND:                -1.312
REMARK  Name = 
REMARK  10 active torsions:
REMARK  status: ('A' for Active; 'I' for Inactive)
REMARK    1  A    between atoms: C_1  and  C_2
REMARK    2  A    between atoms: C_2  and  N_3
REMARK    3  A    between atoms: C_2  and  C_19
REMARK    4  A    between atoms: N_3  and  C_4
REMARK    5  A    between atoms: C_4  and  C_5
REMARK    6  A    between atoms: C_8  and  C_9
REMARK    7  A    between atoms: C_9  and  O_10
REMARK    8  A    between atoms: C_9  and  C_11
REMARK    9  A    between atoms: C_11  and  N_12
REMARK   10  A    between atoms: C_19  and  C_21
REMARK                            x       y       z     vdW  Elec       q    Type
REMARK                         _______ _______ _______ _____ _____    ______ ____
ROOT
ATOM      1  N   UNL     1      49.967   7.009  14.595  0.00  0.00    +0.000 NA
ATOM      2  H   UNL     1      49.722   6.096  14.977  0.00  0.00    +0.000 HD
ENDROOT
BRANCH   1   4
ATOM      3  C   UNL     1      52.250   8.017  14.661  0.00  0.00    +0.000 C 
ATOM      4  C   UNL     1      51.006   7.614  15.458  0.00  0.00    +0.000 C 
BRANCH   4   5
ATOM      5  C   UNL     1      51.357   6.732  16.680  0.00  0.00    +0.000 C 
ATOM      6  O   UNL     1      52.292   5.929  16.622  0.00  0.00    +0.000 OA
BRANCH   5   7
ATOM      7  C   UNL     1      50.552   6.831  17.912  0.00  0.00    +0.000 A 
ATOM      8  C   UNL     1      50.897   7.604  19.009  0.00  0.00    +0.000 A 
ATOM      9  S   UNL     1      49.664   7.689  20.191  0.00  0.00    +0.000 S 
ATOM     10  C   UNL     1      48.651   6.663  19.288  0.00  0.00    +0.000 A 
ATOM     11  N   UNL     1      47.395   6.362  19.711  0.00  0.00    +0.000 NA
ATOM     12  C   UNL     1      46.742   5.584  18.910  0.00  0.00    +0.000 A 
ATOM     13  N   UNL     1      47.244   5.053  17.748  0.00  0.00    +0.000 N 
ATOM     14  C   UNL     1      48.556   5.214  17.363  0.00  0.00    +0.000 A 
ATOM     15  O   UNL     1      49.063   4.491  16.514  0.00  0.00    +0.000 OA
ATOM     16  C   UNL     1      49.274   6.207  18.142  0.00  0.00    +0.000 A 
ATOM     17  H   UNL     1      46.717   4.367  17.231  0.00  0.00    +0.000 HD
ENDBRANCH   5   7
ENDBRANCH   4   5
ENDBRANCH   1   4
BRANCH   1  18
ATOM     18  C   UNL     1      48.741   7.799  14.458  0.00  0.00    +0.000 C 
BRANCH  18  19
ATOM     19  C   UNL     1      47.693   7.044  13.673  0.00  0.00    +0.000 A 
ATOM     20  C   UNL     1      47.422   5.693  13.942  0.00  0.00    +0.000 A 
ATOM     21  C   UNL     1      46.438   5.005  13.228  0.00  0.00    +0.000 A 
ATOM     22  C   UNL     1      45.688   5.653  12.240  0.00  0.00    +0.000 A 
ATOM     23  C   UNL     1      45.955   7.007  11.973  0.00  0.00    +0.000 A 
ATOM     24  C   UNL     1      46.951   7.692  12.678  0.00  0.00    +0.000 A 
BRANCH  22  25
ATOM     25  C   UNL     1      44.598   4.906  11.505  0.00  0.00    +0.000 C 
BRANCH  25  26
ATOM     26  O   UNL     1      43.946   5.845  10.646  0.00  0.00    +0.000 OA
ATOM     27  H   UNL     1      43.029   5.544  10.542  0.00  0.00    +0.000 HD
ENDBRANCH  25  26
BRANCH  25  28
ATOM     28  C   UNL     1      45.148   3.669  10.735  0.00  0.00    +0.000 C 
BRANCH  28  29
ATOM     29  N   UNL     1      44.521   3.400   9.418  0.00  0.00    +0.000 NA
ATOM     30  C   UNL     1      44.501   1.971   9.064  0.00  0.00    +0.000 C 
ATOM     31  C   UNL     1      45.858   1.702   8.447  0.00  0.00    +0.000 C 
ATOM     32  C   UNL     1      46.096   2.952   7.625  0.00  0.00    +0.000 C 
ATOM     33  C   UNL     1      45.299   4.045   8.336  0.00  0.00    +0.000 C 
ENDBRANCH  28  29
ENDBRANCH  25  28
ENDBRANCH  22  25
ENDBRANCH  18  19
ENDBRANCH   1  18
TORSDOF 9
ENDMDL
MODEL 8
REMARK VINA RESULT:    -6.380      2.339      8.050
REMARK INTER + INTRA:         -10.863
REMARK INTER:                  -9.541
REMARK INTRA:                  -1.322
REMARK UNBOUND:                -1.312
REMARK  Name = 
REMARK  10 active torsions:
REMARK  status: ('A' for Active; 'I' for Inactive)
REMARK    1  A    between atoms: C_1  and  C_2
REMARK    2  A    between atoms: C_2  and  N_3
REMARK    3  A    between atoms: C_2  and  C_19
REMARK    4  A    between atoms: N_3  and  C_4
REMARK    5  A    between atoms: C_4  and  C_5
REMARK    6  A    between atoms: C_8  and  C_9
REMARK    7  A    between atoms: C_9  and  O_10
REMARK    8  A    between atoms: C_9  and  C_11
REMARK    9  A    between atoms: C_11  and  N_12
REMARK   10  A    between atoms: C_19  and  C_21
REMARK                            x       y       z     vdW  Elec       q    Type
REMARK                         _______ _______ _______ _____ _____    ______ ____
ROOT
ATOM      1  N   UNL     1      49.405   6.876  15.894  0.00  0.00    +0.000 NA
ATOM      2  H   UNL     1      48.604   6.252  15.803  0.00  0.00    +0.000 HD
ENDROOT
BRANCH   1   4
ATOM      3  C   UNL     1      50.769   8.012  17.649  0.00  0.00    +0.000 C 
ATOM      4  C   UNL     1      49.401   7.446  17.260  0.00  0.00    +0.000 C 
BRANCH   4   5
ATOM      5  C   UNL     1      48.855   6.458  18.320  0.00  0.00    +0.000 C 
ATOM      6  O   UNL     1      48.600   6.847  19.461  0.00  0.00    +0.000 OA
BRANCH   5   7
ATOM      7  C   UNL     1      48.667   5.037  17.970  0.00  0.00    +0.000 A 
ATOM      8  C   UNL     1      47.467   4.491  17.546  0.00  0.00    +0.000 A 
ATOM      9  S   UNL     1      47.612   2.875  17.006  0.00  0.00    +0.000 S 
ATOM     10  C   UNL     1      49.276   2.847  17.361  0.00  0.00    +0.000 A 
ATOM     11  N   UNL     1      50.038   1.757  17.084  0.00  0.00    +0.000 NA
ATOM     12  C   UNL     1      51.286   1.894  17.396  0.00  0.00    +0.000 A 
ATOM     13  N   UNL     1      51.829   3.004  17.992  0.00  0.00    +0.000 N 
ATOM     14  C   UNL     1      51.065   4.066  18.423  0.00  0.00    +0.000 A 
ATOM     15  O   UNL     1      51.508   4.886  19.219  0.00  0.00    +0.000 OA
ATOM     16  C   UNL     1      49.694   4.026  17.949  0.00  0.00    +0.000 A 
ATOM     17  H   UNL     1      52.787   2.998  18.307  0.00  0.00    +0.000 HD
ENDBRANCH   5   7
ENDBRANCH   4   5
ENDBRANCH   1   4
BRANCH   1  18
ATOM     18  C   UNL     1      49.350   7.862  14.812  0.00  0.00    +0.000 C 
BRANCH  18  19
ATOM     19  C   UNL     1      48.119   7.664  13.959  0.00  0.00    +0.000 A 
ATOM     20  C   UNL     1      47.789   6.399  13.448  0.00  0.00    +0.000 A 
ATOM     21  C   UNL     1      46.639   6.216  12.677  0.00  0.00    +0.000 A 
ATOM     22  C   UNL     1      45.779   7.288  12.413  0.00  0.00    +0.000 A 
ATOM     23  C   UNL     1      46.105   8.555  12.928  0.00  0.00    +0.000 A 
ATOM     24  C   UNL     1      47.265   8.740  13.688  0.00  0.00    +0.000 A 
BRANCH  22  25
ATOM     25  C   UNL     1      44.516   7.067  11.612  0.00  0.00    +0.000 C 
BRANCH  25  26
ATOM     26  O   UNL     1      44.292   8.246  10.836  0.00  0.00    +0.000 OA
ATOM     27  H   UNL     1      44.434   9.004  11.425  0.00  0.00    +0.000 HD
ENDBRANCH  25  26
BRANCH  25  28
ATOM     28  C   UNL     1      44.590   5.779  10.738  0.00  0.00    +0.000 C 
BRANCH  28  29
ATOM     29  N   UNL     1      43.403   4.892  10.798  0.00  0.00    +0.000 NA
ATOM     30  C   UNL     1      42.592   5.086  12.012  0.00  0.00    +0.000 C 
ATOM     31  C   UNL     1      43.258   4.227  13.068  0.00  0.00    +0.000 C 
ATOM     32  C   UNL     1      43.642   2.988  12.286  0.00  0.00    +0.000 C 
ATOM     33  C   UNL     1      43.822   3.473  10.848  0.00  0.00    +0.000 C 
ENDBRANCH  28  29
ENDBRANCH  25  28
ENDBRANCH  22  25
ENDBRANCH  18  19
ENDBRANCH   1  18
TORSDOF 9
ENDMDL
MODEL 9
REMARK VINA RESULT:    -6.309      2.857      7.615
REMARK INTER + INTRA:         -10.756
REMARK INTER:                  -9.192
REMARK INTRA:                  -1.564
REMARK UNBOUND:                -1.312
REMARK  Name = 
REMARK  10 active torsions:
REMARK  status: ('A' for Active; 'I' for Inactive)
REMARK    1  A    between atoms: C_1  and  C_2
REMARK    2  A    between atoms: C_2  and  N_3
REMARK    3  A    between atoms: C_2  and  C_19
REMARK    4  A    between atoms: N_3  and  C_4
REMARK    5  A    between atoms: C_4  and  C_5
REMARK    6  A    between atoms: C_8  and  C_9
REMARK    7  A    between atoms: C_9  and  O_10
REMARK    8  A    between atoms: C_9  and  C_11
REMARK    9  A    between atoms: C_11  and  N_12
REMARK   10  A    between atoms: C_19  and  C_21
REMARK                            x       y       z     vdW  Elec       q    Type
REMARK                         _______ _______ _______ _____ _____    ______ ____
ROOT
ATOM      1  N   UNL     1      49.823   9.580  15.078  0.00  0.00    +0.000 NA
ATOM      2  H   UNL     1      50.389  10.407  15.265  0.00  0.00    +0.000 HD
ENDROOT
BRANCH   1   4
ATOM      3  C   UNL     1      51.024   7.402  15.290  0.00  0.00    +0.000 C 
ATOM      4  C   UNL     1      50.243   8.507  16.006  0.00  0.00    +0.000 C 
BRANCH   4   5
ATOM      5  C   UNL     1      49.067   7.943  16.841  0.00  0.00    +0.000 C 
ATOM      6  O   UNL     1      47.995   8.549  16.896  0.00  0.00    +0.000 OA
BRANCH   5   7
ATOM      7  C   UNL     1      49.239   6.687  17.596  0.00  0.00    +0.000 A 
ATOM      8  C   UNL     1      49.962   6.577  18.772  0.00  0.00    +0.000 A 
ATOM      9  S   UNL     1      49.798   5.053  19.529  0.00  0.00    +0.000 S 
ATOM     10  C   UNL     1      48.786   4.484  18.285  0.00  0.00    +0.000 A 
ATOM     11  N   UNL     1      48.234   3.243  18.337  0.00  0.00    +0.000 NA
ATOM     12  C   UNL     1      47.476   2.961  17.328  0.00  0.00    +0.000 A 
ATOM     13  N   UNL     1      47.252   3.790  16.258  0.00  0.00    +0.000 N 
ATOM     14  C   UNL     1      47.910   4.990  16.096  0.00  0.00    +0.000 A 
ATOM     15  O   UNL     1      47.941   5.556  15.010  0.00  0.00    +0.000 OA
ATOM     16  C   UNL     1      48.639   5.417  17.276  0.00  0.00    +0.000 A 
ATOM     17  H   UNL     1      46.739   3.461  15.454  0.00  0.00    +0.000 HD
ENDBRANCH   5   7
ENDBRANCH   4   5
ENDBRANCH   1   4
BRANCH   1  18
ATOM     18  C   UNL     1      49.940   9.248  13.656  0.00  0.00    +0.000 C 
BRANCH  18  19
ATOM     19  C   UNL     1      48.682   8.583  13.149  0.00  0.00    +0.000 A 
ATOM     20  C   UNL     1      47.415   9.011  13.576  0.00  0.00    +0.000 A 
ATOM     21  C   UNL     1      46.253   8.407  13.088  0.00  0.00    +0.000 A 
ATOM     22  C   UNL     1      46.328   7.373  12.148  0.00  0.00    +0.000 A 
ATOM     23  C   UNL     1      47.596   6.948  11.715  0.00  0.00    +0.000 A 
ATOM     24  C   UNL     1      48.759   7.543  12.215  0.00  0.00    +0.000 A 
BRANCH  22  25
ATOM     25  C   UNL     1      45.061   6.757  11.597  0.00  0.00    +0.000 C 
BRANCH  25  26
ATOM     26  O   UNL     1      44.335   7.797  10.938  0.00  0.00    +0.000 OA
ATOM     27  H   UNL     1      44.756   8.637  11.184  0.00  0.00    +0.000 HD
ENDBRANCH  25  26
BRANCH  25  28
ATOM     28  C   UNL     1      45.352   5.544  10.665  0.00  0.00    +0.000 C 
BRANCH  28  29
ATOM     29  N   UNL     1      44.165   4.921  10.030  0.00  0.00    +0.000 NA
ATOM     30  C   UNL     1      43.434   4.014  10.930  0.00  0.00    +0.000 C 
ATOM     31  C   UNL     1      44.159   2.688  10.821  0.00  0.00    +0.000 C 
ATOM     32  C   UNL     1      44.484   2.614   9.344  0.00  0.00    +0.000 C 
ATOM     33  C   UNL     1      44.578   4.071   8.890  0.00  0.00    +0.000 C 
ENDBRANCH  28  29
ENDBRANCH  25  28
ENDBRANCH  22  25
ENDBRANCH  18  19
ENDBRANCH   1  18
TORSDOF 9
ENDMDL
