MODEL 1
REMARK VINA RESULT:    -8.180      0.000      0.000
REMARK INTER + INTRA:         -11.066
REMARK INTER:                 -11.288
REMARK INTRA:                   0.222
REMARK UNBOUND:                 0.222
REMARK  Name = 
REMARK  9 active torsions:
REMARK  status: ('A' for Active; 'I' for Inactive)
REMARK    1  A    between atoms: C_1  and  O_2
REMARK    2  A    between atoms: O_2  and  C_3
REMARK    3  A    between atoms: C_3  and  C_5
REMARK    4  A    between atoms: N_9  and  C_10
REMARK    5  A    between atoms: C_10  and  C_11
REMARK    6  A    between atoms: C_11  and  C_12
REMARK    7  A    between atoms: C_11  and  C_13
REMARK    8  A    between atoms: C_17  and  C_18
REMARK    9  A    between atoms: C_18  and  N_19
REMARK                            x       y       z     vdW  Elec       q    Type
REMARK                         _______ _______ _______ _____ _____    ______ ____
ROOT
ATOM      1  C   UNL     1      43.374   4.524  10.881  0.00  0.00    +0.000 C 
ENDROOT
BRANCH   1   6
ATOM      2  C   UNL     1      46.417   2.118   7.752  0.00  0.00    +0.000 A 
ATOM      3  C   UNL     1      46.486   3.454   7.363  0.00  0.00    +0.000 A 
ATOM      4  C   UNL     1      45.668   4.392   7.999  0.00  0.00    +0.000 A 
ATOM      5  C   UNL     1      44.820   3.987   9.026  0.00  0.00    +0.000 A 
ATOM      6  N   UNL     1      44.045   4.974   9.660  0.00  0.00    +0.000 N 
ATOM      7  N   UNL     1      44.745   2.695   9.407  0.00  0.00    +0.000 NA
ATOM      8  C   UNL     1      45.528   1.792   8.764  0.00  0.00    +0.000 A 
ATOM      9  H   UNL     1      43.420   5.389   8.976  0.00  0.00    +0.000 HD
BRANCH   2  10
ATOM     10  C   UNL     1      47.245   1.048   7.155  0.00  0.00    +0.000 C 
ATOM     11  O   UNL     1      46.993  -0.142   7.267  0.00  0.00    +0.000 OA
BRANCH  10  13
ATOM     12  C   UNL     1      47.959   2.190   5.242  0.00  0.00    +0.000 C 
ATOM     13  O   UNL     1      48.299   1.584   6.492  0.00  0.00    +0.000 OA
ENDBRANCH  10  13
ENDBRANCH   2  10
ENDBRANCH   1   6
BRANCH   1  14
ATOM     14  C   UNL     1      43.551   5.541  12.033  0.00  0.00    +0.000 C 
ATOM     15  C   UNL     1      42.721   5.159  13.264  0.00  0.00    +0.000 C 
BRANCH  14  16
ATOM     16  C   UNL     1      45.032   5.666  12.365  0.00  0.00    +0.000 A 
ATOM     17  C   UNL     1      45.871   6.546  11.666  0.00  0.00    +0.000 A 
ATOM     18  C   UNL     1      47.186   6.754  12.083  0.00  0.00    +0.000 A 
ATOM     19  C   UNL     1      47.680   6.089  13.206  0.00  0.00    +0.000 A 
ATOM     20  C   UNL     1      46.869   5.193  13.913  0.00  0.00    +0.000 A 
ATOM     21  C   UNL     1      45.554   4.974  13.469  0.00  0.00    +0.000 A 
BRANCH  20  22
ATOM     22  C   UNL     1      47.385   4.489  15.141  0.00  0.00    +0.000 C 
BRANCH  22  23
ATOM     23  N   UNL     1      47.631   3.074  14.880  0.00  0.00    +0.000 NA
ATOM     24  H   UNL     1      47.291   2.851  13.944  0.00  0.00    +0.000 HD
ATOM     25  H   UNL     1      47.088   2.511  15.530  0.00  0.00    +0.000 HD
ENDBRANCH  22  23
ENDBRANCH  20  22
ENDBRANCH  14  16
ENDBRANCH   1  14
TORSDOF 7
ENDMDL
MODEL 2
REMARK VINA RESULT:    -7.132      3.678      6.016
REMARK INTER + INTRA:          -9.620
REMARK INTER:                  -9.142
REMARK INTRA:                  -0.478
REMARK UNBOUND:                 0.222
REMARK  Name = 
REMARK  9 active torsions:
REMARK  status: ('A' for Active; 'I' for Inactive)
REMARK    1  A    between atoms: C_1  and  O_2
REMARK    2  A    between atoms: O_2  and  C_3
REMARK    3  A    between atoms: C_3  and  C_5
REMARK    4  A    between atoms: N_9  and  C_10
REMARK    5  A    between atoms: C_10  and  C_11
REMARK    6  A    between atoms: C_11  and  C_12
REMARK    7  A    between atoms: C_11  and  C_13
REMARK    8  A    between atoms: C_17  and  C_18
REMARK    9  A    between atoms: C_18  and  N_19
REMARK                            x       y       z     vdW  Elec       q    Type
REMARK                         _______ _______ _______ _____ _____    ______ ____
ROOT
ATOM      1  C   UNL     1      47.491   3.602  15.652  0.00  0.00    +0.000 C 
ENDROOT
BRANCH   1   6
ATOM      2  C   UNL     1      45.259   4.879  11.382  0.00  0.00    +0.000 A 
ATOM      3  C   UNL     1      45.773   6.070  11.888  0.00  0.00    +0.000 A 
ATOM      4  C   UNL     1      46.395   6.067  13.140  0.00  0.00    +0.000 A 
ATOM      5  C   UNL     1      46.516   4.876  13.849  0.00  0.00    +0.000 A 
ATOM      6  N   UNL     1      47.182   4.918  15.086  0.00  0.00    +0.000 N 
ATOM      7  N   UNL     1      46.018   3.718  13.368  0.00  0.00    +0.000 NA
ATOM      8  C   UNL     1      45.396   3.741  12.162  0.00  0.00    +0.000 A 
ATOM      9  H   UNL     1      46.667   5.525  15.716  0.00  0.00    +0.000 HD
BRANCH   2  10
ATOM     10  C   UNL     1      44.594   4.768  10.066  0.00  0.00    +0.000 C 
ATOM     11  O   UNL     1      43.381   4.742   9.922  0.00  0.00    +0.000 OA
BRANCH  10  13
ATOM     12  C   UNL     1      45.237   3.705   8.084  0.00  0.00    +0.000 C 
ATOM     13  O   UNL     1      45.518   4.693   9.078  0.00  0.00    +0.000 OA
ENDBRANCH  10  13
ENDBRANCH   2  10
ENDBRANCH   1   6
BRANCH   1  14
ATOM     14  C   UNL     1      47.805   3.695  17.164  0.00  0.00    +0.000 C 
ATOM     15  C   UNL     1      47.152   2.553  17.952  0.00  0.00    +0.000 C 
BRANCH  14  16
ATOM     16  C   UNL     1      49.315   3.727  17.358  0.00  0.00    +0.000 A 
ATOM     17  C   UNL     1      49.977   4.885  17.790  0.00  0.00    +0.000 A 
ATOM     18  C   UNL     1      51.335   4.850  18.105  0.00  0.00    +0.000 A 
ATOM     19  C   UNL     1      52.051   3.658  17.995  0.00  0.00    +0.000 A 
ATOM     20  C   UNL     1      51.419   2.491  17.551  0.00  0.00    +0.000 A 
ATOM     21  C   UNL     1      50.056   2.543  17.215  0.00  0.00    +0.000 A 
BRANCH  20  22
ATOM     22  C   UNL     1      52.177   1.191  17.452  0.00  0.00    +0.000 C 
BRANCH  22  23
ATOM     23  N   UNL     1      51.521   0.132  18.213  0.00  0.00    +0.000 NA
ATOM     24  H   UNL     1      51.475   0.415  19.192  0.00  0.00    +0.000 HD
ATOM     25  H   UNL     1      52.090  -0.710  18.179  0.00  0.00    +0.000 HD
ENDBRANCH  22  23
ENDBRANCH  20  22
ENDBRANCH  14  16
ENDBRANCH   1  14
TORSDOF 7
ENDMDL
MODEL 3
REMARK VINA RESULT:    -6.873      3.721      6.020
REMARK INTER + INTRA:          -9.262
REMARK INTER:                  -8.815
REMARK INTRA:                  -0.447
REMARK UNBOUND:                 0.222
REMARK  Name = 
REMARK  9 active torsions:
REMARK  status: ('A' for Active; 'I' for Inactive)
REMARK    1  A    between atoms: C_1  and  O_2
REMARK    2  A    between atoms: O_2  and  C_3
REMARK    3  A    between atoms: C_3  and  C_5
REMARK    4  A    between atoms: N_9  and  C_10
REMARK    5  A    between atoms: C_10  and  C_11
REMARK    6  A    between atoms: C_11  and  C_12
REMARK    7  A    between atoms: C_11  and  C_13
REMARK    8  A    between atoms: C_17  and  C_18
REMARK    9  A    between atoms: C_18  and  N_19
REMARK                            x       y       z     vdW  Elec       q    Type
REMARK                         _______ _______ _______ _____ _____    ______ ____
ROOT
ATOM      1  C   UNL     1      47.412   4.294  15.688  0.00  0.00    +0.000 C 
ENDROOT
BRANCH   1   6
ATOM      2  C   UNL     1      45.007   4.289  11.323  0.00  0.00    +0.000 A 
ATOM      3  C   UNL     1      45.556   5.565  11.429  0.00  0.00    +0.000 A 
ATOM      4  C   UNL     1      46.233   5.921  12.599  0.00  0.00    +0.000 A 
ATOM      5  C   UNL     1      46.372   4.994  13.627  0.00  0.00    +0.000 A 
ATOM      6  N   UNL     1      47.093   5.387  14.767  0.00  0.00    +0.000 N 
ATOM      7  N   UNL     1      45.841   3.757  13.535  0.00  0.00    +0.000 NA
ATOM      8  C   UNL     1      45.166   3.433  12.402  0.00  0.00    +0.000 A 
ATOM      9  H   UNL     1      46.614   6.167  15.206  0.00  0.00    +0.000 HD
BRANCH   2  10
ATOM     10  C   UNL     1      44.283   3.806  10.128  0.00  0.00    +0.000 C 
ATOM     11  O   UNL     1      43.704   4.544   9.345  0.00  0.00    +0.000 OA
BRANCH  10  13
ATOM     12  C   UNL     1      45.176   1.974   8.979  0.00  0.00    +0.000 C 
ATOM     13  O   UNL     1      44.358   2.455  10.048  0.00  0.00    +0.000 OA
ENDBRANCH  10  13
ENDBRANCH   2  10
ENDBRANCH   1   6
BRANCH   1  14
ATOM     14  C   UNL     1      48.166   4.807  16.938  0.00  0.00    +0.000 C 
ATOM     15  C   UNL     1      47.228   4.985  18.137  0.00  0.00    +0.000 C 
BRANCH  14  16
ATOM     16  C   UNL     1      49.314   3.857  17.252  0.00  0.00    +0.000 A 
ATOM     17  C   UNL     1      49.272   2.504  16.884  0.00  0.00    +0.000 A 
ATOM     18  C   UNL     1      50.392   1.689  17.047  0.00  0.00    +0.000 A 
ATOM     19  C   UNL     1      51.571   2.214  17.576  0.00  0.00    +0.000 A 
ATOM     20  C   UNL     1      51.637   3.557  17.966  0.00  0.00    +0.000 A 
ATOM     21  C   UNL     1      50.495   4.362  17.819  0.00  0.00    +0.000 A 
BRANCH  20  22
ATOM     22  C   UNL     1      52.913   4.141  18.515  0.00  0.00    +0.000 C 
BRANCH  22  23
ATOM     23  N   UNL     1      53.451   3.323  19.598  0.00  0.00    +0.000 NA
ATOM     24  H   UNL     1      53.032   2.395  19.544  0.00  0.00    +0.000 HD
ATOM     25  H   UNL     1      53.170   3.719  20.492  0.00  0.00    +0.000 HD
ENDBRANCH  22  23
ENDBRANCH  20  22
ENDBRANCH  14  16
ENDBRANCH   1  14
TORSDOF 7
ENDMDL
MODEL 4
REMARK VINA RESULT:    -6.840      3.292      5.654
REMARK INTER + INTRA:          -9.218
REMARK INTER:                  -8.468
REMARK INTRA:                  -0.749
REMARK UNBOUND:                 0.222
REMARK  Name = 
REMARK  9 active torsions:
REMARK  status: ('A' for Active; 'I' for Inactive)
REMARK    1  A    between atoms: C_1  and  O_2
REMARK    2  A    between atoms: O_2  and  C_3
REMARK    3  A    between atoms: C_3  and  C_5
REMARK    4  A    between atoms: N_9  and  C_10
REMARK    5  A    between atoms: C_10  and  C_11
REMARK    6  A    between atoms: C_11  and  C_12
REMARK    7  A    between atoms: C_11  and  C_13
REMARK    8  A    between atoms: C_17  and  C_18
REMARK    9  A    between atoms: C_18  and  N_19
REMARK                            x       y       z     vdW  Elec       q    Type
REMARK                         _______ _______ _______ _____ _____    ______ ____
ROOT
ATOM      1  C   UNL     1      48.485   6.831  13.926  0.00  0.00    +0.000 C 
ENDROOT
BRANCH   1   6
ATOM      2  C   UNL     1      44.501   4.237  12.430  0.00  0.00    +0.000 A 
ATOM      3  C   UNL     1      44.116   5.573  12.334  0.00  0.00    +0.000 A 
ATOM      4  C   UNL     1      44.995   6.568  12.770  0.00  0.00    +0.000 A 
ATOM      5  C   UNL     1      46.247   6.217  13.265  0.00  0.00    +0.000 A 
ATOM      6  N   UNL     1      47.109   7.256  13.655  0.00  0.00    +0.000 N 
ATOM      7  N   UNL     1      46.627   4.926  13.365  0.00  0.00    +0.000 NA
ATOM      8  C   UNL     1      45.753   3.969  12.960  0.00  0.00    +0.000 A 
ATOM      9  H   UNL     1      46.680   7.770  14.419  0.00  0.00    +0.000 HD
BRANCH   2  10
ATOM     10  C   UNL     1      43.655   3.108  11.988  0.00  0.00    +0.000 C 
ATOM     11  O   UNL     1      43.300   2.201  12.726  0.00  0.00    +0.000 OA
BRANCH  10  13
ATOM     12  C   UNL     1      44.368   2.750   9.789  0.00  0.00    +0.000 C 
ATOM     13  O   UNL     1      43.353   3.233  10.673  0.00  0.00    +0.000 OA
ENDBRANCH  10  13
ENDBRANCH   2  10
ENDBRANCH   1   6
BRANCH   1  14
ATOM     14  C   UNL     1      49.110   7.639  15.088  0.00  0.00    +0.000 C 
ATOM     15  C   UNL     1      48.626   9.093  15.097  0.00  0.00    +0.000 C 
BRANCH  14  16
ATOM     16  C   UNL     1      48.809   6.933  16.404  0.00  0.00    +0.000 A 
ATOM     17  C   UNL     1      48.563   7.650  17.584  0.00  0.00    +0.000 A 
ATOM     18  C   UNL     1      48.143   6.991  18.739  0.00  0.00    +0.000 A 
ATOM     19  C   UNL     1      47.959   5.608  18.732  0.00  0.00    +0.000 A 
ATOM     20  C   UNL     1      48.212   4.866  17.572  0.00  0.00    +0.000 A 
ATOM     21  C   UNL     1      48.657   5.538  16.421  0.00  0.00    +0.000 A 
BRANCH  20  22
ATOM     22  C   UNL     1      47.993   3.375  17.544  0.00  0.00    +0.000 C 
BRANCH  22  23
ATOM     23  N   UNL     1      46.571   3.045  17.524  0.00  0.00    +0.000 NA
ATOM     24  H   UNL     1      46.365   2.546  16.658  0.00  0.00    +0.000 HD
ATOM     25  H   UNL     1      46.026   3.904  17.503  0.00  0.00    +0.000 HD
ENDBRANCH  22  23
ENDBRANCH  20  22
ENDBRANCH  14  16
ENDBRANCH   1  14
TORSDOF 7
ENDMDL
MODEL 5
REMARK VINA RESULT:    -6.781      4.019      7.015
REMARK INTER + INTRA:          -9.136
REMARK INTER:                  -8.786
REMARK INTRA:                  -0.349
REMARK UNBOUND:                 0.222
REMARK  Name = 
REMARK  9 active torsions:
REMARK  status: ('A' for Active; 'I' for Inactive)
REMARK    1  A    between atoms: C_1  and  O_2
REMARK    2  A    between atoms: O_2  and  C_3
REMARK    3  A    between atoms: C_3  and  C_5
REMARK    4  A    between atoms: N_9  and  C_10
REMARK    5  A    between atoms: C_10  and  C_11
REMARK    6  A    between atoms: C_11  and  C_12
REMARK    7  A    between atoms: C_11  and  C_13
REMARK    8  A    between atoms: C_17  and  C_18
REMARK    9  A    between atoms: C_18  and  N_19
REMARK                            x       y       z     vdW  Elec       q    Type
REMARK                         _______ _______ _______ _____ _____    ______ ____
ROOT
ATOM      1  C   UNL     1      47.506   6.845  11.787  0.00  0.00    +0.000 C 
ENDROOT
BRANCH   1   6
ATOM      2  C   UNL     1      47.765   4.519  16.187  0.00  0.00    +0.000 A 
ATOM      3  C   UNL     1      48.316   5.778  16.414  0.00  0.00    +0.000 A 
ATOM      4  C   UNL     1      48.470   6.658  15.339  0.00  0.00    +0.000 A 
ATOM      5  C   UNL     1      48.050   6.279  14.068  0.00  0.00    +0.000 A 
ATOM      6  N   UNL     1      48.192   7.213  13.028  0.00  0.00    +0.000 N 
ATOM      7  N   UNL     1      47.518   5.060  13.838  0.00  0.00    +0.000 NA
ATOM      8  C   UNL     1      47.396   4.207  14.887  0.00  0.00    +0.000 A 
ATOM      9  H   UNL     1      49.178   7.421  12.906  0.00  0.00    +0.000 HD
BRANCH   2  10
ATOM     10  C   UNL     1      47.546   3.517  17.252  0.00  0.00    +0.000 C 
ATOM     11  O   UNL     1      46.488   2.930  17.419  0.00  0.00    +0.000 OA
BRANCH  10  13
ATOM     12  C   UNL     1      49.664   2.534  17.390  0.00  0.00    +0.000 C 
ATOM     13  O   UNL     1      48.670   3.366  17.994  0.00  0.00    +0.000 OA
ENDBRANCH  10  13
ENDBRANCH   2  10
ENDBRANCH   1   6
BRANCH   1  14
ATOM     14  C   UNL     1      45.972   6.808  11.976  0.00  0.00    +0.000 C 
ATOM     15  C   UNL     1      45.335   8.183  11.746  0.00  0.00    +0.000 C 
BRANCH  14  16
ATOM     16  C   UNL     1      45.382   5.748  11.055  0.00  0.00    +0.000 A 
ATOM     17  C   UNL     1      45.796   5.619   9.721  0.00  0.00    +0.000 A 
ATOM     18  C   UNL     1      45.354   4.551   8.941  0.00  0.00    +0.000 A 
ATOM     19  C   UNL     1      44.495   3.594   9.483  0.00  0.00    +0.000 A 
ATOM     20  C   UNL     1      44.053   3.707  10.806  0.00  0.00    +0.000 A 
ATOM     21  C   UNL     1      44.487   4.800  11.575  0.00  0.00    +0.000 A 
BRANCH  20  22
ATOM     22  C   UNL     1      43.145   2.666  11.410  0.00  0.00    +0.000 C 
BRANCH  22  23
ATOM     23  N   UNL     1      43.662   2.183  12.686  0.00  0.00    +0.000 NA
ATOM     24  H   UNL     1      44.668   2.037  12.596  0.00  0.00    +0.000 HD
ATOM     25  H   UNL     1      43.253   1.274  12.893  0.00  0.00    +0.000 HD
ENDBRANCH  22  23
ENDBRANCH  20  22
ENDBRANCH  14  16
ENDBRANCH   1  14
TORSDOF 7
ENDMDL
MODEL 6
REMARK VINA RESULT:    -6.780      4.146      7.639
REMARK INTER + INTRA:          -9.134
REMARK INTER:                  -8.582
REMARK INTRA:                  -0.552
REMARK UNBOUND:                 0.222
REMARK  Name = 
REMARK  9 active torsions:
REMARK  status: ('A' for Active; 'I' for Inactive)
REMARK    1  A    between atoms: C_1  and  O_2
REMARK    2  A    between atoms: O_2  and  C_3
REMARK    3  A    between atoms: C_3  and  C_5
REMARK    4  A    between atoms: N_9  and  C_10
REMARK    5  A    between atoms: C_10  and  C_11
REMARK    6  A    between atoms: C_11  and  C_12
REMARK    7  A    between atoms: C_11  and  C_13
REMARK    8  A    between atoms: C_17  and  C_18
REMARK    9  A    between atoms: C_18  and  N_19
REMARK                            x       y       z     vdW  Elec       q    Type
REMARK                         _______ _______ _______ _____ _____    ______ ____
ROOT
ATOM      1  C   UNL     1      45.277   5.263  13.212  0.00  0.00    +0.000 C 
ENDROOT
BRANCH   1   6
ATOM      2  C   UNL     1      48.566   4.404  16.856  0.00  0.00    +0.000 A 
ATOM      3  C   UNL     1      48.899   5.663  16.362  0.00  0.00    +0.000 A 
ATOM      4  C   UNL     1      48.206   6.166  15.257  0.00  0.00    +0.000 A 
ATOM      5  C   UNL     1      47.182   5.420  14.684  0.00  0.00    +0.000 A 
ATOM      6  N   UNL     1      46.491   5.985  13.598  0.00  0.00    +0.000 N 
ATOM      7  N   UNL     1      46.855   4.198  15.153  0.00  0.00    +0.000 NA
ATOM      8  C   UNL     1      47.552   3.712  16.212  0.00  0.00    +0.000 A 
ATOM      9  H   UNL     1      47.143   6.132  12.834  0.00  0.00    +0.000 HD
BRANCH   2  10
ATOM     10  C   UNL     1      49.225   3.782  18.025  0.00  0.00    +0.000 C 
ATOM     11  O   UNL     1      49.467   4.383  19.061  0.00  0.00    +0.000 OA
BRANCH  10  13
ATOM     12  C   UNL     1      50.853   2.259  17.317  0.00  0.00    +0.000 C 
ATOM     13  O   UNL     1      49.514   2.484  17.766  0.00  0.00    +0.000 OA
ENDBRANCH  10  13
ENDBRANCH   2  10
ENDBRANCH   1   6
BRANCH   1  14
ATOM     14  C   UNL     1      44.807   5.662  11.793  0.00  0.00    +0.000 C 
ATOM     15  C   UNL     1      45.672   6.779  11.198  0.00  0.00    +0.000 C 
BRANCH  14  16
ATOM     16  C   UNL     1      44.793   4.423  10.906  0.00  0.00    +0.000 A 
ATOM     17  C   UNL     1      44.148   3.242  11.302  0.00  0.00    +0.000 A 
ATOM     18  C   UNL     1      44.019   2.174  10.415  0.00  0.00    +0.000 A 
ATOM     19  C   UNL     1      44.529   2.270   9.120  0.00  0.00    +0.000 A 
ATOM     20  C   UNL     1      45.192   3.431   8.704  0.00  0.00    +0.000 A 
ATOM     21  C   UNL     1      45.336   4.492   9.614  0.00  0.00    +0.000 A 
BRANCH  20  22
ATOM     22  C   UNL     1      45.725   3.555   7.300  0.00  0.00    +0.000 C 
BRANCH  22  23
ATOM     23  N   UNL     1      46.927   4.383   7.257  0.00  0.00    +0.000 NA
ATOM     24  H   UNL     1      46.771   5.149   6.602  0.00  0.00    +0.000 HD
ATOM     25  H   UNL     1      47.700   3.835   6.888  0.00  0.00    +0.000 HD
ENDBRANCH  22  23
ENDBRANCH  20  22
ENDBRANCH  14  16
ENDBRANCH   1  14
TORSDOF 7
ENDMDL
MODEL 7
REMARK VINA RESULT:    -6.584      4.973      8.804
REMARK INTER + INTRA:          -8.864
REMARK INTER:                  -8.371
REMARK INTRA:                  -0.493
REMARK UNBOUND:                 0.222
REMARK  Name = 
REMARK  9 active torsions:
REMARK  status: ('A' for Active; 'I' for Inactive)
REMARK    1  A    between atoms: C_1  and  O_2
REMARK    2  A    between atoms: O_2  and  C_3
REMARK    3  A    between atoms: C_3  and  C_5
REMARK    4  A    between atoms: N_9  and  C_10
REMARK    5  A    between atoms: C_10  and  C_11
REMARK    6  A    between atoms: C_11  and  C_12
REMARK    7  A    between atoms: C_11  and  C_13
REMARK    8  A    between atoms: C_17  and  C_18
REMARK    9  A    between atoms: C_18  and  N_19
REMARK                            x       y       z     vdW  Elec       q    Type
REMARK                         _______ _______ _______ _____ _____    ______ ____
ROOT
ATOM      1  C   UNL     1      47.127   4.685  13.920  0.00  0.00    +0.000 C 
ENDROOT
BRANCH   1   6
ATOM      2  C   UNL     1      49.009   4.430  18.528  0.00  0.00    +0.000 A 
ATOM      3  C   UNL     1      48.301   3.241  18.363  0.00  0.00    +0.000 A 
ATOM      4  C   UNL     1      47.573   3.040  17.187  0.00  0.00    +0.000 A 
ATOM      5  C   UNL     1      47.585   4.010  16.190  0.00  0.00    +0.000 A 
ATOM      6  N   UNL     1      46.867   3.744  15.012  0.00  0.00    +0.000 N 
ATOM      7  N   UNL     1      48.265   5.165  16.342  0.00  0.00    +0.000 NA
ATOM      8  C   UNL     1      48.949   5.358  17.500  0.00  0.00    +0.000 A 
ATOM      9  H   UNL     1      45.883   3.644  15.242  0.00  0.00    +0.000 HD
BRANCH   2  10
ATOM     10  C   UNL     1      49.821   4.740  19.724  0.00  0.00    +0.000 C 
ATOM     11  O   UNL     1      51.010   5.014  19.680  0.00  0.00    +0.000 OA
BRANCH  10  13
ATOM     12  C   UNL     1      48.176   5.774  21.026  0.00  0.00    +0.000 C 
ATOM     13  O   UNL     1      49.058   4.664  20.842  0.00  0.00    +0.000 OA
ENDBRANCH  10  13
ENDBRANCH   2  10
ENDBRANCH   1   6
BRANCH   1  14
ATOM     14  C   UNL     1      45.824   5.356  13.426  0.00  0.00    +0.000 C 
ATOM     15  C   UNL     1      46.084   6.752  12.850  0.00  0.00    +0.000 C 
BRANCH  14  16
ATOM     16  C   UNL     1      45.145   4.442  12.414  0.00  0.00    +0.000 A 
ATOM     17  C   UNL     1      44.093   3.590  12.780  0.00  0.00    +0.000 A 
ATOM     18  C   UNL     1      43.389   2.875  11.812  0.00  0.00    +0.000 A 
ATOM     19  C   UNL     1      43.723   3.003  10.463  0.00  0.00    +0.000 A 
ATOM     20  C   UNL     1      44.779   3.834  10.071  0.00  0.00    +0.000 A 
ATOM     21  C   UNL     1      45.496   4.531  11.058  0.00  0.00    +0.000 A 
BRANCH  20  22
ATOM     22  C   UNL     1      45.133   3.999   8.615  0.00  0.00    +0.000 C 
BRANCH  22  23
ATOM     23  N   UNL     1      45.989   5.162   8.403  0.00  0.00    +0.000 NA
ATOM     24  H   UNL     1      46.509   5.345   9.262  0.00  0.00    +0.000 HD
ATOM     25  H   UNL     1      45.410   5.981   8.232  0.00  0.00    +0.000 HD
ENDBRANCH  22  23
ENDBRANCH  20  22
ENDBRANCH  14  16
ENDBRANCH   1  14
TORSDOF 7
ENDMDL
MODEL 8
REMARK VINA RESULT:    -6.144      3.654      5.750
REMARK INTER + INTRA:          -8.257
REMARK INTER:                  -7.755
REMARK INTRA:                  -0.502
REMARK UNBOUND:                 0.222
REMARK  Name = 
REMARK  9 active torsions:
REMARK  status: ('A' for Active; 'I' for Inactive)
REMARK    1  A    between atoms: C_1  and  O_2
REMARK    2  A    between atoms: O_2  and  C_3
REMARK    3  A    between atoms: C_3  and  C_5
REMARK    4  A    between atoms: N_9  and  C_10
REMARK    5  A    between atoms: C_10  and  C_11
REMARK    6  A    between atoms: C_11  and  C_12
REMARK    7  A    between atoms: C_11  and  C_13
REMARK    8  A    between atoms: C_17  and  C_18
REMARK    9  A    between atoms: C_18  and  N_19
REMARK                            x       y       z     vdW  Elec       q    Type
REMARK                         _______ _______ _______ _____ _____    ______ ____
ROOT
ATOM      1  C   UNL     1      47.461   4.008  15.643  0.00  0.00    +0.000 C 
ENDROOT
BRANCH   1   6
ATOM      2  C   UNL     1      45.222   4.665  11.239  0.00  0.00    +0.000 A 
ATOM      3  C   UNL     1      45.609   5.943  11.638  0.00  0.00    +0.000 A 
ATOM      4  C   UNL     1      46.199   6.114  12.894  0.00  0.00    +0.000 A 
ATOM      5  C   UNL     1      46.414   5.011  13.714  0.00  0.00    +0.000 A 
ATOM      6  N   UNL     1      47.044   5.230  14.951  0.00  0.00    +0.000 N 
ATOM      7  N   UNL     1      46.039   3.771  13.337  0.00  0.00    +0.000 NA
ATOM      8  C   UNL     1      45.446   3.623  12.125  0.00  0.00    +0.000 A 
ATOM      9  H   UNL     1      46.459   5.841  15.513  0.00  0.00    +0.000 HD
BRANCH   2  10
ATOM     10  C   UNL     1      44.602   4.370   9.929  0.00  0.00    +0.000 C 
ATOM     11  O   UNL     1      43.540   3.779   9.803  0.00  0.00    +0.000 OA
BRANCH  10  13
ATOM     12  C   UNL     1      45.766   3.848   7.969  0.00  0.00    +0.000 C 
ATOM     13  O   UNL     1      45.381   4.839   8.925  0.00  0.00    +0.000 OA
ENDBRANCH  10  13
ENDBRANCH   2  10
ENDBRANCH   1   6
BRANCH   1  14
ATOM     14  C   UNL     1      47.141   4.075  17.155  0.00  0.00    +0.000 C 
ATOM     15  C   UNL     1      47.260   2.701  17.824  0.00  0.00    +0.000 C 
BRANCH  14  16
ATOM     16  C   UNL     1      48.049   5.106  17.812  0.00  0.00    +0.000 A 
ATOM     17  C   UNL     1      49.420   5.167  17.528  0.00  0.00    +0.000 A 
ATOM     18  C   UNL     1      50.202   6.210  18.023  0.00  0.00    +0.000 A 
ATOM     19  C   UNL     1      49.624   7.210  18.806  0.00  0.00    +0.000 A 
ATOM     20  C   UNL     1      48.260   7.166  19.118  0.00  0.00    +0.000 A 
ATOM     21  C   UNL     1      47.488   6.097  18.632  0.00  0.00    +0.000 A 
BRANCH  20  22
ATOM     22  C   UNL     1      47.620   8.254  19.942  0.00  0.00    +0.000 C 
BRANCH  22  23
ATOM     23  N   UNL     1      47.602   9.525  19.225  0.00  0.00    +0.000 NA
ATOM     24  H   UNL     1      47.549   9.334  18.224  0.00  0.00    +0.000 HD
ATOM     25  H   UNL     1      48.480  10.014  19.383  0.00  0.00    +0.000 HD
ENDBRANCH  22  23
ENDBRANCH  20  22
ENDBRANCH  14  16
ENDBRANCH   1  14
TORSDOF 7
ENDMDL
MODEL 9
REMARK VINA RESULT:    -6.120      4.432      8.044
REMARK INTER + INTRA:          -8.223
REMARK INTER:                  -7.767
REMARK INTRA:                  -0.456
REMARK UNBOUND:                 0.222
REMARK  Name = 
REMARK  9 active torsions:
REMARK  status: ('A' for Active; 'I' for Inactive)
REMARK    1  A    between atoms: C_1  and  O_2
REMARK    2  A    between atoms: O_2  and  C_3
REMARK    3  A    between atoms: C_3  and  C_5
REMARK    4  A    between atoms: N_9  and  C_10
REMARK    5  A    between atoms: C_10  and  C_11
REMARK    6  A    between atoms: C_11  and  C_12
REMARK    7  A    between atoms: C_11  and  C_13
REMARK    8  A    between atoms: C_17  and  C_18
REMARK    9  A    between atoms: C_18  and  N_19
REMARK                            x       y       z     vdW  Elec       q    Type
REMARK                         _______ _______ _______ _____ _____    ______ ____
ROOT
ATOM      1  C   UNL     1      47.430   6.706  12.525  0.00  0.00    +0.000 C 
ENDROOT
BRANCH   1   6
ATOM      2  C   UNL     1      48.564   5.218  17.145  0.00  0.00    +0.000 A 
ATOM      3  C   UNL     1      49.121   6.491  17.031  0.00  0.00    +0.000 A 
ATOM      4  C   UNL     1      49.050   7.157  15.805  0.00  0.00    +0.000 A 
ATOM      5  C   UNL     1      48.406   6.558  14.727  0.00  0.00    +0.000 A 
ATOM      6  N   UNL     1      48.329   7.284  13.526  0.00  0.00    +0.000 N 
ATOM      7  N   UNL     1      47.867   5.325  14.827  0.00  0.00    +0.000 NA
ATOM      8  C   UNL     1      47.964   4.680  16.018  0.00  0.00    +0.000 A 
ATOM      9  H   UNL     1      49.270   7.454  13.184  0.00  0.00    +0.000 HD
BRANCH   2  10
ATOM     10  C   UNL     1      48.572   4.431  18.397  0.00  0.00    +0.000 C 
ATOM     11  O   UNL     1      48.192   3.272  18.467  0.00  0.00    +0.000 OA
BRANCH  10  13
ATOM     12  C   UNL     1      48.074   5.480  20.427  0.00  0.00    +0.000 C 
ATOM     13  O   UNL     1      49.045   5.182  19.421  0.00  0.00    +0.000 OA
ENDBRANCH  10  13
ENDBRANCH   2  10
ENDBRANCH   1   6
BRANCH   1  14
ATOM     14  C   UNL     1      45.947   6.972  12.873  0.00  0.00    +0.000 C 
ATOM     15  C   UNL     1      45.462   8.314  12.313  0.00  0.00    +0.000 C 
BRANCH  14  16
ATOM     16  C   UNL     1      45.100   5.809  12.372  0.00  0.00    +0.000 A 
ATOM     17  C   UNL     1      44.087   5.244  13.159  0.00  0.00    +0.000 A 
ATOM     18  C   UNL     1      43.228   4.283  12.626  0.00  0.00    +0.000 A 
ATOM     19  C   UNL     1      43.366   3.876  11.299  0.00  0.00    +0.000 A 
ATOM     20  C   UNL     1      44.379   4.413  10.496  0.00  0.00    +0.000 A 
ATOM     21  C   UNL     1      45.253   5.363  11.051  0.00  0.00    +0.000 A 
BRANCH  20  22
ATOM     22  C   UNL     1      44.522   3.999   9.053  0.00  0.00    +0.000 C 
BRANCH  22  23
ATOM     23  N   UNL     1      45.471   4.853   8.345  0.00  0.00    +0.000 NA
ATOM     24  H   UNL     1      45.107   5.806   8.336  0.00  0.00    +0.000 HD
ATOM     25  H   UNL     1      45.534   4.555   7.375  0.00  0.00    +0.000 HD
ENDBRANCH  22  23
ENDBRANCH  20  22
ENDBRANCH  14  16
ENDBRANCH   1  14
TORSDOF 7
ENDMDL
