MODEL 1
REMARK VINA RESULT:    -8.302      0.000      0.000
REMARK INTER + INTRA:         -12.311
REMARK INTER:                 -11.214
REMARK INTRA:                  -1.097
REMARK UNBOUND:                -1.097
REMARK  Name = 
REMARK  8 active torsions:
REMARK  status: ('A' for Active; 'I' for Inactive)
REMARK    1  A    between atoms: C_1  and  C_2
REMARK    2  A    between atoms: C_2  and  C_3
REMARK    3  A    between atoms: C_2  and  C_4
REMARK    4  A    between atoms: C_2  and  C_15
REMARK    5  A    between atoms: C_4  and  N_5
REMARK    6  A    between atoms: N_5  and  C_6
REMARK    7  A    between atoms: C_9  and  C_10
REMARK    8  A    between atoms: C_19  and  C_20
REMARK                            x       y       z     vdW  Elec       q    Type
REMARK                         _______ _______ _______ _____ _____    ______ ____
ROOT
ATOM      1  C   UNL     1      43.450   5.842  11.057  0.00  0.00    +0.000 C 
ATOM      2  C   UNL     1      43.995   4.867  12.123  0.00  0.00    +0.000 C 
ATOM      3  C   UNL     1      42.989   4.841  13.298  0.00  0.00    +0.000 C 
ENDROOT
BRANCH   2   4
ATOM      4  C   UNL     1      45.406   5.347  12.551  0.00  0.00    +0.000 A 
ATOM      5  C   UNL     1      46.169   6.230  11.774  0.00  0.00    +0.000 A 
ATOM      6  C   UNL     1      47.417   6.674  12.208  0.00  0.00    +0.000 A 
ATOM      7  C   UNL     1      47.926   6.256  13.437  0.00  0.00    +0.000 A 
ATOM      8  C   UNL     1      47.202   5.387  14.266  0.00  0.00    +0.000 A 
ATOM      9  C   UNL     1      45.960   4.924  13.784  0.00  0.00    +0.000 A 
BRANCH   8  10
ATOM     10  C   UNL     1      47.699   5.020  15.614  0.00  0.00    +0.000 A 
ATOM     11  C   UNL     1      48.674   5.796  16.260  0.00  0.00    +0.000 A 
ATOM     12  C   UNL     1      49.102   5.446  17.532  0.00  0.00    +0.000 A 
ATOM     13  N   UNL     1      48.627   4.389  18.212  0.00  0.00    +0.000 NA
ATOM     14  C   UNL     1      47.687   3.648  17.593  0.00  0.00    +0.000 A 
ATOM     15  C   UNL     1      47.206   3.914  16.318  0.00  0.00    +0.000 A 
ENDBRANCH   8  10
ENDBRANCH   2   4
BRANCH   2  16
ATOM     16  C   UNL     1      44.122   3.416  11.555  0.00  0.00    +0.000 C 
BRANCH  16  17
ATOM     17  N   UNL     1      43.715   3.295  10.145  0.00  0.00    +0.000 N 
ATOM     18  H   UNL     1      43.143   4.079   9.838  0.00  0.00    +0.000 HD
BRANCH  17  19
ATOM     19  C   UNL     1      44.743   3.045   9.218  0.00  0.00    +0.000 A 
ATOM     20  C   UNL     1      45.212   4.091   8.416  0.00  0.00    +0.000 A 
ATOM     21  C   UNL     1      46.210   3.864   7.468  0.00  0.00    +0.000 A 
ATOM     22  C   UNL     1      46.693   2.572   7.320  0.00  0.00    +0.000 A 
ATOM     23  N   UNL     1      46.234   1.508   8.032  0.00  0.00    +0.000 NA
ATOM     24  C   UNL     1      45.262   1.776   8.938  0.00  0.00    +0.000 A 
BRANCH  22  25
ATOM     25  C   UNL     1      47.783   2.288   6.336  0.00  0.00    +0.000 C 
ATOM     26  N   UNL     1      47.724   3.014   5.177  0.00  0.00    +0.000 N 
ATOM     27  O   UNL     1      48.664   1.461   6.541  0.00  0.00    +0.000 OA
ATOM     28  H   UNL     1      46.972   3.683   5.049  0.00  0.00    +0.000 HD
ATOM     29  H   UNL     1      48.419   2.872   4.459  0.00  0.00    +0.000 HD
ENDBRANCH  22  25
ENDBRANCH  17  19
ENDBRANCH  16  17
ENDBRANCH   2  16
TORSDOF 6
ENDMDL
MODEL 2
REMARK VINA RESULT:    -8.049      2.312      3.779
REMARK INTER + INTRA:         -11.969
REMARK INTER:                 -10.936
REMARK INTRA:                  -1.033
REMARK UNBOUND:                -1.097
REMARK  Name = 
REMARK  8 active torsions:
REMARK  status: ('A' for Active; 'I' for Inactive)
REMARK    1  A    between atoms: C_1  and  C_2
REMARK    2  A    between atoms: C_2  and  C_3
REMARK    3  A    between atoms: C_2  and  C_4
REMARK    4  A    between atoms: C_2  and  C_15
REMARK    5  A    between atoms: C_4  and  N_5
REMARK    6  A    between atoms: N_5  and  C_6
REMARK    7  A    between atoms: C_9  and  C_10
REMARK    8  A    between atoms: C_19  and  C_20
REMARK                            x       y       z     vdW  Elec       q    Type
REMARK                         _______ _______ _______ _____ _____    ______ ____
ROOT
ATOM      1  C   UNL     1      43.512   5.845  11.144  0.00  0.00    +0.000 C 
ATOM      2  C   UNL     1      44.037   4.886  12.235  0.00  0.00    +0.000 C 
ATOM      3  C   UNL     1      42.932   4.742  13.309  0.00  0.00    +0.000 C 
ENDROOT
BRANCH   2   4
ATOM      4  C   UNL     1      45.357   5.467  12.804  0.00  0.00    +0.000 A 
ATOM      5  C   UNL     1      46.153   4.769  13.723  0.00  0.00    +0.000 A 
ATOM      6  C   UNL     1      47.355   5.304  14.183  0.00  0.00    +0.000 A 
ATOM      7  C   UNL     1      47.796   6.543  13.725  0.00  0.00    +0.000 A 
ATOM      8  C   UNL     1      47.053   7.281  12.793  0.00  0.00    +0.000 A 
ATOM      9  C   UNL     1      45.823   6.734  12.374  0.00  0.00    +0.000 A 
BRANCH   8  10
ATOM     10  C   UNL     1      47.569   8.554  12.233  0.00  0.00    +0.000 A 
ATOM     11  C   UNL     1      46.730   9.670  12.087  0.00  0.00    +0.000 A 
ATOM     12  C   UNL     1      47.245  10.857  11.586  0.00  0.00    +0.000 A 
ATOM     13  N   UNL     1      48.531  11.019  11.230  0.00  0.00    +0.000 NA
ATOM     14  C   UNL     1      49.335   9.949  11.376  0.00  0.00    +0.000 A 
ATOM     15  C   UNL     1      48.908   8.718  11.857  0.00  0.00    +0.000 A 
ENDBRANCH   8  10
ENDBRANCH   2   4
BRANCH   2  16
ATOM     16  C   UNL     1      44.337   3.468  11.648  0.00  0.00    +0.000 C 
BRANCH  16  17
ATOM     17  N   UNL     1      43.831   3.275  10.279  0.00  0.00    +0.000 N 
ATOM     18  H   UNL     1      43.204   4.023   9.988  0.00  0.00    +0.000 HD
BRANCH  17  19
ATOM     19  C   UNL     1      44.796   3.028   9.286  0.00  0.00    +0.000 A 
ATOM     20  C   UNL     1      45.206   4.076   8.455  0.00  0.00    +0.000 A 
ATOM     21  C   UNL     1      46.140   3.853   7.442  0.00  0.00    +0.000 A 
ATOM     22  C   UNL     1      46.618   2.563   7.263  0.00  0.00    +0.000 A 
ATOM     23  N   UNL     1      46.211   1.497   8.004  0.00  0.00    +0.000 NA
ATOM     24  C   UNL     1      45.301   1.762   8.973  0.00  0.00    +0.000 A 
BRANCH  22  25
ATOM     25  C   UNL     1      47.641   2.283   6.208  0.00  0.00    +0.000 C 
ATOM     26  N   UNL     1      47.663   3.172   5.168  0.00  0.00    +0.000 N 
ATOM     27  O   UNL     1      48.403   1.324   6.261  0.00  0.00    +0.000 OA
ATOM     28  H   UNL     1      47.008   3.948   5.165  0.00  0.00    +0.000 HD
ATOM     29  H   UNL     1      48.318   3.046   4.412  0.00  0.00    +0.000 HD
ENDBRANCH  22  25
ENDBRANCH  17  19
ENDBRANCH  16  17
ENDBRANCH   2  16
TORSDOF 6
ENDMDL
MODEL 3
REMARK VINA RESULT:    -7.759      2.485      3.226
REMARK INTER + INTRA:         -11.578
REMARK INTER:                 -10.922
REMARK INTRA:                  -0.656
REMARK UNBOUND:                -1.097
REMARK  Name = 
REMARK  8 active torsions:
REMARK  status: ('A' for Active; 'I' for Inactive)
REMARK    1  A    between atoms: C_1  and  C_2
REMARK    2  A    between atoms: C_2  and  C_3
REMARK    3  A    between atoms: C_2  and  C_4
REMARK    4  A    between atoms: C_2  and  C_15
REMARK    5  A    between atoms: C_4  and  N_5
REMARK    6  A    between atoms: N_5  and  C_6
REMARK    7  A    between atoms: C_9  and  C_10
REMARK    8  A    between atoms: C_19  and  C_20
REMARK                            x       y       z     vdW  Elec       q    Type
REMARK                         _______ _______ _______ _____ _____    ______ ____
ROOT
ATOM      1  C   UNL     1      43.311   4.511  13.487  0.00  0.00    +0.000 C 
ATOM      2  C   UNL     1      44.194   4.476  12.221  0.00  0.00    +0.000 C 
ATOM      3  C   UNL     1      45.271   3.384  12.428  0.00  0.00    +0.000 C 
ENDROOT
BRANCH   2   4
ATOM      4  C   UNL     1      44.802   5.887  12.008  0.00  0.00    +0.000 A 
ATOM      5  C   UNL     1      44.032   6.984  11.599  0.00  0.00    +0.000 A 
ATOM      6  C   UNL     1      44.603   8.249  11.457  0.00  0.00    +0.000 A 
ATOM      7  C   UNL     1      45.954   8.448  11.735  0.00  0.00    +0.000 A 
ATOM      8  C   UNL     1      46.771   7.392  12.165  0.00  0.00    +0.000 A 
ATOM      9  C   UNL     1      46.176   6.117  12.263  0.00  0.00    +0.000 A 
BRANCH   8  10
ATOM     10  C   UNL     1      48.184   7.623  12.553  0.00  0.00    +0.000 A 
ATOM     11  C   UNL     1      49.118   8.106  11.623  0.00  0.00    +0.000 A 
ATOM     12  C   UNL     1      50.427   8.340  12.019  0.00  0.00    +0.000 A 
ATOM     13  N   UNL     1      50.872   8.139  13.272  0.00  0.00    +0.000 NA
ATOM     14  C   UNL     1      49.973   7.681  14.164  0.00  0.00    +0.000 A 
ATOM     15  C   UNL     1      48.647   7.407  13.857  0.00  0.00    +0.000 A 
ENDBRANCH   8  10
ENDBRANCH   2   4
BRANCH   2  16
ATOM     16  C   UNL     1      43.357   4.105  10.954  0.00  0.00    +0.000 C 
BRANCH  16  17
ATOM     17  N   UNL     1      43.821   4.768   9.724  0.00  0.00    +0.000 N 
ATOM     18  H   UNL     1      44.122   5.726   9.889  0.00  0.00    +0.000 HD
BRANCH  17  19
ATOM     19  C   UNL     1      44.781   4.075   8.966  0.00  0.00    +0.000 A 
ATOM     20  C   UNL     1      44.842   2.680   9.048  0.00  0.00    +0.000 A 
ATOM     21  C   UNL     1      45.805   1.969   8.330  0.00  0.00    +0.000 A 
ATOM     22  C   UNL     1      46.714   2.685   7.566  0.00  0.00    +0.000 A 
ATOM     23  N   UNL     1      46.738   4.043   7.494  0.00  0.00    +0.000 NA
ATOM     24  C   UNL     1      45.786   4.690   8.211  0.00  0.00    +0.000 A 
BRANCH  22  25
ATOM     25  C   UNL     1      47.746   1.963   6.757  0.00  0.00    +0.000 C 
ATOM     26  N   UNL     1      48.778   2.740   6.305  0.00  0.00    +0.000 N 
ATOM     27  O   UNL     1      47.674   0.766   6.506  0.00  0.00    +0.000 OA
ATOM     28  H   UNL     1      48.792   3.728   6.533  0.00  0.00    +0.000 HD
ATOM     29  H   UNL     1      49.509   2.328   5.744  0.00  0.00    +0.000 HD
ENDBRANCH  22  25
ENDBRANCH  17  19
ENDBRANCH  16  17
ENDBRANCH   2  16
TORSDOF 6
ENDMDL
MODEL 4
REMARK VINA RESULT:    -7.478      1.463      2.036
REMARK INTER + INTRA:         -11.198
REMARK INTER:                 -10.007
REMARK INTRA:                  -1.190
REMARK UNBOUND:                -1.097
REMARK  Name = 
REMARK  8 active torsions:
REMARK  status: ('A' for Active; 'I' for Inactive)
REMARK    1  A    between atoms: C_1  and  C_2
REMARK    2  A    between atoms: C_2  and  C_3
REMARK    3  A    between atoms: C_2  and  C_4
REMARK    4  A    between atoms: C_2  and  C_15
REMARK    5  A    between atoms: C_4  and  N_5
REMARK    6  A    between atoms: N_5  and  C_6
REMARK    7  A    between atoms: C_9  and  C_10
REMARK    8  A    between atoms: C_19  and  C_20
REMARK                            x       y       z     vdW  Elec       q    Type
REMARK                         _______ _______ _______ _____ _____    ______ ____
ROOT
ATOM      1  C   UNL     1      42.659   4.789  11.387  0.00  0.00    +0.000 C 
ATOM      2  C   UNL     1      43.850   4.469  12.316  0.00  0.00    +0.000 C 
ATOM      3  C   UNL     1      43.282   4.168  13.724  0.00  0.00    +0.000 C 
ENDROOT
BRANCH   2   4
ATOM      4  C   UNL     1      44.819   5.680  12.306  0.00  0.00    +0.000 A 
ATOM      5  C   UNL     1      44.564   6.842  11.564  0.00  0.00    +0.000 A 
ATOM      6  C   UNL     1      45.437   7.928  11.610  0.00  0.00    +0.000 A 
ATOM      7  C   UNL     1      46.577   7.884  12.409  0.00  0.00    +0.000 A 
ATOM      8  C   UNL     1      46.876   6.756  13.187  0.00  0.00    +0.000 A 
ATOM      9  C   UNL     1      45.997   5.658  13.092  0.00  0.00    +0.000 A 
BRANCH   8  10
ATOM     10  C   UNL     1      48.037   6.746  14.111  0.00  0.00    +0.000 A 
ATOM     11  C   UNL     1      47.991   6.032  15.318  0.00  0.00    +0.000 A 
ATOM     12  C   UNL     1      49.101   6.016  16.151  0.00  0.00    +0.000 A 
ATOM     13  N   UNL     1      50.253   6.649  15.869  0.00  0.00    +0.000 NA
ATOM     14  C   UNL     1      50.296   7.329  14.707  0.00  0.00    +0.000 A 
ATOM     15  C   UNL     1      49.234   7.411  13.817  0.00  0.00    +0.000 A 
ENDBRANCH   8  10
ENDBRANCH   2   4
BRANCH   2  16
ATOM     16  C   UNL     1      44.634   3.209  11.825  0.00  0.00    +0.000 C 
BRANCH  16  17
ATOM     17  N   UNL     1      44.099   2.628  10.582  0.00  0.00    +0.000 N 
ATOM     18  H   UNL     1      43.187   3.008  10.337  0.00  0.00    +0.000 HD
BRANCH  17  19
ATOM     19  C   UNL     1      44.955   2.647   9.466  0.00  0.00    +0.000 A 
ATOM     20  C   UNL     1      45.237   3.865   8.840  0.00  0.00    +0.000 A 
ATOM     21  C   UNL     1      46.058   3.910   7.713  0.00  0.00    +0.000 A 
ATOM     22  C   UNL     1      46.553   2.714   7.215  0.00  0.00    +0.000 A 
ATOM     23  N   UNL     1      46.266   1.496   7.748  0.00  0.00    +0.000 NA
ATOM     24  C   UNL     1      45.461   1.503   8.840  0.00  0.00    +0.000 A 
BRANCH  22  25
ATOM     25  C   UNL     1      47.461   2.716   6.025  0.00  0.00    +0.000 C 
ATOM     26  N   UNL     1      48.786   2.511   6.304  0.00  0.00    +0.000 N 
ATOM     27  O   UNL     1      47.057   2.896   4.883  0.00  0.00    +0.000 OA
ATOM     28  H   UNL     1      49.074   2.373   7.267  0.00  0.00    +0.000 HD
ATOM     29  H   UNL     1      49.462   2.508   5.556  0.00  0.00    +0.000 HD
ENDBRANCH  22  25
ENDBRANCH  17  19
ENDBRANCH  16  17
ENDBRANCH   2  16
TORSDOF 6
ENDMDL
MODEL 5
REMARK VINA RESULT:    -6.890      2.953      8.025
REMARK INTER + INTRA:         -10.404
REMARK INTER:                  -9.319
REMARK INTRA:                  -1.085
REMARK UNBOUND:                -1.097
REMARK  Name = 
REMARK  8 active torsions:
REMARK  status: ('A' for Active; 'I' for Inactive)
REMARK    1  A    between atoms: C_1  and  C_2
REMARK    2  A    between atoms: C_2  and  C_3
REMARK    3  A    between atoms: C_2  and  C_4
REMARK    4  A    between atoms: C_2  and  C_15
REMARK    5  A    between atoms: C_4  and  N_5
REMARK    6  A    between atoms: N_5  and  C_6
REMARK    7  A    between atoms: C_9  and  C_10
REMARK    8  A    between atoms: C_19  and  C_20
REMARK                            x       y       z     vdW  Elec       q    Type
REMARK                         _______ _______ _______ _____ _____    ______ ____
ROOT
ATOM      1  C   UNL     1      48.985   9.729  11.616  0.00  0.00    +0.000 C 
ATOM      2  C   UNL     1      48.677   8.415  12.366  0.00  0.00    +0.000 C 
ATOM      3  C   UNL     1      49.687   7.347  11.881  0.00  0.00    +0.000 C 
ENDROOT
BRANCH   2   4
ATOM      4  C   UNL     1      47.204   8.022  12.084  0.00  0.00    +0.000 A 
ATOM      5  C   UNL     1      46.130   8.879  12.360  0.00  0.00    +0.000 A 
ATOM      6  C   UNL     1      44.820   8.510  12.055  0.00  0.00    +0.000 A 
ATOM      7  C   UNL     1      44.556   7.281  11.453  0.00  0.00    +0.000 A 
ATOM      8  C   UNL     1      45.590   6.389  11.136  0.00  0.00    +0.000 A 
ATOM      9  C   UNL     1      46.901   6.772  11.491  0.00  0.00    +0.000 A 
BRANCH   8  10
ATOM     10  C   UNL     1      45.319   5.125  10.409  0.00  0.00    +0.000 A 
ATOM     11  C   UNL     1      45.673   4.981   9.058  0.00  0.00    +0.000 A 
ATOM     12  C   UNL     1      45.433   3.778   8.409  0.00  0.00    +0.000 A 
ATOM     13  N   UNL     1      44.878   2.708   9.004  0.00  0.00    +0.000 NA
ATOM     14  C   UNL     1      44.545   2.847  10.301  0.00  0.00    +0.000 A 
ATOM     15  C   UNL     1      44.736   4.014  11.030  0.00  0.00    +0.000 A 
ENDBRANCH   8  10
ENDBRANCH   2   4
BRANCH   2  16
ATOM     16  C   UNL     1      48.852   8.588  13.910  0.00  0.00    +0.000 C 
BRANCH  16  17
ATOM     17  N   UNL     1      49.810   7.642  14.507  0.00  0.00    +0.000 N 
ATOM     18  H   UNL     1      50.572   8.114  14.988  0.00  0.00    +0.000 HD
BRANCH  17  19
ATOM     19  C   UNL     1      49.265   6.633  15.321  0.00  0.00    +0.000 A 
ATOM     20  C   UNL     1      49.916   6.286  16.509  0.00  0.00    +0.000 A 
ATOM     21  C   UNL     1      49.414   5.268  17.322  0.00  0.00    +0.000 A 
ATOM     22  C   UNL     1      48.278   4.592  16.900  0.00  0.00    +0.000 A 
ATOM     23  N   UNL     1      47.638   4.849  15.728  0.00  0.00    +0.000 NA
ATOM     24  C   UNL     1      48.165   5.843  14.971  0.00  0.00    +0.000 A 
BRANCH  22  25
ATOM     25  C   UNL     1      47.689   3.513  17.753  0.00  0.00    +0.000 C 
ATOM     26  N   UNL     1      48.363   3.258  18.916  0.00  0.00    +0.000 N 
ATOM     27  O   UNL     1      46.681   2.894  17.435  0.00  0.00    +0.000 OA
ATOM     28  H   UNL     1      49.197   3.794  19.134  0.00  0.00    +0.000 HD
ATOM     29  H   UNL     1      48.033   2.537  19.541  0.00  0.00    +0.000 HD
ENDBRANCH  22  25
ENDBRANCH  17  19
ENDBRANCH  16  17
ENDBRANCH   2  16
TORSDOF 6
ENDMDL
MODEL 6
REMARK VINA RESULT:    -6.739      2.880      8.498
REMARK INTER + INTRA:         -10.200
REMARK INTER:                  -9.397
REMARK INTRA:                  -0.803
REMARK UNBOUND:                -1.097
REMARK  Name = 
REMARK  8 active torsions:
REMARK  status: ('A' for Active; 'I' for Inactive)
REMARK    1  A    between atoms: C_1  and  C_2
REMARK    2  A    between atoms: C_2  and  C_3
REMARK    3  A    between atoms: C_2  and  C_4
REMARK    4  A    between atoms: C_2  and  C_15
REMARK    5  A    between atoms: C_4  and  N_5
REMARK    6  A    between atoms: N_5  and  C_6
REMARK    7  A    between atoms: C_9  and  C_10
REMARK    8  A    between atoms: C_19  and  C_20
REMARK                            x       y       z     vdW  Elec       q    Type
REMARK                         _______ _______ _______ _____ _____    ______ ____
ROOT
ATOM      1  C   UNL     1      44.300   6.058  13.252  0.00  0.00    +0.000 C 
ATOM      2  C   UNL     1      45.468   5.562  12.373  0.00  0.00    +0.000 C 
ATOM      3  C   UNL     1      45.910   6.738  11.469  0.00  0.00    +0.000 C 
ENDROOT
BRANCH   2   4
ATOM      4  C   UNL     1      44.984   4.331  11.564  0.00  0.00    +0.000 A 
ATOM      5  C   UNL     1      43.856   3.585  11.931  0.00  0.00    +0.000 A 
ATOM      6  C   UNL     1      43.425   2.508  11.157  0.00  0.00    +0.000 A 
ATOM      7  C   UNL     1      44.104   2.161   9.991  0.00  0.00    +0.000 A 
ATOM      8  C   UNL     1      45.229   2.880   9.563  0.00  0.00    +0.000 A 
ATOM      9  C   UNL     1      45.665   3.940  10.384  0.00  0.00    +0.000 A 
BRANCH   8  10
ATOM     10  C   UNL     1      45.893   2.572   8.273  0.00  0.00    +0.000 A 
ATOM     11  C   UNL     1      45.983   3.539   7.259  0.00  0.00    +0.000 A 
ATOM     12  C   UNL     1      46.634   3.234   6.072  0.00  0.00    +0.000 A 
ATOM     13  N   UNL     1      47.208   2.044   5.823  0.00  0.00    +0.000 NA
ATOM     14  C   UNL     1      47.125   1.120   6.799  0.00  0.00    +0.000 A 
ATOM     15  C   UNL     1      46.485   1.330   8.013  0.00  0.00    +0.000 A 
ENDBRANCH   8  10
ENDBRANCH   2   4
BRANCH   2  16
ATOM     16  C   UNL     1      46.691   5.128  13.244  0.00  0.00    +0.000 C 
BRANCH  16  17
ATOM     17  N   UNL     1      46.320   4.638  14.582  0.00  0.00    +0.000 N 
ATOM     18  H   UNL     1      45.756   3.791  14.542  0.00  0.00    +0.000 HD
BRANCH  17  19
ATOM     19  C   UNL     1      47.371   4.485  15.504  0.00  0.00    +0.000 A 
ATOM     20  C   UNL     1      47.432   3.328  16.287  0.00  0.00    +0.000 A 
ATOM     21  C   UNL     1      48.447   3.164  17.231  0.00  0.00    +0.000 A 
ATOM     22  C   UNL     1      49.365   4.191  17.393  0.00  0.00    +0.000 A 
ATOM     23  N   UNL     1      49.320   5.361  16.700  0.00  0.00    +0.000 NA
ATOM     24  C   UNL     1      48.314   5.476  15.797  0.00  0.00    +0.000 A 
BRANCH  22  25
ATOM     25  C   UNL     1      50.486   4.047  18.373  0.00  0.00    +0.000 C 
ATOM     26  N   UNL     1      50.169   4.354  19.669  0.00  0.00    +0.000 N 
ATOM     27  O   UNL     1      51.611   3.689  18.046  0.00  0.00    +0.000 OA
ATOM     28  H   UNL     1      49.225   4.652  19.891  0.00  0.00    +0.000 HD
ATOM     29  H   UNL     1      50.874   4.291  20.387  0.00  0.00    +0.000 HD
ENDBRANCH  22  25
ENDBRANCH  17  19
ENDBRANCH  16  17
ENDBRANCH   2  16
TORSDOF 6
ENDMDL
MODEL 7
REMARK VINA RESULT:    -6.737      2.980      4.875
REMARK INTER + INTRA:         -10.197
REMARK INTER:                  -8.889
REMARK INTRA:                  -1.308
REMARK UNBOUND:                -1.097
REMARK  Name = 
REMARK  8 active torsions:
REMARK  status: ('A' for Active; 'I' for Inactive)
REMARK    1  A    between atoms: C_1  and  C_2
REMARK    2  A    between atoms: C_2  and  C_3
REMARK    3  A    between atoms: C_2  and  C_4
REMARK    4  A    between atoms: C_2  and  C_15
REMARK    5  A    between atoms: C_4  and  N_5
REMARK    6  A    between atoms: N_5  and  C_6
REMARK    7  A    between atoms: C_9  and  C_10
REMARK    8  A    between atoms: C_19  and  C_20
REMARK                            x       y       z     vdW  Elec       q    Type
REMARK                         _______ _______ _______ _____ _____    ______ ____
ROOT
ATOM      1  C   UNL     1      48.656   7.151  11.869  0.00  0.00    +0.000 C 
ATOM      2  C   UNL     1      48.131   8.422  12.572  0.00  0.00    +0.000 C 
ATOM      3  C   UNL     1      48.870   9.638  11.963  0.00  0.00    +0.000 C 
ENDROOT
BRANCH   2   4
ATOM      4  C   UNL     1      48.374   8.274  14.097  0.00  0.00    +0.000 A 
ATOM      5  C   UNL     1      48.334   9.365  14.975  0.00  0.00    +0.000 A 
ATOM      6  C   UNL     1      48.516   9.189  16.347  0.00  0.00    +0.000 A 
ATOM      7  C   UNL     1      48.728   7.916  16.872  0.00  0.00    +0.000 A 
ATOM      8  C   UNL     1      48.761   6.784  16.046  0.00  0.00    +0.000 A 
ATOM      9  C   UNL     1      48.612   6.996  14.660  0.00  0.00    +0.000 A 
BRANCH   8  10
ATOM     10  C   UNL     1      48.890   5.421  16.615  0.00  0.00    +0.000 A 
ATOM     11  C   UNL     1      47.876   4.465  16.436  0.00  0.00    +0.000 A 
ATOM     12  C   UNL     1      48.034   3.189  16.955  0.00  0.00    +0.000 A 
ATOM     13  N   UNL     1      49.126   2.789  17.630  0.00  0.00    +0.000 NA
ATOM     14  C   UNL     1      50.100   3.705  17.795  0.00  0.00    +0.000 A 
ATOM     15  C   UNL     1      50.026   5.009  17.323  0.00  0.00    +0.000 A 
ENDBRANCH   8  10
ENDBRANCH   2   4
BRANCH   2  16
ATOM     16  C   UNL     1      46.598   8.611  12.335  0.00  0.00    +0.000 C 
BRANCH  16  17
ATOM     17  N   UNL     1      45.756   7.809  13.238  0.00  0.00    +0.000 N 
ATOM     18  H   UNL     1      44.994   8.351  13.641  0.00  0.00    +0.000 HD
BRANCH  17  19
ATOM     19  C   UNL     1      45.274   6.592  12.725  0.00  0.00    +0.000 A 
ATOM     20  C   UNL     1      45.621   5.396  13.361  0.00  0.00    +0.000 A 
ATOM     21  C   UNL     1      45.182   4.170  12.856  0.00  0.00    +0.000 A 
ATOM     22  C   UNL     1      44.428   4.174  11.692  0.00  0.00    +0.000 A 
ATOM     23  N   UNL     1      44.110   5.300  11.001  0.00  0.00    +0.000 NA
ATOM     24  C   UNL     1      44.561   6.466  11.528  0.00  0.00    +0.000 A 
BRANCH  22  25
ATOM     25  C   UNL     1      43.912   2.886  11.131  0.00  0.00    +0.000 C 
ATOM     26  N   UNL     1      44.593   2.412  10.042  0.00  0.00    +0.000 N 
ATOM     27  O   UNL     1      42.946   2.297  11.600  0.00  0.00    +0.000 OA
ATOM     28  H   UNL     1      45.385   2.938   9.685  0.00  0.00    +0.000 HD
ATOM     29  H   UNL     1      44.301   1.554   9.600  0.00  0.00    +0.000 HD
ENDBRANCH  22  25
ENDBRANCH  17  19
ENDBRANCH  16  17
ENDBRANCH   2  16
TORSDOF 6
ENDMDL
MODEL 8
REMARK VINA RESULT:    -6.384      3.795      6.396
REMARK INTER + INTRA:          -9.721
REMARK INTER:                  -8.872
REMARK INTRA:                  -0.848
REMARK UNBOUND:                -1.097
REMARK  Name = 
REMARK  8 active torsions:
REMARK  status: ('A' for Active; 'I' for Inactive)
REMARK    1  A    between atoms: C_1  and  C_2
REMARK    2  A    between atoms: C_2  and  C_3
REMARK    3  A    between atoms: C_2  and  C_4
REMARK    4  A    between atoms: C_2  and  C_15
REMARK    5  A    between atoms: C_4  and  N_5
REMARK    6  A    between atoms: N_5  and  C_6
REMARK    7  A    between atoms: C_9  and  C_10
REMARK    8  A    between atoms: C_19  and  C_20
REMARK                            x       y       z     vdW  Elec       q    Type
REMARK                         _______ _______ _______ _____ _____    ______ ____
ROOT
ATOM      1  C   UNL     1      47.375   5.107  18.438  0.00  0.00    +0.000 C 
ATOM      2  C   UNL     1      48.007   4.345  17.252  0.00  0.00    +0.000 C 
ATOM      3  C   UNL     1      47.589   2.860  17.369  0.00  0.00    +0.000 C 
ENDROOT
BRANCH   2   4
ATOM      4  C   UNL     1      49.544   4.543  17.306  0.00  0.00    +0.000 A 
ATOM      5  C   UNL     1      50.149   5.795  17.135  0.00  0.00    +0.000 A 
ATOM      6  C   UNL     1      51.532   5.943  17.231  0.00  0.00    +0.000 A 
ATOM      7  C   UNL     1      52.341   4.845  17.514  0.00  0.00    +0.000 A 
ATOM      8  C   UNL     1      51.793   3.570  17.712  0.00  0.00    +0.000 A 
ATOM      9  C   UNL     1      50.396   3.442  17.572  0.00  0.00    +0.000 A 
BRANCH   8  10
ATOM     10  C   UNL     1      52.643   2.421  18.108  0.00  0.00    +0.000 A 
ATOM     11  C   UNL     1      52.344   1.119  17.677  0.00  0.00    +0.000 A 
ATOM     12  C   UNL     1      53.172   0.066  18.039  0.00  0.00    +0.000 A 
ATOM     13  N   UNL     1      54.278   0.213  18.789  0.00  0.00    +0.000 NA
ATOM     14  C   UNL     1      54.566   1.464  19.197  0.00  0.00    +0.000 A 
ATOM     15  C   UNL     1      53.792   2.576  18.895  0.00  0.00    +0.000 A 
ENDBRANCH   8  10
ENDBRANCH   2   4
BRANCH   2  16
ATOM     16  C   UNL     1      47.489   4.894  15.883  0.00  0.00    +0.000 C 
BRANCH  16  17
ATOM     17  N   UNL     1      47.243   3.844  14.880  0.00  0.00    +0.000 N 
ATOM     18  H   UNL     1      47.003   2.951  15.304  0.00  0.00    +0.000 HD
BRANCH  17  19
ATOM     19  C   UNL     1      46.333   4.162  13.856  0.00  0.00    +0.000 A 
ATOM     20  C   UNL     1      45.944   3.167  12.953  0.00  0.00    +0.000 A 
ATOM     21  C   UNL     1      45.065   3.461  11.910  0.00  0.00    +0.000 A 
ATOM     22  C   UNL     1      44.621   4.768  11.775  0.00  0.00    +0.000 A 
ATOM     23  N   UNL     1      45.010   5.786  12.588  0.00  0.00    +0.000 NA
ATOM     24  C   UNL     1      45.867   5.453  13.585  0.00  0.00    +0.000 A 
BRANCH  22  25
ATOM     25  C   UNL     1      43.655   5.123  10.688  0.00  0.00    +0.000 C 
ATOM     26  N   UNL     1      43.983   4.655   9.444  0.00  0.00    +0.000 N 
ATOM     27  O   UNL     1      42.648   5.790  10.888  0.00  0.00    +0.000 OA
ATOM     28  H   UNL     1      44.832   4.111   9.326  0.00  0.00    +0.000 HD
ATOM     29  H   UNL     1      43.387   4.861   8.656  0.00  0.00    +0.000 HD
ENDBRANCH  22  25
ENDBRANCH  17  19
ENDBRANCH  16  17
ENDBRANCH   2  16
TORSDOF 6
ENDMDL
MODEL 9
REMARK VINA RESULT:    -6.003      3.582      8.101
REMARK INTER + INTRA:          -9.206
REMARK INTER:                  -7.647
REMARK INTRA:                  -1.559
REMARK UNBOUND:                -1.097
REMARK  Name = 
REMARK  8 active torsions:
REMARK  status: ('A' for Active; 'I' for Inactive)
REMARK    1  A    between atoms: C_1  and  C_2
REMARK    2  A    between atoms: C_2  and  C_3
REMARK    3  A    between atoms: C_2  and  C_4
REMARK    4  A    between atoms: C_2  and  C_15
REMARK    5  A    between atoms: C_4  and  N_5
REMARK    6  A    between atoms: N_5  and  C_6
REMARK    7  A    between atoms: C_9  and  C_10
REMARK    8  A    between atoms: C_19  and  C_20
REMARK                            x       y       z     vdW  Elec       q    Type
REMARK                         _______ _______ _______ _____ _____    ______ ____
ROOT
ATOM      1  C   UNL     1      47.943   9.341  16.514  0.00  0.00    +0.000 C 
ATOM      2  C   UNL     1      49.361   9.362  15.902  0.00  0.00    +0.000 C 
ATOM      3  C   UNL     1      49.826  10.837  15.841  0.00  0.00    +0.000 C 
ENDROOT
BRANCH   2   4
ATOM      4  C   UNL     1      49.303   8.692  14.505  0.00  0.00    +0.000 A 
ATOM      5  C   UNL     1      50.340   8.809  13.570  0.00  0.00    +0.000 A 
ATOM      6  C   UNL     1      50.273   8.159  12.339  0.00  0.00    +0.000 A 
ATOM      7  C   UNL     1      49.173   7.365  12.019  0.00  0.00    +0.000 A 
ATOM      8  C   UNL     1      48.112   7.196  12.921  0.00  0.00    +0.000 A 
ATOM      9  C   UNL     1      48.189   7.895  14.143  0.00  0.00    +0.000 A 
BRANCH   8  10
ATOM     10  C   UNL     1      46.989   6.275  12.621  0.00  0.00    +0.000 A 
ATOM     11  C   UNL     1      46.331   6.318  11.381  0.00  0.00    +0.000 A 
ATOM     12  C   UNL     1      45.302   5.427  11.116  0.00  0.00    +0.000 A 
ATOM     13  N   UNL     1      44.884   4.492  11.987  0.00  0.00    +0.000 NA
ATOM     14  C   UNL     1      45.520   4.448  13.173  0.00  0.00    +0.000 A 
ATOM     15  C   UNL     1      46.552   5.305  13.532  0.00  0.00    +0.000 A 
ENDBRANCH   8  10
ENDBRANCH   2   4
BRANCH   2  16
ATOM     16  C   UNL     1      50.374   8.566  16.788  0.00  0.00    +0.000 C 
BRANCH  16  17
ATOM     17  N   UNL     1      49.731   7.686  17.777  0.00  0.00    +0.000 N 
ATOM     18  H   UNL     1      48.776   7.970  17.987  0.00  0.00    +0.000 HD
BRANCH  17  19
ATOM     19  C   UNL     1      49.785   6.306  17.513  0.00  0.00    +0.000 A 
ATOM     20  C   UNL     1      48.599   5.611  17.255  0.00  0.00    +0.000 A 
ATOM     21  C   UNL     1      48.621   4.235  17.020  0.00  0.00    +0.000 A 
ATOM     22  C   UNL     1      49.840   3.578  17.084  0.00  0.00    +0.000 A 
ATOM     23  N   UNL     1      51.015   4.192  17.388  0.00  0.00    +0.000 NA
ATOM     24  C   UNL     1      50.944   5.528  17.612  0.00  0.00    +0.000 A 
BRANCH  22  25
ATOM     25  C   UNL     1      49.915   2.109  16.811  0.00  0.00    +0.000 C 
ATOM     26  N   UNL     1      50.807   1.417  17.586  0.00  0.00    +0.000 N 
ATOM     27  O   UNL     1      49.237   1.558  15.952  0.00  0.00    +0.000 OA
ATOM     28  H   UNL     1      51.351   1.917  18.282  0.00  0.00    +0.000 HD
ATOM     29  H   UNL     1      50.922   0.423  17.455  0.00  0.00    +0.000 HD
ENDBRANCH  22  25
ENDBRANCH  17  19
ENDBRANCH  16  17
ENDBRANCH   2  16
TORSDOF 6
ENDMDL
