MODEL 1
REMARK VINA RESULT:    -8.444      0.000      0.000
REMARK INTER + INTRA:         -11.670
REMARK INTER:                 -10.912
REMARK INTRA:                  -0.758
REMARK UNBOUND:                -0.758
REMARK  Name = 
REMARK  5 active torsions:
REMARK  status: ('A' for Active; 'I' for Inactive)
REMARK    1  A    between atoms: C_2  and  C_4
REMARK    2  A    between atoms: C_7  and  O_8
REMARK    3  A    between atoms: O_8  and  C_9
REMARK    4  A    between atoms: C_9  and  C_10
REMARK    5  A    between atoms: C_14  and  C_15
REMARK                            x       y       z     vdW  Elec       q    Type
REMARK                         _______ _______ _______ _____ _____    ______ ____
ROOT
ATOM      1  C   UNL     1      43.479   4.856  10.776  0.00  0.00    +0.000 C 
ENDROOT
BRANCH   1   2
ATOM      2  C   UNL     1      44.621   5.130  11.718  0.00  0.00    +0.000 A 
ATOM      3  C   UNL     1      44.931   4.235  12.746  0.00  0.00    +0.000 A 
ATOM      4  C   UNL     1      46.008   4.490  13.589  0.00  0.00    +0.000 A 
ATOM      5  C   UNL     1      46.799   5.625  13.395  0.00  0.00    +0.000 A 
ATOM      6  C   UNL     1      46.546   6.524  12.343  0.00  0.00    +0.000 A 
ATOM      7  C   UNL     1      45.430   6.262  11.528  0.00  0.00    +0.000 A 
BRANCH   6   8
ATOM      8  C   UNL     1      47.462   7.651  12.044  0.00  0.00    +0.000 A 
ATOM      9  C   UNL     1      47.011   8.983  12.112  0.00  0.00    +0.000 A 
ATOM     10  C   UNL     1      47.877  10.066  11.925  0.00  0.00    +0.000 A 
ATOM     11  C   UNL     1      49.225   9.835  11.673  0.00  0.00    +0.000 A 
ATOM     12  C   UNL     1      49.683   8.529  11.586  0.00  0.00    +0.000 A 
ATOM     13  F   UNL     1      50.985   8.302  11.355  0.00  0.00    +0.000 F 
ATOM     14  C   UNL     1      48.822   7.446  11.757  0.00  0.00    +0.000 A 
ENDBRANCH   6   8
ENDBRANCH   1   2
BRANCH   1  15
ATOM     15  O   UNL     1      43.601   3.515  10.300  0.00  0.00    +0.000 OA
BRANCH  15  19
ATOM     16  C   UNL     1      46.418   2.638   7.501  0.00  0.00    +0.000 A 
ATOM     17  N   UNL     1      45.939   3.906   7.468  0.00  0.00    +0.000 NA
ATOM     18  C   UNL     1      45.003   4.195   8.396  0.00  0.00    +0.000 A 
ATOM     19  C   UNL     1      44.536   3.297   9.338  0.00  0.00    +0.000 A 
ATOM     20  C   UNL     1      45.103   2.039   9.269  0.00  0.00    +0.000 A 
ATOM     21  N   UNL     1      46.041   1.679   8.368  0.00  0.00    +0.000 NA
BRANCH  16  23
ATOM     22  N   UNL     1      47.469   3.065   5.334  0.00  0.00    +0.000 N 
ATOM     23  C   UNL     1      47.475   2.294   6.478  0.00  0.00    +0.000 C 
ATOM     24  O   UNL     1      48.301   1.401   6.614  0.00  0.00    +0.000 OA
ATOM     25  H   UNL     1      48.165   2.889   4.625  0.00  0.00    +0.000 HD
ATOM     26  H   UNL     1      46.797   3.816   5.228  0.00  0.00    +0.000 HD
ENDBRANCH  16  23
ENDBRANCH  15  19
ENDBRANCH   1  15
TORSDOF 5
ENDMDL
MODEL 2
REMARK VINA RESULT:    -8.427      1.617      2.225
REMARK INTER + INTRA:         -11.648
REMARK INTER:                 -10.855
REMARK INTRA:                  -0.793
REMARK UNBOUND:                -0.758
REMARK  Name = 
REMARK  5 active torsions:
REMARK  status: ('A' for Active; 'I' for Inactive)
REMARK    1  A    between atoms: C_2  and  C_4
REMARK    2  A    between atoms: C_7  and  O_8
REMARK    3  A    between atoms: O_8  and  C_9
REMARK    4  A    between atoms: C_9  and  C_10
REMARK    5  A    between atoms: C_14  and  C_15
REMARK                            x       y       z     vdW  Elec       q    Type
REMARK                         _______ _______ _______ _____ _____    ______ ____
ROOT
ATOM      1  C   UNL     1      43.610   3.416  11.535  0.00  0.00    +0.000 C 
ENDROOT
BRANCH   1   2
ATOM      2  C   UNL     1      44.794   4.030  12.232  0.00  0.00    +0.000 A 
ATOM      3  C   UNL     1      45.726   3.229  12.899  0.00  0.00    +0.000 A 
ATOM      4  C   UNL     1      46.830   3.811  13.513  0.00  0.00    +0.000 A 
ATOM      5  C   UNL     1      47.027   5.192  13.443  0.00  0.00    +0.000 A 
ATOM      6  C   UNL     1      46.135   6.026  12.742  0.00  0.00    +0.000 A 
ATOM      7  C   UNL     1      45.008   5.417  12.161  0.00  0.00    +0.000 A 
BRANCH   6   8
ATOM      8  C   UNL     1      46.409   7.469  12.544  0.00  0.00    +0.000 A 
ATOM      9  C   UNL     1      47.713   7.922  12.264  0.00  0.00    +0.000 A 
ATOM     10  C   UNL     1      47.982   9.266  11.981  0.00  0.00    +0.000 A 
ATOM     11  C   UNL     1      46.942  10.189  11.964  0.00  0.00    +0.000 A 
ATOM     12  C   UNL     1      45.654   9.762  12.252  0.00  0.00    +0.000 A 
ATOM     13  F   UNL     1      44.646  10.647  12.225  0.00  0.00    +0.000 F 
ATOM     14  C   UNL     1      45.382   8.428  12.550  0.00  0.00    +0.000 A 
ENDBRANCH   6   8
ENDBRANCH   1   2
BRANCH   1  15
ATOM     15  O   UNL     1      43.564   3.919  10.200  0.00  0.00    +0.000 OA
BRANCH  15  19
ATOM     16  C   UNL     1      46.435   2.749   7.566  0.00  0.00    +0.000 A 
ATOM     17  N   UNL     1      45.898   1.759   8.320  0.00  0.00    +0.000 NA
ATOM     18  C   UNL     1      44.947   2.148   9.194  0.00  0.00    +0.000 A 
ATOM     19  C   UNL     1      44.514   3.453   9.346  0.00  0.00    +0.000 A 
ATOM     20  C   UNL     1      45.137   4.368   8.520  0.00  0.00    +0.000 A 
ATOM     21  N   UNL     1      46.096   4.052   7.624  0.00  0.00    +0.000 NA
BRANCH  16  23
ATOM     22  N   UNL     1      47.497   3.032   5.382  0.00  0.00    +0.000 N 
ATOM     23  C   UNL     1      47.495   2.336   6.572  0.00  0.00    +0.000 C 
ATOM     24  O   UNL     1      48.315   1.449   6.769  0.00  0.00    +0.000 OA
ATOM     25  H   UNL     1      48.196   2.808   4.688  0.00  0.00    +0.000 HD
ATOM     26  H   UNL     1      46.830   3.778   5.224  0.00  0.00    +0.000 HD
ENDBRANCH  16  23
ENDBRANCH  15  19
ENDBRANCH   1  15
TORSDOF 5
ENDMDL
MODEL 3
REMARK VINA RESULT:    -8.311      4.409      7.381
REMARK INTER + INTRA:         -11.498
REMARK INTER:                 -11.187
REMARK INTRA:                  -0.311
REMARK UNBOUND:                -0.758
REMARK  Name = 
REMARK  5 active torsions:
REMARK  status: ('A' for Active; 'I' for Inactive)
REMARK    1  A    between atoms: C_2  and  C_4
REMARK    2  A    between atoms: C_7  and  O_8
REMARK    3  A    between atoms: O_8  and  C_9
REMARK    4  A    between atoms: C_9  and  C_10
REMARK    5  A    between atoms: C_14  and  C_15
REMARK                            x       y       z     vdW  Elec       q    Type
REMARK                         _______ _______ _______ _____ _____    ______ ____
ROOT
ATOM      1  C   UNL     1      46.172   7.113  12.068  0.00  0.00    +0.000 C 
ENDROOT
BRANCH   1   2
ATOM      2  C   UNL     1      45.290   6.114  11.369  0.00  0.00    +0.000 A 
ATOM      3  C   UNL     1      43.907   6.111  11.577  0.00  0.00    +0.000 A 
ATOM      4  C   UNL     1      43.104   5.199  10.899  0.00  0.00    +0.000 A 
ATOM      5  C   UNL     1      43.671   4.304   9.989  0.00  0.00    +0.000 A 
ATOM      6  C   UNL     1      45.052   4.307   9.719  0.00  0.00    +0.000 A 
ATOM      7  C   UNL     1      45.846   5.214  10.444  0.00  0.00    +0.000 A 
BRANCH   6   8
ATOM      8  C   UNL     1      45.640   3.459   8.655  0.00  0.00    +0.000 A 
ATOM      9  C   UNL     1      46.242   4.039   7.522  0.00  0.00    +0.000 A 
ATOM     10  C   UNL     1      46.886   3.265   6.550  0.00  0.00    +0.000 A 
ATOM     11  C   UNL     1      46.948   1.884   6.699  0.00  0.00    +0.000 A 
ATOM     12  C   UNL     1      46.347   1.294   7.801  0.00  0.00    +0.000 A 
ATOM     13  F   UNL     1      46.415  -0.037   7.955  0.00  0.00    +0.000 F 
ATOM     14  C   UNL     1      45.691   2.059   8.765  0.00  0.00    +0.000 A 
ENDBRANCH   6   8
ENDBRANCH   1   2
BRANCH   1  15
ATOM     15  O   UNL     1      47.411   6.477  12.381  0.00  0.00    +0.000 OA
BRANCH  15  19
ATOM     16  C   UNL     1      47.475   4.472  15.919  0.00  0.00    +0.000 A 
ATOM     17  N   UNL     1      48.275   5.564  15.854  0.00  0.00    +0.000 NA
ATOM     18  C   UNL     1      48.255   6.227  14.680  0.00  0.00    +0.000 A 
ATOM     19  C   UNL     1      47.486   5.861  13.590  0.00  0.00    +0.000 A 
ATOM     20  C   UNL     1      46.712   4.731  13.782  0.00  0.00    +0.000 A 
ATOM     21  N   UNL     1      46.684   4.017  14.928  0.00  0.00    +0.000 NA
BRANCH  16  23
ATOM     22  N   UNL     1      48.474   4.062  18.114  0.00  0.00    +0.000 N 
ATOM     23  C   UNL     1      47.473   3.718  17.229  0.00  0.00    +0.000 C 
ATOM     24  O   UNL     1      46.658   2.855  17.526  0.00  0.00    +0.000 OA
ATOM     25  H   UNL     1      48.509   3.601  19.011  0.00  0.00    +0.000 HD
ATOM     26  H   UNL     1      49.138   4.789  17.877  0.00  0.00    +0.000 HD
ENDBRANCH  16  23
ENDBRANCH  15  19
ENDBRANCH   1  15
TORSDOF 5
ENDMDL
MODEL 4
REMARK VINA RESULT:    -8.027      4.071      6.812
REMARK INTER + INTRA:         -11.131
REMARK INTER:                 -10.280
REMARK INTRA:                  -0.850
REMARK UNBOUND:                -0.758
REMARK  Name = 
REMARK  5 active torsions:
REMARK  status: ('A' for Active; 'I' for Inactive)
REMARK    1  A    between atoms: C_2  and  C_4
REMARK    2  A    between atoms: C_7  and  O_8
REMARK    3  A    between atoms: O_8  and  C_9
REMARK    4  A    between atoms: C_9  and  C_10
REMARK    5  A    between atoms: C_14  and  C_15
REMARK                            x       y       z     vdW  Elec       q    Type
REMARK                         _______ _______ _______ _____ _____    ______ ____
ROOT
ATOM      1  C   UNL     1      44.254   6.640  11.586  0.00  0.00    +0.000 C 
ENDROOT
BRANCH   1   2
ATOM      2  C   UNL     1      44.202   5.173  11.256  0.00  0.00    +0.000 A 
ATOM      3  C   UNL     1      43.356   4.310  11.959  0.00  0.00    +0.000 A 
ATOM      4  C   UNL     1      43.299   2.962  11.621  0.00  0.00    +0.000 A 
ATOM      5  C   UNL     1      44.066   2.471  10.561  0.00  0.00    +0.000 A 
ATOM      6  C   UNL     1      44.895   3.317   9.801  0.00  0.00    +0.000 A 
ATOM      7  C   UNL     1      44.961   4.668  10.187  0.00  0.00    +0.000 A 
BRANCH   6   8
ATOM      8  C   UNL     1      45.601   2.834   8.591  0.00  0.00    +0.000 A 
ATOM      9  C   UNL     1      46.016   3.735   7.591  0.00  0.00    +0.000 A 
ATOM     10  C   UNL     1      46.765   3.317   6.486  0.00  0.00    +0.000 A 
ATOM     11  C   UNL     1      47.123   1.979   6.362  0.00  0.00    +0.000 A 
ATOM     12  C   UNL     1      46.710   1.075   7.329  0.00  0.00    +0.000 A 
ATOM     13  F   UNL     1      47.064  -0.214   7.220  0.00  0.00    +0.000 F 
ATOM     14  C   UNL     1      45.951   1.483   8.425  0.00  0.00    +0.000 A 
ENDBRANCH   6   8
ENDBRANCH   1   2
BRANCH   1  15
ATOM     15  O   UNL     1      44.936   6.798  12.830  0.00  0.00    +0.000 OA
BRANCH  15  19
ATOM     16  C   UNL     1      48.924   7.532  12.516  0.00  0.00    +0.000 A 
ATOM     17  N   UNL     1      48.592   6.368  13.127  0.00  0.00    +0.000 NA
ATOM     18  C   UNL     1      47.270   6.126  13.232  0.00  0.00    +0.000 A 
ATOM     19  C   UNL     1      46.282   6.974  12.762  0.00  0.00    +0.000 A 
ATOM     20  C   UNL     1      46.749   8.126  12.159  0.00  0.00    +0.000 A 
ATOM     21  N   UNL     1      48.056   8.434  12.021  0.00  0.00    +0.000 NA
BRANCH  16  23
ATOM     22  N   UNL     1      51.122   7.807  13.553  0.00  0.00    +0.000 N 
ATOM     23  C   UNL     1      50.401   7.819  12.378  0.00  0.00    +0.000 C 
ATOM     24  O   UNL     1      50.961   8.051  11.314  0.00  0.00    +0.000 OA
ATOM     25  H   UNL     1      52.117   7.976  13.516  0.00  0.00    +0.000 HD
ATOM     26  H   UNL     1      50.663   7.598  14.432  0.00  0.00    +0.000 HD
ENDBRANCH  16  23
ENDBRANCH  15  19
ENDBRANCH   1  15
TORSDOF 5
ENDMDL
MODEL 5
REMARK VINA RESULT:    -7.883      4.427      7.313
REMARK INTER + INTRA:         -10.945
REMARK INTER:                 -10.369
REMARK INTRA:                  -0.576
REMARK UNBOUND:                -0.758
REMARK  Name = 
REMARK  5 active torsions:
REMARK  status: ('A' for Active; 'I' for Inactive)
REMARK    1  A    between atoms: C_2  and  C_4
REMARK    2  A    between atoms: C_7  and  O_8
REMARK    3  A    between atoms: O_8  and  C_9
REMARK    4  A    between atoms: C_9  and  C_10
REMARK    5  A    between atoms: C_14  and  C_15
REMARK                            x       y       z     vdW  Elec       q    Type
REMARK                         _______ _______ _______ _____ _____    ______ ____
ROOT
ATOM      1  C   UNL     1      44.396   6.681  11.477  0.00  0.00    +0.000 C 
ENDROOT
BRANCH   1   2
ATOM      2  C   UNL     1      44.274   5.216  11.153  0.00  0.00    +0.000 A 
ATOM      3  C   UNL     1      43.368   4.404  11.842  0.00  0.00    +0.000 A 
ATOM      4  C   UNL     1      43.248   3.058  11.509  0.00  0.00    +0.000 A 
ATOM      5  C   UNL     1      44.009   2.521  10.469  0.00  0.00    +0.000 A 
ATOM      6  C   UNL     1      44.897   3.317   9.722  0.00  0.00    +0.000 A 
ATOM      7  C   UNL     1      45.026   4.665  10.102  0.00  0.00    +0.000 A 
BRANCH   6   8
ATOM      8  C   UNL     1      45.602   2.790   8.529  0.00  0.00    +0.000 A 
ATOM      9  C   UNL     1      46.018   3.655   7.498  0.00  0.00    +0.000 A 
ATOM     10  C   UNL     1      46.766   3.196   6.407  0.00  0.00    +0.000 A 
ATOM     11  C   UNL     1      47.121   1.854   6.331  0.00  0.00    +0.000 A 
ATOM     12  C   UNL     1      46.706   0.986   7.329  0.00  0.00    +0.000 A 
ATOM     13  F   UNL     1      47.057  -0.307   7.265  0.00  0.00    +0.000 F 
ATOM     14  C   UNL     1      45.949   1.434   8.410  0.00  0.00    +0.000 A 
ENDBRANCH   6   8
ENDBRANCH   1   2
BRANCH   1  15
ATOM     15  O   UNL     1      45.752   7.075  11.272  0.00  0.00    +0.000 OA
BRANCH  15  19
ATOM     16  C   UNL     1      48.220   6.961  14.503  0.00  0.00    +0.000 A 
ATOM     17  N   UNL     1      47.993   5.768  13.900  0.00  0.00    +0.000 NA
ATOM     18  C   UNL     1      47.173   5.806  12.830  0.00  0.00    +0.000 A 
ATOM     19  C   UNL     1      46.583   6.958  12.341  0.00  0.00    +0.000 A 
ATOM     20  C   UNL     1      46.893   8.108  13.041  0.00  0.00    +0.000 A 
ATOM     21  N   UNL     1      47.703   8.144  14.120  0.00  0.00    +0.000 NA
BRANCH  16  23
ATOM     22  N   UNL     1      48.604   7.424  16.873  0.00  0.00    +0.000 N 
ATOM     23  C   UNL     1      49.143   6.944  15.699  0.00  0.00    +0.000 C 
ATOM     24  O   UNL     1      50.298   6.539  15.671  0.00  0.00    +0.000 OA
ATOM     25  H   UNL     1      49.173   7.420  17.708  0.00  0.00    +0.000 HD
ATOM     26  H   UNL     1      47.643   7.743  16.902  0.00  0.00    +0.000 HD
ENDBRANCH  16  23
ENDBRANCH  15  19
ENDBRANCH   1  15
TORSDOF 5
ENDMDL
MODEL 6
REMARK VINA RESULT:    -7.651      1.649      2.204
REMARK INTER + INTRA:         -10.645
REMARK INTER:                  -9.905
REMARK INTRA:                  -0.740
REMARK UNBOUND:                -0.758
REMARK  Name = 
REMARK  5 active torsions:
REMARK  status: ('A' for Active; 'I' for Inactive)
REMARK    1  A    between atoms: C_2  and  C_4
REMARK    2  A    between atoms: C_7  and  O_8
REMARK    3  A    between atoms: O_8  and  C_9
REMARK    4  A    between atoms: C_9  and  C_10
REMARK    5  A    between atoms: C_14  and  C_15
REMARK                            x       y       z     vdW  Elec       q    Type
REMARK                         _______ _______ _______ _____ _____    ______ ____
ROOT
ATOM      1  C   UNL     1      44.316   4.141  11.550  0.00  0.00    +0.000 C 
ENDROOT
BRANCH   1   2
ATOM      2  C   UNL     1      44.864   5.538  11.662  0.00  0.00    +0.000 A 
ATOM      3  C   UNL     1      44.070   6.646  11.351  0.00  0.00    +0.000 A 
ATOM      4  C   UNL     1      44.584   7.932  11.489  0.00  0.00    +0.000 A 
ATOM      5  C   UNL     1      45.884   8.121  11.965  0.00  0.00    +0.000 A 
ATOM      6  C   UNL     1      46.698   7.033  12.332  0.00  0.00    +0.000 A 
ATOM      7  C   UNL     1      46.166   5.743  12.148  0.00  0.00    +0.000 A 
BRANCH   6   8
ATOM      8  C   UNL     1      48.021   7.229  12.967  0.00  0.00    +0.000 A 
ATOM      9  C   UNL     1      49.034   7.957  12.313  0.00  0.00    +0.000 A 
ATOM     10  C   UNL     1      50.259   8.236  12.930  0.00  0.00    +0.000 A 
ATOM     11  C   UNL     1      50.493   7.794  14.228  0.00  0.00    +0.000 A 
ATOM     12  C   UNL     1      49.513   7.062  14.881  0.00  0.00    +0.000 A 
ATOM     13  F   UNL     1      49.731   6.645  16.137  0.00  0.00    +0.000 F 
ATOM     14  C   UNL     1      48.297   6.769  14.266  0.00  0.00    +0.000 A 
ENDBRANCH   6   8
ENDBRANCH   1   2
BRANCH   1  15
ATOM     15  O   UNL     1      43.828   3.955  10.221  0.00  0.00    +0.000 OA
BRANCH  15  19
ATOM     16  C   UNL     1      46.571   2.714   7.486  0.00  0.00    +0.000 A 
ATOM     17  N   UNL     1      46.281   4.038   7.461  0.00  0.00    +0.000 NA
ATOM     18  C   UNL     1      45.370   4.448   8.367  0.00  0.00    +0.000 A 
ATOM     19  C   UNL     1      44.750   3.616   9.281  0.00  0.00    +0.000 A 
ATOM     20  C   UNL     1      45.131   2.290   9.207  0.00  0.00    +0.000 A 
ATOM     21  N   UNL     1      46.033   1.808   8.326  0.00  0.00    +0.000 NA
BRANCH  16  23
ATOM     22  N   UNL     1      47.783   3.046   5.388  0.00  0.00    +0.000 N 
ATOM     23  C   UNL     1      47.596   2.233   6.486  0.00  0.00    +0.000 C 
ATOM     24  O   UNL     1      48.240   1.199   6.604  0.00  0.00    +0.000 OA
ATOM     25  H   UNL     1      48.469   2.780   4.697  0.00  0.00    +0.000 HD
ATOM     26  H   UNL     1      47.264   3.911   5.298  0.00  0.00    +0.000 HD
ENDBRANCH  16  23
ENDBRANCH  15  19
ENDBRANCH   1  15
TORSDOF 5
ENDMDL
MODEL 7
REMARK VINA RESULT:    -7.531      2.338      3.511
REMARK INTER + INTRA:         -10.490
REMARK INTER:                  -9.962
REMARK INTRA:                  -0.529
REMARK UNBOUND:                -0.758
REMARK  Name = 
REMARK  5 active torsions:
REMARK  status: ('A' for Active; 'I' for Inactive)
REMARK    1  A    between atoms: C_2  and  C_4
REMARK    2  A    between atoms: C_7  and  O_8
REMARK    3  A    between atoms: O_8  and  C_9
REMARK    4  A    between atoms: C_9  and  C_10
REMARK    5  A    between atoms: C_14  and  C_15
REMARK                            x       y       z     vdW  Elec       q    Type
REMARK                         _______ _______ _______ _____ _____    ______ ____
ROOT
ATOM      1  C   UNL     1      43.775   5.115  10.937  0.00  0.00    +0.000 C 
ENDROOT
BRANCH   1   2
ATOM      2  C   UNL     1      44.836   5.965  11.582  0.00  0.00    +0.000 A 
ATOM      3  C   UNL     1      44.997   7.306  11.220  0.00  0.00    +0.000 A 
ATOM      4  C   UNL     1      45.964   8.085  11.848  0.00  0.00    +0.000 A 
ATOM      5  C   UNL     1      46.757   7.540  12.860  0.00  0.00    +0.000 A 
ATOM      6  C   UNL     1      46.593   6.208  13.284  0.00  0.00    +0.000 A 
ATOM      7  C   UNL     1      45.634   5.432  12.608  0.00  0.00    +0.000 A 
BRANCH   6   8
ATOM      8  C   UNL     1      47.330   5.665  14.449  0.00  0.00    +0.000 A 
ATOM      9  C   UNL     1      48.352   6.411  15.067  0.00  0.00    +0.000 A 
ATOM     10  C   UNL     1      48.999   5.961  16.224  0.00  0.00    +0.000 A 
ATOM     11  C   UNL     1      48.627   4.749  16.794  0.00  0.00    +0.000 A 
ATOM     12  C   UNL     1      47.633   3.993  16.190  0.00  0.00    +0.000 A 
ATOM     13  F   UNL     1      47.263   2.829  16.744  0.00  0.00    +0.000 F 
ATOM     14  C   UNL     1      46.996   4.429  15.030  0.00  0.00    +0.000 A 
ENDBRANCH   6   8
ENDBRANCH   1   2
BRANCH   1  15
ATOM     15  O   UNL     1      44.282   3.787  10.804  0.00  0.00    +0.000 OA
BRANCH  15  19
ATOM     16  C   UNL     1      46.458   2.779   7.519  0.00  0.00    +0.000 A 
ATOM     17  N   UNL     1      46.243   4.106   7.690  0.00  0.00    +0.000 NA
ATOM     18  C   UNL     1      45.519   4.439   8.779  0.00  0.00    +0.000 A 
ATOM     19  C   UNL     1      45.014   3.528   9.689  0.00  0.00    +0.000 A 
ATOM     20  C   UNL     1      45.303   2.207   9.404  0.00  0.00    +0.000 A 
ATOM     21  N   UNL     1      46.018   1.801   8.334  0.00  0.00    +0.000 NA
BRANCH  16  23
ATOM     22  N   UNL     1      47.084   3.155   5.185  0.00  0.00    +0.000 N 
ATOM     23  C   UNL     1      47.275   2.382   6.311  0.00  0.00    +0.000 C 
ATOM     24  O   UNL     1      48.064   1.447   6.291  0.00  0.00    +0.000 OA
ATOM     25  H   UNL     1      47.618   2.944   4.354  0.00  0.00    +0.000 HD
ATOM     26  H   UNL     1      46.444   3.940   5.206  0.00  0.00    +0.000 HD
ENDBRANCH  16  23
ENDBRANCH  15  19
ENDBRANCH   1  15
TORSDOF 5
ENDMDL
MODEL 8
REMARK VINA RESULT:    -6.785      5.100      7.764
REMARK INTER + INTRA:          -9.526
REMARK INTER:                  -8.844
REMARK INTRA:                  -0.682
REMARK UNBOUND:                -0.758
REMARK  Name = 
REMARK  5 active torsions:
REMARK  status: ('A' for Active; 'I' for Inactive)
REMARK    1  A    between atoms: C_2  and  C_4
REMARK    2  A    between atoms: C_7  and  O_8
REMARK    3  A    between atoms: O_8  and  C_9
REMARK    4  A    between atoms: C_9  and  C_10
REMARK    5  A    between atoms: C_14  and  C_15
REMARK                            x       y       z     vdW  Elec       q    Type
REMARK                         _______ _______ _______ _____ _____    ______ ____
ROOT
ATOM      1  C   UNL     1      48.598   7.538  13.350  0.00  0.00    +0.000 C 
ENDROOT
BRANCH   1   2
ATOM      2  C   UNL     1      47.257   7.470  12.670  0.00  0.00    +0.000 A 
ATOM      3  C   UNL     1      46.409   8.582  12.646  0.00  0.00    +0.000 A 
ATOM      4  C   UNL     1      45.185   8.509  11.987  0.00  0.00    +0.000 A 
ATOM      5  C   UNL     1      44.812   7.338  11.324  0.00  0.00    +0.000 A 
ATOM      6  C   UNL     1      45.659   6.214  11.287  0.00  0.00    +0.000 A 
ATOM      7  C   UNL     1      46.873   6.301  11.991  0.00  0.00    +0.000 A 
BRANCH   6   8
ATOM      8  C   UNL     1      45.334   5.021  10.470  0.00  0.00    +0.000 A 
ATOM      9  C   UNL     1      44.586   3.958  11.013  0.00  0.00    +0.000 A 
ATOM     10  C   UNL     1      44.188   2.864  10.237  0.00  0.00    +0.000 A 
ATOM     11  C   UNL     1      44.526   2.815   8.889  0.00  0.00    +0.000 A 
ATOM     12  C   UNL     1      45.276   3.846   8.341  0.00  0.00    +0.000 A 
ATOM     13  F   UNL     1      45.593   3.808   7.039  0.00  0.00    +0.000 F 
ATOM     14  C   UNL     1      45.688   4.931   9.113  0.00  0.00    +0.000 A 
ENDBRANCH   6   8
ENDBRANCH   1   2
BRANCH   1  15
ATOM     15  O   UNL     1      48.384   7.620  14.759  0.00  0.00    +0.000 OA
BRANCH  15  19
ATOM     16  C   UNL     1      49.194   4.299  16.964  0.00  0.00    +0.000 A 
ATOM     17  N   UNL     1      48.051   4.251  16.236  0.00  0.00    +0.000 NA
ATOM     18  C   UNL     1      47.782   5.353  15.507  0.00  0.00    +0.000 A 
ATOM     19  C   UNL     1      48.587   6.478  15.468  0.00  0.00    +0.000 A 
ATOM     20  C   UNL     1      49.723   6.403  16.251  0.00  0.00    +0.000 A 
ATOM     21  N   UNL     1      50.054   5.335  17.007  0.00  0.00    +0.000 NA
BRANCH  16  23
ATOM     22  N   UNL     1      48.892   2.988  19.006  0.00  0.00    +0.000 N 
ATOM     23  C   UNL     1      49.521   3.072  17.782  0.00  0.00    +0.000 C 
ATOM     24  O   UNL     1      50.286   2.187  17.420  0.00  0.00    +0.000 OA
ATOM     25  H   UNL     1      49.062   2.179  19.586  0.00  0.00    +0.000 HD
ATOM     26  H   UNL     1      48.245   3.710  19.299  0.00  0.00    +0.000 HD
ENDBRANCH  16  23
ENDBRANCH  15  19
ENDBRANCH   1  15
TORSDOF 5
ENDMDL
MODEL 9
REMARK VINA RESULT:    -6.724      5.652      8.446
REMARK INTER + INTRA:          -9.448
REMARK INTER:                  -8.711
REMARK INTRA:                  -0.737
REMARK UNBOUND:                -0.758
REMARK  Name = 
REMARK  5 active torsions:
REMARK  status: ('A' for Active; 'I' for Inactive)
REMARK    1  A    between atoms: C_2  and  C_4
REMARK    2  A    between atoms: C_7  and  O_8
REMARK    3  A    between atoms: O_8  and  C_9
REMARK    4  A    between atoms: C_9  and  C_10
REMARK    5  A    between atoms: C_14  and  C_15
REMARK                            x       y       z     vdW  Elec       q    Type
REMARK                         _______ _______ _______ _____ _____    ______ ____
ROOT
ATOM      1  C   UNL     1      48.354   7.476  13.967  0.00  0.00    +0.000 C 
ENDROOT
BRANCH   1   2
ATOM      2  C   UNL     1      47.092   7.570  13.152  0.00  0.00    +0.000 A 
ATOM      3  C   UNL     1      46.410   8.784  13.025  0.00  0.00    +0.000 A 
ATOM      4  C   UNL     1      45.261   8.858  12.244  0.00  0.00    +0.000 A 
ATOM      5  C   UNL     1      44.801   7.729  11.562  0.00  0.00    +0.000 A 
ATOM      6  C   UNL     1      45.486   6.501  11.628  0.00  0.00    +0.000 A 
ATOM      7  C   UNL     1      46.623   6.444  12.453  0.00  0.00    +0.000 A 
BRANCH   6   8
ATOM      8  C   UNL     1      45.087   5.340  10.798  0.00  0.00    +0.000 A 
ATOM      9  C   UNL     1      45.526   5.222   9.466  0.00  0.00    +0.000 A 
ATOM     10  C   UNL     1      45.240   4.091   8.692  0.00  0.00    +0.000 A 
ATOM     11  C   UNL     1      44.509   3.045   9.244  0.00  0.00    +0.000 A 
ATOM     12  C   UNL     1      44.055   3.151  10.550  0.00  0.00    +0.000 A 
ATOM     13  F   UNL     1      43.361   2.139  11.090  0.00  0.00    +0.000 F 
ATOM     14  C   UNL     1      44.324   4.281  11.321  0.00  0.00    +0.000 A 
ENDBRANCH   6   8
ENDBRANCH   1   2
BRANCH   1  15
ATOM     15  O   UNL     1      48.570   6.107  14.306  0.00  0.00    +0.000 OA
BRANCH  15  19
ATOM     16  C   UNL     1      48.404   5.348  18.299  0.00  0.00    +0.000 A 
ATOM     17  N   UNL     1      47.776   4.444  17.507  0.00  0.00    +0.000 NA
ATOM     18  C   UNL     1      47.830   4.697  16.183  0.00  0.00    +0.000 A 
ATOM     19  C   UNL     1      48.472   5.787  15.623  0.00  0.00    +0.000 A 
ATOM     20  C   UNL     1      49.074   6.634  16.534  0.00  0.00    +0.000 A 
ATOM     21  N   UNL     1      49.058   6.445  17.871  0.00  0.00    +0.000 NA
BRANCH  16  23
ATOM     22  N   UNL     1      48.428   3.751  20.151  0.00  0.00    +0.000 N 
ATOM     23  C   UNL     1      48.365   5.079  19.785  0.00  0.00    +0.000 C 
ATOM     24  O   UNL     1      48.285   5.951  20.640  0.00  0.00    +0.000 OA
ATOM     25  H   UNL     1      48.423   3.516  21.132  0.00  0.00    +0.000 HD
ATOM     26  H   UNL     1      48.512   3.030  19.444  0.00  0.00    +0.000 HD
ENDBRANCH  16  23
ENDBRANCH  15  19
ENDBRANCH   1  15
TORSDOF 5
ENDMDL
