MODEL 1
REMARK VINA RESULT:    -8.888      0.000      0.000
REMARK INTER + INTRA:         -12.516
REMARK INTER:                 -12.006
REMARK INTRA:                  -0.510
REMARK UNBOUND:                -0.510
REMARK  Name = 
REMARK  6 active torsions:
REMARK  status: ('A' for Active; 'I' for Inactive)
REMARK    1  A    between atoms: C_2  and  C_25
REMARK    2  A    between atoms: N_3  and  C_4
REMARK    3  A    between atoms: C_4  and  C_5
REMARK    4  A    between atoms: C_8  and  C_9
REMARK    5  A    between atoms: C_9  and  N_10
REMARK    6  A    between atoms: C_11  and  C_13
REMARK                            x       y       z     vdW  Elec       q    Type
REMARK                         _______ _______ _______ _____ _____    ______ ____
ROOT
ATOM      1  C   UNL     1      43.645   6.300  11.726  0.00  0.00    +0.000 C 
ATOM      2  C   UNL     1      44.183   5.820  13.084  0.00  0.00    +0.000 C 
ATOM      3  C   UNL     1      45.441   4.967  12.929  0.00  0.00    +0.000 C 
ATOM      4  C   UNL     1      46.555   5.686  12.149  0.00  0.00    +0.000 C 
ATOM      5  C   UNL     1      46.019   6.167  10.793  0.00  0.00    +0.000 C 
ATOM      6  C   UNL     1      44.755   7.017  10.937  0.00  0.00    +0.000 C 
ENDROOT
BRANCH   1   7
ATOM      7  C   UNL     1      43.049   5.138  10.908  0.00  0.00    +0.000 C 
BRANCH   7  10
ATOM      8  O   UNL     1      43.735   2.414  10.564  0.00  0.00    +0.000 OA
ATOM      9  C   UNL     1      44.260   3.261   9.854  0.00  0.00    +0.000 C 
ATOM     10  N   UNL     1      43.986   4.609   9.942  0.00  0.00    +0.000 N 
ATOM     11  H   UNL     1      44.534   5.227   9.351  0.00  0.00    +0.000 HD
BRANCH   9  12
ATOM     12  C   UNL     1      45.264   2.884   8.810  0.00  0.00    +0.000 A 
ATOM     13  C   UNL     1      45.739   3.870   7.953  0.00  0.00    +0.000 A 
ATOM     14  C   UNL     1      46.675   3.510   6.990  0.00  0.00    +0.000 A 
ATOM     15  C   UNL     1      47.102   2.189   6.919  0.00  0.00    +0.000 A 
ATOM     16  C   UNL     1      46.577   1.272   7.820  0.00  0.00    +0.000 A 
ATOM     17  N   UNL     1      45.662   1.580   8.767  0.00  0.00    +0.000 NA
ENDBRANCH   9  12
ENDBRANCH   7  10
ENDBRANCH   1   7
BRANCH   4  18
ATOM     18  C   UNL     1      47.161   6.862  12.936  0.00  0.00    +0.000 C 
BRANCH  18  19
ATOM     19  N   UNL     1      47.456   6.505  14.305  0.00  0.00    +0.000 N 
ATOM     20  C   UNL     1      48.720   6.592  14.825  0.00  0.00    +0.000 C 
ATOM     21  O   UNL     1      49.676   6.998  14.167  0.00  0.00    +0.000 OA
ATOM     22  H   UNL     1      46.737   6.009  14.822  0.00  0.00    +0.000 HD
BRANCH  20  23
ATOM     23  C   UNL     1      48.864   6.236  16.237  0.00  0.00    +0.000 A 
ATOM     24  C   UNL     1      49.405   7.163  17.120  0.00  0.00    +0.000 A 
ATOM     25  S   UNL     1      49.507   6.600  18.723  0.00  0.00    +0.000 S 
ATOM     26  C   UNL     1      48.875   5.082  18.288  0.00  0.00    +0.000 A 
ATOM     27  N   UNL     1      48.741   4.091  19.211  0.00  0.00    +0.000 NA
ATOM     28  C   UNL     1      48.296   2.975  18.734  0.00  0.00    +0.000 A 
ATOM     29  N   UNL     1      47.954   2.768  17.423  0.00  0.00    +0.000 N 
ATOM     30  C   UNL     1      47.976   3.771  16.482  0.00  0.00    +0.000 A 
ATOM     31  O   UNL     1      47.497   3.602  15.369  0.00  0.00    +0.000 OA
ATOM     32  C   UNL     1      48.544   5.020  16.946  0.00  0.00    +0.000 A 
ATOM     33  H   UNL     1      47.569   1.884  17.124  0.00  0.00    +0.000 HD
ENDBRANCH  20  23
ENDBRANCH  18  19
ENDBRANCH   4  18
TORSDOF 6
ENDMDL
MODEL 2
REMARK VINA RESULT:    -8.064      3.260      4.187
REMARK INTER + INTRA:         -11.403
REMARK INTER:                 -10.987
REMARK INTRA:                  -0.416
REMARK UNBOUND:                -0.510
REMARK  Name = 
REMARK  6 active torsions:
REMARK  status: ('A' for Active; 'I' for Inactive)
REMARK    1  A    between atoms: C_2  and  C_25
REMARK    2  A    between atoms: N_3  and  C_4
REMARK    3  A    between atoms: C_4  and  C_5
REMARK    4  A    between atoms: C_8  and  C_9
REMARK    5  A    between atoms: C_9  and  N_10
REMARK    6  A    between atoms: C_11  and  C_13
REMARK                            x       y       z     vdW  Elec       q    Type
REMARK                         _______ _______ _______ _____ _____    ______ ____
ROOT
ATOM      1  C   UNL     1      44.033   3.603  12.473  0.00  0.00    +0.000 C 
ATOM      2  C   UNL     1      45.496   4.013  12.242  0.00  0.00    +0.000 C 
ATOM      3  C   UNL     1      45.615   5.165  11.245  0.00  0.00    +0.000 C 
ATOM      4  C   UNL     1      44.786   6.394  11.655  0.00  0.00    +0.000 C 
ATOM      5  C   UNL     1      43.323   5.986  11.887  0.00  0.00    +0.000 C 
ATOM      6  C   UNL     1      43.194   4.828  12.879  0.00  0.00    +0.000 C 
ENDROOT
BRANCH   1   7
ATOM      7  C   UNL     1      43.434   2.911  11.233  0.00  0.00    +0.000 C 
BRANCH   7  10
ATOM      8  O   UNL     1      43.969   4.038   8.693  0.00  0.00    +0.000 OA
ATOM      9  C   UNL     1      44.633   3.086   9.081  0.00  0.00    +0.000 C 
ATOM     10  N   UNL     1      44.450   2.474  10.303  0.00  0.00    +0.000 N 
ATOM     11  H   UNL     1      45.011   1.648  10.489  0.00  0.00    +0.000 HD
BRANCH   9  12
ATOM     12  C   UNL     1      45.719   2.501   8.233  0.00  0.00    +0.000 A 
ATOM     13  C   UNL     1      46.415   3.337   7.368  0.00  0.00    +0.000 A 
ATOM     14  C   UNL     1      47.424   2.786   6.589  0.00  0.00    +0.000 A 
ATOM     15  C   UNL     1      47.703   1.428   6.702  0.00  0.00    +0.000 A 
ATOM     16  C   UNL     1      46.961   0.669   7.596  0.00  0.00    +0.000 A 
ATOM     17  N   UNL     1      45.967   1.166   8.368  0.00  0.00    +0.000 NA
ENDBRANCH   9  12
ENDBRANCH   7  10
ENDBRANCH   1   7
BRANCH   4  18
ATOM     18  C   UNL     1      45.352   7.099  12.900  0.00  0.00    +0.000 C 
BRANCH  18  19
ATOM     19  N   UNL     1      46.726   7.506  12.715  0.00  0.00    +0.000 N 
ATOM     20  C   UNL     1      47.079   8.817  12.531  0.00  0.00    +0.000 C 
ATOM     21  O   UNL     1      46.253   9.727  12.530  0.00  0.00    +0.000 OA
ATOM     22  H   UNL     1      47.409   6.777  12.539  0.00  0.00    +0.000 HD
BRANCH  20  23
ATOM     23  C   UNL     1      48.511   9.089  12.396  0.00  0.00    +0.000 A 
ATOM     24  C   UNL     1      48.957   9.881  11.346  0.00  0.00    +0.000 A 
ATOM     25  S   UNL     1      50.644  10.103  11.326  0.00  0.00    +0.000 S 
ATOM     26  C   UNL     1      50.845   9.113  12.694  0.00  0.00    +0.000 A 
ATOM     27  N   UNL     1      52.085   8.844  13.187  0.00  0.00    +0.000 NA
ATOM     28  C   UNL     1      52.095   8.038  14.197  0.00  0.00    +0.000 A 
ATOM     29  N   UNL     1      50.976   7.493  14.771  0.00  0.00    +0.000 N 
ATOM     30  C   UNL     1      49.702   7.820  14.371  0.00  0.00    +0.000 A 
ATOM     31  O   UNL     1      48.726   7.460  15.016  0.00  0.00    +0.000 OA
ATOM     32  C   UNL     1      49.636   8.656  13.190  0.00  0.00    +0.000 A 
ATOM     33  H   UNL     1      51.050   6.906  15.589  0.00  0.00    +0.000 HD
ENDBRANCH  20  23
ENDBRANCH  18  19
ENDBRANCH   4  18
TORSDOF 6
ENDMDL
MODEL 3
REMARK VINA RESULT:    -7.966      1.879      2.732
REMARK INTER + INTRA:         -11.270
REMARK INTER:                 -10.635
REMARK INTRA:                  -0.635
REMARK UNBOUND:                -0.510
REMARK  Name = 
REMARK  6 active torsions:
REMARK  status: ('A' for Active; 'I' for Inactive)
REMARK    1  A    between atoms: C_2  and  C_25
REMARK    2  A    between atoms: N_3  and  C_4
REMARK    3  A    between atoms: C_4  and  C_5
REMARK    4  A    between atoms: C_8  and  C_9
REMARK    5  A    between atoms: C_9  and  N_10
REMARK    6  A    between atoms: C_11  and  C_13
REMARK                            x       y       z     vdW  Elec       q    Type
REMARK                         _______ _______ _______ _____ _____    ______ ____
ROOT
ATOM      1  C   UNL     1      43.996   5.879  11.390  0.00  0.00    +0.000 C 
ATOM      2  C   UNL     1      43.536   5.649  12.839  0.00  0.00    +0.000 C 
ATOM      3  C   UNL     1      44.161   4.392  13.442  0.00  0.00    +0.000 C 
ATOM      4  C   UNL     1      45.698   4.401  13.377  0.00  0.00    +0.000 C 
ATOM      5  C   UNL     1      46.159   4.632  11.930  0.00  0.00    +0.000 C 
ATOM      6  C   UNL     1      45.534   5.885  11.315  0.00  0.00    +0.000 C 
ENDROOT
BRANCH   1   7
ATOM      7  C   UNL     1      43.401   4.829  10.431  0.00  0.00    +0.000 C 
BRANCH   7  10
ATOM      8  O   UNL     1      44.166   2.160   9.885  0.00  0.00    +0.000 OA
ATOM      9  C   UNL     1      44.664   3.073   9.239  0.00  0.00    +0.000 C 
ATOM     10  N   UNL     1      44.351   4.402   9.428  0.00  0.00    +0.000 N 
ATOM     11  H   UNL     1      44.878   5.078   8.884  0.00  0.00    +0.000 HD
BRANCH   9  12
ATOM     12  C   UNL     1      45.676   2.804   8.170  0.00  0.00    +0.000 A 
ATOM     13  C   UNL     1      46.293   1.559   8.132  0.00  0.00    +0.000 A 
ATOM     14  C   UNL     1      47.228   1.318   7.132  0.00  0.00    +0.000 A 
ATOM     15  C   UNL     1      47.510   2.320   6.211  0.00  0.00    +0.000 A 
ATOM     16  C   UNL     1      46.841   3.532   6.322  0.00  0.00    +0.000 A 
ATOM     17  N   UNL     1      45.929   3.808   7.282  0.00  0.00    +0.000 NA
ENDBRANCH   9  12
ENDBRANCH   7  10
ENDBRANCH   1   7
BRANCH   4  18
ATOM     18  C   UNL     1      46.321   5.450  14.315  0.00  0.00    +0.000 C 
BRANCH  18  19
ATOM     19  N   UNL     1      47.497   4.946  14.986  0.00  0.00    +0.000 N 
ATOM     20  C   UNL     1      47.416   4.162  16.107  0.00  0.00    +0.000 C 
ATOM     21  O   UNL     1      46.342   3.824  16.598  0.00  0.00    +0.000 OA
ATOM     22  H   UNL     1      48.393   5.340  14.717  0.00  0.00    +0.000 HD
BRANCH  20  23
ATOM     23  C   UNL     1      48.687   3.689  16.659  0.00  0.00    +0.000 A 
ATOM     24  C   UNL     1      49.002   2.339  16.580  0.00  0.00    +0.000 A 
ATOM     25  S   UNL     1      50.510   1.948  17.265  0.00  0.00    +0.000 S 
ATOM     26  C   UNL     1      50.777   3.561  17.733  0.00  0.00    +0.000 A 
ATOM     27  N   UNL     1      51.895   3.912  18.424  0.00  0.00    +0.000 NA
ATOM     28  C   UNL     1      51.946   5.159  18.759  0.00  0.00    +0.000 A 
ATOM     29  N   UNL     1      50.989   6.090  18.448  0.00  0.00    +0.000 N 
ATOM     30  C   UNL     1      49.898   5.800  17.663  0.00  0.00    +0.000 A 
ATOM     31  O   UNL     1      49.161   6.687  17.254  0.00  0.00    +0.000 OA
ATOM     32  C   UNL     1      49.751   4.398  17.329  0.00  0.00    +0.000 A 
ATOM     33  H   UNL     1      51.112   7.060  18.700  0.00  0.00    +0.000 HD
ENDBRANCH  20  23
ENDBRANCH  18  19
ENDBRANCH   4  18
TORSDOF 6
ENDMDL
MODEL 4
REMARK VINA RESULT:    -7.115      2.178      2.570
REMARK INTER + INTRA:         -10.120
REMARK INTER:                  -9.362
REMARK INTRA:                  -0.758
REMARK UNBOUND:                -0.510
REMARK  Name = 
REMARK  6 active torsions:
REMARK  status: ('A' for Active; 'I' for Inactive)
REMARK    1  A    between atoms: C_2  and  C_25
REMARK    2  A    between atoms: N_3  and  C_4
REMARK    3  A    between atoms: C_4  and  C_5
REMARK    4  A    between atoms: C_8  and  C_9
REMARK    5  A    between atoms: C_9  and  N_10
REMARK    6  A    between atoms: C_11  and  C_13
REMARK                            x       y       z     vdW  Elec       q    Type
REMARK                         _______ _______ _______ _____ _____    ______ ____
ROOT
ATOM      1  C   UNL     1      45.468   6.218  11.985  0.00  0.00    +0.000 C 
ATOM      2  C   UNL     1      46.908   5.829  12.360  0.00  0.00    +0.000 C 
ATOM      3  C   UNL     1      47.871   7.006  12.216  0.00  0.00    +0.000 C 
ATOM      4  C   UNL     1      47.434   8.236  13.029  0.00  0.00    +0.000 C 
ATOM      5  C   UNL     1      45.995   8.626  12.657  0.00  0.00    +0.000 C 
ATOM      6  C   UNL     1      45.023   7.452  12.792  0.00  0.00    +0.000 C 
ENDROOT
BRANCH   1   7
ATOM      7  C   UNL     1      45.321   6.467  10.471  0.00  0.00    +0.000 C 
BRANCH   7  10
ATOM      8  O   UNL     1      43.866   4.332   9.317  0.00  0.00    +0.000 OA
ATOM      9  C   UNL     1      45.079   4.386   9.163  0.00  0.00    +0.000 C 
ATOM     10  N   UNL     1      45.871   5.388   9.682  0.00  0.00    +0.000 N 
ATOM     11  H   UNL     1      46.874   5.292   9.551  0.00  0.00    +0.000 HD
BRANCH   9  12
ATOM     12  C   UNL     1      45.809   3.339   8.382  0.00  0.00    +0.000 A 
ATOM     13  C   UNL     1      46.582   3.734   7.296  0.00  0.00    +0.000 A 
ATOM     14  C   UNL     1      47.260   2.754   6.580  0.00  0.00    +0.000 A 
ATOM     15  C   UNL     1      47.144   1.425   6.971  0.00  0.00    +0.000 A 
ATOM     16  C   UNL     1      46.353   1.123   8.071  0.00  0.00    +0.000 A 
ATOM     17  N   UNL     1      45.674   2.045   8.791  0.00  0.00    +0.000 NA
ENDBRANCH   9  12
ENDBRANCH   7  10
ENDBRANCH   1   7
BRANCH   4  18
ATOM     18  C   UNL     1      47.556   8.013  14.547  0.00  0.00    +0.000 C 
BRANCH  18  19
ATOM     19  N   UNL     1      48.837   7.455  14.913  0.00  0.00    +0.000 N 
ATOM     20  C   UNL     1      49.240   7.346  16.218  0.00  0.00    +0.000 C 
ATOM     21  O   UNL     1      48.529   7.697  17.157  0.00  0.00    +0.000 OA
ATOM     22  H   UNL     1      49.514   7.315  14.169  0.00  0.00    +0.000 HD
BRANCH  20  23
ATOM     23  C   UNL     1      50.545   6.724  16.442  0.00  0.00    +0.000 A 
ATOM     24  C   UNL     1      51.679   7.303  15.885  0.00  0.00    +0.000 A 
ATOM     25  S   UNL     1      53.117   6.464  16.236  0.00  0.00    +0.000 S 
ATOM     26  C   UNL     1      52.274   5.272  17.107  0.00  0.00    +0.000 A 
ATOM     27  N   UNL     1      52.927   4.208  17.649  0.00  0.00    +0.000 NA
ATOM     28  C   UNL     1      52.158   3.354  18.240  0.00  0.00    +0.000 A 
ATOM     29  N   UNL     1      50.798   3.478  18.355  0.00  0.00    +0.000 N 
ATOM     30  C   UNL     1      50.113   4.585  17.914  0.00  0.00    +0.000 A 
ATOM     31  O   UNL     1      48.932   4.748  18.190  0.00  0.00    +0.000 OA
ATOM     32  C   UNL     1      50.916   5.535  17.172  0.00  0.00    +0.000 A 
ATOM     33  H   UNL     1      50.260   2.797  18.870  0.00  0.00    +0.000 HD
ENDBRANCH  20  23
ENDBRANCH  18  19
ENDBRANCH   4  18
TORSDOF 6
ENDMDL
MODEL 5
REMARK VINA RESULT:    -7.016      2.748      3.727
REMARK INTER + INTRA:          -9.986
REMARK INTER:                  -8.886
REMARK INTRA:                  -1.100
REMARK UNBOUND:                -0.510
REMARK  Name = 
REMARK  6 active torsions:
REMARK  status: ('A' for Active; 'I' for Inactive)
REMARK    1  A    between atoms: C_2  and  C_25
REMARK    2  A    between atoms: N_3  and  C_4
REMARK    3  A    between atoms: C_4  and  C_5
REMARK    4  A    between atoms: C_8  and  C_9
REMARK    5  A    between atoms: C_9  and  N_10
REMARK    6  A    between atoms: C_11  and  C_13
REMARK                            x       y       z     vdW  Elec       q    Type
REMARK                         _______ _______ _______ _____ _____    ______ ____
ROOT
ATOM      1  C   UNL     1      48.062   7.886  12.345  0.00  0.00    +0.000 C 
ATOM      2  C   UNL     1      48.260   9.088  13.283  0.00  0.00    +0.000 C 
ATOM      3  C   UNL     1      47.889   8.751  14.727  0.00  0.00    +0.000 C 
ATOM      4  C   UNL     1      48.656   7.533  15.269  0.00  0.00    +0.000 C 
ATOM      5  C   UNL     1      48.461   6.331  14.333  0.00  0.00    +0.000 C 
ATOM      6  C   UNL     1      48.823   6.661  12.883  0.00  0.00    +0.000 C 
ENDROOT
BRANCH   1   7
ATOM      7  C   UNL     1      46.570   7.562  12.142  0.00  0.00    +0.000 C 
BRANCH   7  10
ATOM      8  O   UNL     1      44.096   6.315  11.565  0.00  0.00    +0.000 OA
ATOM      9  C   UNL     1      45.120   5.889  11.047  0.00  0.00    +0.000 C 
ATOM     10  N   UNL     1      46.368   6.433  11.262  0.00  0.00    +0.000 N 
ATOM     11  H   UNL     1      47.156   5.953  10.836  0.00  0.00    +0.000 HD
BRANCH   9  12
ATOM     12  C   UNL     1      45.089   4.715  10.119  0.00  0.00    +0.000 A 
ATOM     13  C   UNL     1      45.690   4.834   8.871  0.00  0.00    +0.000 A 
ATOM     14  C   UNL     1      45.660   3.737   8.018  0.00  0.00    +0.000 A 
ATOM     15  C   UNL     1      45.038   2.567   8.440  0.00  0.00    +0.000 A 
ATOM     16  C   UNL     1      44.468   2.536   9.706  0.00  0.00    +0.000 A 
ATOM     17  N   UNL     1      44.471   3.582  10.563  0.00  0.00    +0.000 NA
ENDBRANCH   9  12
ENDBRANCH   7  10
ENDBRANCH   1   7
BRANCH   4  18
ATOM     18  C   UNL     1      50.154   7.821  15.470  0.00  0.00    +0.000 C 
BRANCH  18  19
ATOM     19  N   UNL     1      50.868   6.663  15.958  0.00  0.00    +0.000 N 
ATOM     20  C   UNL     1      51.229   6.530  17.273  0.00  0.00    +0.000 C 
ATOM     21  O   UNL     1      50.952   7.376  18.120  0.00  0.00    +0.000 OA
ATOM     22  H   UNL     1      51.262   6.033  15.267  0.00  0.00    +0.000 HD
BRANCH  20  23
ATOM     23  C   UNL     1      51.913   5.287  17.633  0.00  0.00    +0.000 A 
ATOM     24  C   UNL     1      53.205   5.345  18.141  0.00  0.00    +0.000 A 
ATOM     25  S   UNL     1      53.862   3.819  18.511  0.00  0.00    +0.000 S 
ATOM     26  C   UNL     1      52.462   3.023  17.964  0.00  0.00    +0.000 A 
ATOM     27  N   UNL     1      52.385   1.664  17.964  0.00  0.00    +0.000 NA
ATOM     28  C   UNL     1      51.286   1.192  17.475  0.00  0.00    +0.000 A 
ATOM     29  N   UNL     1      50.249   1.955  17.006  0.00  0.00    +0.000 N 
ATOM     30  C   UNL     1      50.243   3.328  17.084  0.00  0.00    +0.000 A 
ATOM     31  O   UNL     1      49.234   3.971  16.825  0.00  0.00    +0.000 OA
ATOM     32  C   UNL     1      51.485   3.912  17.549  0.00  0.00    +0.000 A 
ATOM     33  H   UNL     1      49.397   1.524  16.679  0.00  0.00    +0.000 HD
ENDBRANCH  20  23
ENDBRANCH  18  19
ENDBRANCH   4  18
TORSDOF 6
ENDMDL
MODEL 6
REMARK VINA RESULT:    -6.488      5.758      8.017
REMARK INTER + INTRA:          -9.273
REMARK INTER:                  -8.152
REMARK INTRA:                  -1.121
REMARK UNBOUND:                -0.510
REMARK  Name = 
REMARK  6 active torsions:
REMARK  status: ('A' for Active; 'I' for Inactive)
REMARK    1  A    between atoms: C_2  and  C_25
REMARK    2  A    between atoms: N_3  and  C_4
REMARK    3  A    between atoms: C_4  and  C_5
REMARK    4  A    between atoms: C_8  and  C_9
REMARK    5  A    between atoms: C_9  and  N_10
REMARK    6  A    between atoms: C_11  and  C_13
REMARK                            x       y       z     vdW  Elec       q    Type
REMARK                         _______ _______ _______ _____ _____    ______ ____
ROOT
ATOM      1  C   UNL     1      48.099   8.897  12.968  0.00  0.00    +0.000 C 
ATOM      2  C   UNL     1      49.204   9.729  13.638  0.00  0.00    +0.000 C 
ATOM      3  C   UNL     1      50.482   8.917  13.847  0.00  0.00    +0.000 C 
ATOM      4  C   UNL     1      51.012   8.298  12.542  0.00  0.00    +0.000 C 
ATOM      5  C   UNL     1      49.909   7.467  11.870  0.00  0.00    +0.000 C 
ATOM      6  C   UNL     1      48.623   8.269  11.663  0.00  0.00    +0.000 C 
ENDROOT
BRANCH   1   7
ATOM      7  C   UNL     1      47.546   7.816  13.916  0.00  0.00    +0.000 C 
BRANCH   7  10
ATOM      8  O   UNL     1      47.574   5.006  13.576  0.00  0.00    +0.000 OA
ATOM      9  C   UNL     1      46.615   5.652  13.172  0.00  0.00    +0.000 C 
ATOM     10  N   UNL     1      46.509   7.021  13.297  0.00  0.00    +0.000 N 
ATOM     11  H   UNL     1      45.702   7.459  12.863  0.00  0.00    +0.000 HD
BRANCH   9  12
ATOM     12  C   UNL     1      45.460   4.984  12.495  0.00  0.00    +0.000 A 
ATOM     13  C   UNL     1      44.936   5.561  11.344  0.00  0.00    +0.000 A 
ATOM     14  C   UNL     1      43.866   4.930  10.720  0.00  0.00    +0.000 A 
ATOM     15  C   UNL     1      43.362   3.753  11.263  0.00  0.00    +0.000 A 
ATOM     16  C   UNL     1      43.951   3.246  12.413  0.00  0.00    +0.000 A 
ATOM     17  N   UNL     1      44.989   3.831  13.053  0.00  0.00    +0.000 NA
ENDBRANCH   9  12
ENDBRANCH   7  10
ENDBRANCH   1   7
BRANCH   4  18
ATOM     18  C   UNL     1      51.559   9.355  11.567  0.00  0.00    +0.000 C 
BRANCH  18  19
ATOM     19  N   UNL     1      51.880   8.789  10.277  0.00  0.00    +0.000 N 
ATOM     20  C   UNL     1      52.918   9.254   9.514  0.00  0.00    +0.000 C 
ATOM     21  O   UNL     1      53.652  10.166   9.888  0.00  0.00    +0.000 OA
ATOM     22  H   UNL     1      51.201   8.158   9.863  0.00  0.00    +0.000 HD
BRANCH  20  23
ATOM     23  C   UNL     1      53.153   8.559   8.248  0.00  0.00    +0.000 A 
ATOM     24  C   UNL     1      53.129   9.283   7.062  0.00  0.00    +0.000 A 
ATOM     25  S   UNL     1      53.418   8.335   5.678  0.00  0.00    +0.000 S 
ATOM     26  C   UNL     1      53.540   6.916   6.608  0.00  0.00    +0.000 A 
ATOM     27  N   UNL     1      53.741   5.707   6.016  0.00  0.00    +0.000 NA
ATOM     28  C   UNL     1      53.763   4.708   6.836  0.00  0.00    +0.000 A 
ATOM     29  N   UNL     1      53.622   4.812   8.196  0.00  0.00    +0.000 N 
ATOM     30  C   UNL     1      53.522   6.022   8.842  0.00  0.00    +0.000 A 
ATOM     31  O   UNL     1      53.579   6.092  10.062  0.00  0.00    +0.000 OA
ATOM     32  C   UNL     1      53.410   7.168   7.963  0.00  0.00    +0.000 A 
ATOM     33  H   UNL     1      53.695   3.997   8.786  0.00  0.00    +0.000 HD
ENDBRANCH  20  23
ENDBRANCH  18  19
ENDBRANCH   4  18
TORSDOF 6
ENDMDL
