MODEL 1
REMARK VINA RESULT:    -8.314      0.000      0.000
REMARK INTER + INTRA:         -11.860
REMARK INTER:                 -11.230
REMARK INTRA:                  -0.631
REMARK UNBOUND:                -0.631
REMARK  Name = 
REMARK  6 active torsions:
REMARK  status: ('A' for Active; 'I' for Inactive)
REMARK    1  A    between atoms: C_2  and  C_18
REMARK    2  A    between atoms: N_3  and  C_4
REMARK    3  A    between atoms: C_4  and  C_5
REMARK    4  A    between atoms: C_8  and  C_9
REMARK    5  A    between atoms: C_9  and  N_10
REMARK    6  A    between atoms: N_10  and  C_11
REMARK                            x       y       z     vdW  Elec       q    Type
REMARK                         _______ _______ _______ _____ _____    ______ ____
ROOT
ATOM      1  C   UNL     1      46.325   7.133  12.740  0.00  0.00    +0.000 C 
ENDROOT
BRANCH   1   2
ATOM      2  C   UNL     1      45.817   5.943  11.968  0.00  0.00    +0.000 A 
ATOM      3  C   UNL     1      45.619   6.032  10.586  0.00  0.00    +0.000 A 
ATOM      4  C   UNL     1      45.181   4.922   9.858  0.00  0.00    +0.000 A 
ATOM      5  C   UNL     1      44.920   3.701  10.496  0.00  0.00    +0.000 A 
ATOM      6  C   UNL     1      45.077   3.625  11.887  0.00  0.00    +0.000 A 
ATOM      7  C   UNL     1      45.516   4.738  12.617  0.00  0.00    +0.000 A 
BRANCH   5   8
ATOM      8  C   UNL     1      44.457   2.500   9.695  0.00  0.00    +0.000 C 
BRANCH   8   9
ATOM      9  N   UNL     1      44.890   2.607   8.299  0.00  0.00    +0.000 NA
ATOM     10  H   UNL     1      44.556   3.497   7.931  0.00  0.00    +0.000 HD
BRANCH   9  11
ATOM     11  C   UNL     1      46.333   2.485   8.060  0.00  0.00    +0.000 C 
ATOM     12  C   UNL     1      46.905   3.417   6.991  0.00  0.00    +0.000 C 
ATOM     13  C   UNL     1      47.262   2.493   5.844  0.00  0.00    +0.000 C 
ATOM     14  N   UNL     1      47.733   1.265   6.497  0.00  0.00    +0.000 NA
ATOM     15  C   UNL     1      46.846   1.085   7.660  0.00  0.00    +0.000 C 
ATOM     16  H   UNL     1      48.683   1.427   6.835  0.00  0.00    +0.000 HD
ENDBRANCH   9  11
ENDBRANCH   8   9
ENDBRANCH   5   8
ENDBRANCH   1   2
BRANCH   1  19
ATOM     17  O   UNL     1      49.035   6.611  13.339  0.00  0.00    +0.000 OA
ATOM     18  C   UNL     1      48.201   6.550  14.238  0.00  0.00    +0.000 C 
ATOM     19  N   UNL     1      46.863   6.746  14.017  0.00  0.00    +0.000 N 
ATOM     20  H   UNL     1      46.240   6.849  14.808  0.00  0.00    +0.000 HD
BRANCH  18  21
ATOM     21  C   UNL     1      48.583   6.203  15.614  0.00  0.00    +0.000 A 
ATOM     22  C   UNL     1      49.365   7.078  16.356  0.00  0.00    +0.000 A 
ATOM     23  S   UNL     1      49.720   6.516  17.927  0.00  0.00    +0.000 S 
ATOM     24  C   UNL     1      48.808   5.100  17.686  0.00  0.00    +0.000 A 
ATOM     25  N   UNL     1      48.667   4.181  18.679  0.00  0.00    +0.000 NA
ATOM     26  C   UNL     1      47.917   3.175  18.374  0.00  0.00    +0.000 A 
ATOM     27  N   UNL     1      47.306   2.999  17.160  0.00  0.00    +0.000 N 
ATOM     28  C   UNL     1      47.485   3.856  16.103  0.00  0.00    +0.000 A 
ATOM     29  O   UNL     1      47.044   3.589  14.992  0.00  0.00    +0.000 OA
ATOM     30  C   UNL     1      48.271   5.039  16.412  0.00  0.00    +0.000 A 
ATOM     31  H   UNL     1      46.759   2.171  16.969  0.00  0.00    +0.000 HD
ENDBRANCH  18  21
ENDBRANCH   1  19
TORSDOF 6
ENDMDL
MODEL 2
REMARK VINA RESULT:    -7.598      4.093      8.612
REMARK INTER + INTRA:         -10.893
REMARK INTER:                 -10.004
REMARK INTRA:                  -0.890
REMARK UNBOUND:                -0.631
REMARK  Name = 
REMARK  6 active torsions:
REMARK  status: ('A' for Active; 'I' for Inactive)
REMARK    1  A    between atoms: C_2  and  C_18
REMARK    2  A    between atoms: N_3  and  C_4
REMARK    3  A    between atoms: C_4  and  C_5
REMARK    4  A    between atoms: C_8  and  C_9
REMARK    5  A    between atoms: C_9  and  N_10
REMARK    6  A    between atoms: N_10  and  C_11
REMARK                            x       y       z     vdW  Elec       q    Type
REMARK                         _______ _______ _______ _____ _____    ______ ____
ROOT
ATOM      1  C   UNL     1      47.171   3.391  16.904  0.00  0.00    +0.000 C 
ENDROOT
BRANCH   1   2
ATOM      2  C   UNL     1      48.657   3.312  17.137  0.00  0.00    +0.000 A 
ATOM      3  C   UNL     1      49.370   4.451  17.528  0.00  0.00    +0.000 A 
ATOM      4  C   UNL     1      50.744   4.378  17.780  0.00  0.00    +0.000 A 
ATOM      5  C   UNL     1      51.438   3.168  17.637  0.00  0.00    +0.000 A 
ATOM      6  C   UNL     1      50.730   2.038  17.204  0.00  0.00    +0.000 A 
ATOM      7  C   UNL     1      49.354   2.111  16.952  0.00  0.00    +0.000 A 
BRANCH   5   8
ATOM      8  C   UNL     1      52.924   3.097  17.924  0.00  0.00    +0.000 C 
BRANCH   8   9
ATOM      9  N   UNL     1      53.223   2.008  18.858  0.00  0.00    +0.000 NA
ATOM     10  H   UNL     1      52.361   1.492  19.029  0.00  0.00    +0.000 HD
BRANCH   9  11
ATOM     11  C   UNL     1      54.281   1.078  18.447  0.00  0.00    +0.000 C 
ATOM     12  C   UNL     1      54.785   1.244  17.013  0.00  0.00    +0.000 C 
ATOM     13  C   UNL     1      54.274   0.011  16.294  0.00  0.00    +0.000 C 
ATOM     14  N   UNL     1      54.360  -1.057  17.297  0.00  0.00    +0.000 NA
ATOM     15  C   UNL     1      53.956  -0.426  18.565  0.00  0.00    +0.000 C 
ATOM     16  H   UNL     1      55.336  -1.347  17.374  0.00  0.00    +0.000 HD
ENDBRANCH   9  11
ENDBRANCH   8   9
ENDBRANCH   5   8
ENDBRANCH   1   2
BRANCH   1  19
ATOM     17  O   UNL     1      47.259   3.048  14.102  0.00  0.00    +0.000 OA
ATOM     18  C   UNL     1      46.871   4.118  14.562  0.00  0.00    +0.000 C 
ATOM     19  N   UNL     1      46.842   4.375  15.907  0.00  0.00    +0.000 N 
ATOM     20  H   UNL     1      46.364   5.201  16.244  0.00  0.00    +0.000 HD
BRANCH  18  21
ATOM     21  C   UNL     1      46.461   5.225  13.685  0.00  0.00    +0.000 A 
ATOM     22  C   UNL     1      47.335   6.276  13.446  0.00  0.00    +0.000 A 
ATOM     23  S   UNL     1      46.698   7.475  12.414  0.00  0.00    +0.000 S 
ATOM     24  C   UNL     1      45.245   6.612  12.217  0.00  0.00    +0.000 A 
ATOM     25  N   UNL     1      44.257   7.079  11.407  0.00  0.00    +0.000 NA
ATOM     26  C   UNL     1      43.227   6.306  11.319  0.00  0.00    +0.000 A 
ATOM     27  N   UNL     1      43.090   5.113  11.979  0.00  0.00    +0.000 N 
ATOM     28  C   UNL     1      44.023   4.641  12.869  0.00  0.00    +0.000 A 
ATOM     29  O   UNL     1      43.800   3.647  13.549  0.00  0.00    +0.000 OA
ATOM     30  C   UNL     1      45.231   5.443  12.958  0.00  0.00    +0.000 A 
ATOM     31  H   UNL     1      42.243   4.568  11.897  0.00  0.00    +0.000 HD
ENDBRANCH  18  21
ENDBRANCH   1  19
TORSDOF 6
ENDMDL
MODEL 3
REMARK VINA RESULT:    -7.530      1.735      2.464
REMARK INTER + INTRA:         -10.802
REMARK INTER:                 -10.045
REMARK INTRA:                  -0.757
REMARK UNBOUND:                -0.631
REMARK  Name = 
REMARK  6 active torsions:
REMARK  status: ('A' for Active; 'I' for Inactive)
REMARK    1  A    between atoms: C_2  and  C_18
REMARK    2  A    between atoms: N_3  and  C_4
REMARK    3  A    between atoms: C_4  and  C_5
REMARK    4  A    between atoms: C_8  and  C_9
REMARK    5  A    between atoms: C_9  and  N_10
REMARK    6  A    between atoms: N_10  and  C_11
REMARK                            x       y       z     vdW  Elec       q    Type
REMARK                         _______ _______ _______ _____ _____    ______ ____
ROOT
ATOM      1  C   UNL     1      48.142   7.238  13.680  0.00  0.00    +0.000 C 
ENDROOT
BRANCH   1   2
ATOM      2  C   UNL     1      47.159   6.305  13.021  0.00  0.00    +0.000 A 
ATOM      3  C   UNL     1      46.913   5.041  13.568  0.00  0.00    +0.000 A 
ATOM      4  C   UNL     1      45.977   4.183  12.982  0.00  0.00    +0.000 A 
ATOM      5  C   UNL     1      45.273   4.565  11.830  0.00  0.00    +0.000 A 
ATOM      6  C   UNL     1      45.552   5.814  11.259  0.00  0.00    +0.000 A 
ATOM      7  C   UNL     1      46.490   6.674  11.846  0.00  0.00    +0.000 A 
BRANCH   5   8
ATOM      8  C   UNL     1      44.252   3.632  11.211  0.00  0.00    +0.000 C 
BRANCH   8   9
ATOM      9  N   UNL     1      44.910   2.497  10.559  0.00  0.00    +0.000 NA
ATOM     10  H   UNL     1      44.560   1.640  10.985  0.00  0.00    +0.000 HD
BRANCH   9  11
ATOM     11  C   UNL     1      44.765   2.417   9.100  0.00  0.00    +0.000 C 
ATOM     12  C   UNL     1      45.809   1.564   8.380  0.00  0.00    +0.000 C 
ATOM     13  C   UNL     1      46.653   2.569   7.622  0.00  0.00    +0.000 C 
ATOM     14  N   UNL     1      45.700   3.601   7.199  0.00  0.00    +0.000 NA
ATOM     15  C   UNL     1      44.776   3.758   8.336  0.00  0.00    +0.000 C 
ATOM     16  H   UNL     1      45.174   3.244   6.400  0.00  0.00    +0.000 HD
ENDBRANCH   9  11
ENDBRANCH   8   9
ENDBRANCH   5   8
ENDBRANCH   1   2
BRANCH   1  19
ATOM     17  O   UNL     1      50.269   6.709  15.461  0.00  0.00    +0.000 OA
ATOM     18  C   UNL     1      49.152   6.943  15.915  0.00  0.00    +0.000 C 
ATOM     19  N   UNL     1      48.062   7.165  15.115  0.00  0.00    +0.000 N 
ATOM     20  H   UNL     1      47.206   7.515  15.527  0.00  0.00    +0.000 HD
BRANCH  18  21
ATOM     21  C   UNL     1      48.899   6.945  17.363  0.00  0.00    +0.000 A 
ATOM     22  C   UNL     1      48.572   8.131  18.006  0.00  0.00    +0.000 A 
ATOM     23  S   UNL     1      48.318   7.954  19.683  0.00  0.00    +0.000 S 
ATOM     24  C   UNL     1      48.596   6.277  19.604  0.00  0.00    +0.000 A 
ATOM     25  N   UNL     1      48.497   5.498  20.714  0.00  0.00    +0.000 NA
ATOM     26  C   UNL     1      48.694   4.240  20.504  0.00  0.00    +0.000 A 
ATOM     27  N   UNL     1      48.995   3.692  19.285  0.00  0.00    +0.000 N 
ATOM     28  C   UNL     1      49.187   4.447  18.154  0.00  0.00    +0.000 A 
ATOM     29  O   UNL     1      49.598   3.938  17.119  0.00  0.00    +0.000 OA
ATOM     30  C   UNL     1      48.915   5.864  18.322  0.00  0.00    +0.000 A 
ATOM     31  H   UNL     1      49.175   2.702  19.190  0.00  0.00    +0.000 HD
ENDBRANCH  18  21
ENDBRANCH   1  19
TORSDOF 6
ENDMDL
MODEL 4
REMARK VINA RESULT:    -7.322      2.920      3.694
REMARK INTER + INTRA:         -10.521
REMARK INTER:                  -9.211
REMARK INTRA:                  -1.310
REMARK UNBOUND:                -0.631
REMARK  Name = 
REMARK  6 active torsions:
REMARK  status: ('A' for Active; 'I' for Inactive)
REMARK    1  A    between atoms: C_2  and  C_18
REMARK    2  A    between atoms: N_3  and  C_4
REMARK    3  A    between atoms: C_4  and  C_5
REMARK    4  A    between atoms: C_8  and  C_9
REMARK    5  A    between atoms: C_9  and  N_10
REMARK    6  A    between atoms: N_10  and  C_11
REMARK                            x       y       z     vdW  Elec       q    Type
REMARK                         _______ _______ _______ _____ _____    ______ ____
ROOT
ATOM      1  C   UNL     1      48.834   7.850  13.174  0.00  0.00    +0.000 C 
ENDROOT
BRANCH   1   2
ATOM      2  C   UNL     1      47.446   7.657  12.620  0.00  0.00    +0.000 A 
ATOM      3  C   UNL     1      47.202   6.668  11.661  0.00  0.00    +0.000 A 
ATOM      4  C   UNL     1      45.910   6.459  11.168  0.00  0.00    +0.000 A 
ATOM      5  C   UNL     1      44.835   7.242  11.614  0.00  0.00    +0.000 A 
ATOM      6  C   UNL     1      45.090   8.261  12.542  0.00  0.00    +0.000 A 
ATOM      7  C   UNL     1      46.384   8.470  13.037  0.00  0.00    +0.000 A 
BRANCH   5   8
ATOM      8  C   UNL     1      43.437   7.000  11.082  0.00  0.00    +0.000 C 
BRANCH   8   9
ATOM      9  N   UNL     1      43.339   5.678  10.458  0.00  0.00    +0.000 NA
ATOM     10  H   UNL     1      44.249   5.448  10.058  0.00  0.00    +0.000 HD
BRANCH   9  11
ATOM     11  C   UNL     1      42.892   4.584  11.328  0.00  0.00    +0.000 C 
ATOM     12  C   UNL     1      42.955   4.868  12.829  0.00  0.00    +0.000 C 
ATOM     13  C   UNL     1      44.078   3.982  13.328  0.00  0.00    +0.000 C 
ATOM     14  N   UNL     1      43.971   2.764  12.516  0.00  0.00    +0.000 NA
ATOM     15  C   UNL     1      43.623   3.235  11.164  0.00  0.00    +0.000 C 
ATOM     16  H   UNL     1      43.195   2.206  12.875  0.00  0.00    +0.000 HD
ENDBRANCH   9  11
ENDBRANCH   8   9
ENDBRANCH   5   8
ENDBRANCH   1   2
BRANCH   1  19
ATOM     17  O   UNL     1      48.684   8.585  15.897  0.00  0.00    +0.000 OA
ATOM     18  C   UNL     1      48.942   7.421  15.604  0.00  0.00    +0.000 C 
ATOM     19  N   UNL     1      49.076   6.998  14.308  0.00  0.00    +0.000 N 
ATOM     20  H   UNL     1      49.124   6.006  14.112  0.00  0.00    +0.000 HD
BRANCH  18  21
ATOM     21  C   UNL     1      49.182   6.406  16.641  0.00  0.00    +0.000 A 
ATOM     22  C   UNL     1      50.131   6.638  17.627  0.00  0.00    +0.000 A 
ATOM     23  S   UNL     1      50.287   5.358  18.743  0.00  0.00    +0.000 S 
ATOM     24  C   UNL     1      49.062   4.463  17.972  0.00  0.00    +0.000 A 
ATOM     25  N   UNL     1      48.668   3.255  18.455  0.00  0.00    +0.000 NA
ATOM     26  C   UNL     1      47.704   2.704  17.796  0.00  0.00    +0.000 A 
ATOM     27  N   UNL     1      47.107   3.248  16.689  0.00  0.00    +0.000 N 
ATOM     28  C   UNL     1      47.525   4.424  16.117  0.00  0.00    +0.000 A 
ATOM     29  O   UNL     1      47.067   4.803  15.046  0.00  0.00    +0.000 OA
ATOM     30  C   UNL     1      48.567   5.116  16.856  0.00  0.00    +0.000 A 
ATOM     31  H   UNL     1      46.379   2.750  16.194  0.00  0.00    +0.000 HD
ENDBRANCH  18  21
ENDBRANCH   1  19
TORSDOF 6
ENDMDL
MODEL 5
REMARK VINA RESULT:    -7.230      2.285      3.940
REMARK INTER + INTRA:         -10.396
REMARK INTER:                  -9.694
REMARK INTRA:                  -0.702
REMARK UNBOUND:                -0.631
REMARK  Name = 
REMARK  6 active torsions:
REMARK  status: ('A' for Active; 'I' for Inactive)
REMARK    1  A    between atoms: C_2  and  C_18
REMARK    2  A    between atoms: N_3  and  C_4
REMARK    3  A    between atoms: C_4  and  C_5
REMARK    4  A    between atoms: C_8  and  C_9
REMARK    5  A    between atoms: C_9  and  N_10
REMARK    6  A    between atoms: N_10  and  C_11
REMARK                            x       y       z     vdW  Elec       q    Type
REMARK                         _______ _______ _______ _____ _____    ______ ____
ROOT
ATOM      1  C   UNL     1      46.418   5.065  14.091  0.00  0.00    +0.000 C 
ENDROOT
BRANCH   1   2
ATOM      2  C   UNL     1      45.918   4.767  12.701  0.00  0.00    +0.000 A 
ATOM      3  C   UNL     1      45.341   3.526  12.412  0.00  0.00    +0.000 A 
ATOM      4  C   UNL     1      44.844   3.254  11.133  0.00  0.00    +0.000 A 
ATOM      5  C   UNL     1      44.923   4.213  10.112  0.00  0.00    +0.000 A 
ATOM      6  C   UNL     1      45.540   5.439  10.393  0.00  0.00    +0.000 A 
ATOM      7  C   UNL     1      46.038   5.712  11.673  0.00  0.00    +0.000 A 
BRANCH   5   8
ATOM      8  C   UNL     1      44.369   3.912   8.734  0.00  0.00    +0.000 C 
BRANCH   8   9
ATOM      9  N   UNL     1      44.871   2.627   8.239  0.00  0.00    +0.000 NA
ATOM     10  H   UNL     1      44.359   2.393   7.389  0.00  0.00    +0.000 HD
BRANCH   9  11
ATOM     11  C   UNL     1      46.314   2.553   7.983  0.00  0.00    +0.000 C 
ATOM     12  C   UNL     1      46.839   3.489   6.893  0.00  0.00    +0.000 C 
ATOM     13  C   UNL     1      47.213   2.561   5.755  0.00  0.00    +0.000 C 
ATOM     14  N   UNL     1      47.736   1.361   6.418  0.00  0.00    +0.000 NA
ATOM     15  C   UNL     1      46.871   1.167   7.595  0.00  0.00    +0.000 C 
ATOM     16  H   UNL     1      48.684   1.561   6.741  0.00  0.00    +0.000 HD
ENDBRANCH   9  11
ENDBRANCH   8   9
ENDBRANCH   5   8
ENDBRANCH   1   2
BRANCH   1  19
ATOM     17  O   UNL     1      48.530   5.482  15.919  0.00  0.00    +0.000 OA
ATOM     18  C   UNL     1      48.372   6.276  14.996  0.00  0.00    +0.000 C 
ATOM     19  N   UNL     1      47.345   6.166  14.096  0.00  0.00    +0.000 N 
ATOM     20  H   UNL     1      47.350   6.741  13.263  0.00  0.00    +0.000 HD
BRANCH  18  21
ATOM     21  C   UNL     1      49.252   7.441  14.829  0.00  0.00    +0.000 A 
ATOM     22  C   UNL     1      50.578   7.370  15.238  0.00  0.00    +0.000 A 
ATOM     23  S   UNL     1      51.453   8.811  14.978  0.00  0.00    +0.000 S 
ATOM     24  C   UNL     1      50.103   9.569  14.272  0.00  0.00    +0.000 A 
ATOM     25  N   UNL     1      50.185  10.837  13.788  0.00  0.00    +0.000 NA
ATOM     26  C   UNL     1      49.099  11.275  13.245  0.00  0.00    +0.000 A 
ATOM     27  N   UNL     1      47.932  10.562  13.155  0.00  0.00    +0.000 N 
ATOM     28  C   UNL     1      47.777   9.312  13.701  0.00  0.00    +0.000 A 
ATOM     29  O   UNL     1      46.680   8.767  13.729  0.00  0.00    +0.000 OA
ATOM     30  C   UNL     1      48.989   8.747  14.269  0.00  0.00    +0.000 A 
ATOM     31  H   UNL     1      47.102  10.973  12.749  0.00  0.00    +0.000 HD
ENDBRANCH  18  21
ENDBRANCH   1  19
TORSDOF 6
ENDMDL
MODEL 6
REMARK VINA RESULT:    -7.170      2.857      8.490
REMARK INTER + INTRA:         -10.315
REMARK INTER:                  -9.073
REMARK INTRA:                  -1.241
REMARK UNBOUND:                -0.631
REMARK  Name = 
REMARK  6 active torsions:
REMARK  status: ('A' for Active; 'I' for Inactive)
REMARK    1  A    between atoms: C_2  and  C_18
REMARK    2  A    between atoms: N_3  and  C_4
REMARK    3  A    between atoms: C_4  and  C_5
REMARK    4  A    between atoms: C_8  and  C_9
REMARK    5  A    between atoms: C_9  and  N_10
REMARK    6  A    between atoms: N_10  and  C_11
REMARK                            x       y       z     vdW  Elec       q    Type
REMARK                         _______ _______ _______ _____ _____    ______ ____
ROOT
ATOM      1  C   UNL     1      47.583   7.720  12.019  0.00  0.00    +0.000 C 
ENDROOT
BRANCH   1   2
ATOM      2  C   UNL     1      48.048   7.807  13.449  0.00  0.00    +0.000 A 
ATOM      3  C   UNL     1      47.702   8.911  14.236  0.00  0.00    +0.000 A 
ATOM      4  C   UNL     1      48.101   8.982  15.574  0.00  0.00    +0.000 A 
ATOM      5  C   UNL     1      48.864   7.957  16.153  0.00  0.00    +0.000 A 
ATOM      6  C   UNL     1      49.246   6.873  15.351  0.00  0.00    +0.000 A 
ATOM      7  C   UNL     1      48.846   6.801  14.011  0.00  0.00    +0.000 A 
BRANCH   5   8
ATOM      8  C   UNL     1      49.280   8.039  17.608  0.00  0.00    +0.000 C 
BRANCH   8   9
ATOM      9  N   UNL     1      49.835   6.762  18.065  0.00  0.00    +0.000 NA
ATOM     10  H   UNL     1      50.646   6.960  18.649  0.00  0.00    +0.000 HD
BRANCH   9  11
ATOM     11  C   UNL     1      48.911   5.878  18.785  0.00  0.00    +0.000 C 
ATOM     12  C   UNL     1      48.679   4.507  18.149  0.00  0.00    +0.000 C 
ATOM     13  C   UNL     1      47.251   4.569  17.645  0.00  0.00    +0.000 C 
ATOM     14  N   UNL     1      46.542   5.368  18.652  0.00  0.00    +0.000 NA
ATOM     15  C   UNL     1      47.491   6.428  19.036  0.00  0.00    +0.000 C 
ATOM     16  H   UNL     1      46.368   4.777  19.466  0.00  0.00    +0.000 HD
ENDBRANCH   9  11
ENDBRANCH   8   9
ENDBRANCH   5   8
ENDBRANCH   1   2
BRANCH   1  19
ATOM     17  O   UNL     1      44.786   7.363  12.182  0.00  0.00    +0.000 OA
ATOM     18  C   UNL     1      45.490   6.421  11.831  0.00  0.00    +0.000 C 
ATOM     19  N   UNL     1      46.856   6.503  11.771  0.00  0.00    +0.000 N 
ATOM     20  H   UNL     1      47.379   5.761  11.322  0.00  0.00    +0.000 HD
BRANCH  18  21
ATOM     21  C   UNL     1      44.908   5.110  11.505  0.00  0.00    +0.000 A 
ATOM     22  C   UNL     1      44.165   4.427  12.458  0.00  0.00    +0.000 A 
ATOM     23  S   UNL     1      43.571   2.924  11.915  0.00  0.00    +0.000 S 
ATOM     24  C   UNL     1      44.251   3.149  10.372  0.00  0.00    +0.000 A 
ATOM     25  N   UNL     1      44.081   2.225   9.390  0.00  0.00    +0.000 NA
ATOM     26  C   UNL     1      44.616   2.541   8.258  0.00  0.00    +0.000 A 
ATOM     27  N   UNL     1      45.319   3.694   8.025  0.00  0.00    +0.000 N 
ATOM     28  C   UNL     1      45.587   4.616   9.006  0.00  0.00    +0.000 A 
ATOM     29  O   UNL     1      46.342   5.558   8.797  0.00  0.00    +0.000 OA
ATOM     30  C   UNL     1      44.954   4.339  10.284  0.00  0.00    +0.000 A 
ATOM     31  H   UNL     1      45.746   3.868   7.126  0.00  0.00    +0.000 HD
ENDBRANCH  18  21
ENDBRANCH   1  19
TORSDOF 6
ENDMDL
MODEL 7
REMARK VINA RESULT:    -7.138      2.503      3.326
REMARK INTER + INTRA:         -10.272
REMARK INTER:                  -9.265
REMARK INTRA:                  -1.007
REMARK UNBOUND:                -0.631
REMARK  Name = 
REMARK  6 active torsions:
REMARK  status: ('A' for Active; 'I' for Inactive)
REMARK    1  A    between atoms: C_2  and  C_18
REMARK    2  A    between atoms: N_3  and  C_4
REMARK    3  A    between atoms: C_4  and  C_5
REMARK    4  A    between atoms: C_8  and  C_9
REMARK    5  A    between atoms: C_9  and  N_10
REMARK    6  A    between atoms: N_10  and  C_11
REMARK                            x       y       z     vdW  Elec       q    Type
REMARK                         _______ _______ _______ _____ _____    ______ ____
ROOT
ATOM      1  C   UNL     1      48.240   7.039  13.829  0.00  0.00    +0.000 C 
ENDROOT
BRANCH   1   2
ATOM      2  C   UNL     1      47.192   6.304  13.035  0.00  0.00    +0.000 A 
ATOM      3  C   UNL     1      46.891   6.702  11.728  0.00  0.00    +0.000 A 
ATOM      4  C   UNL     1      45.944   6.003  10.973  0.00  0.00    +0.000 A 
ATOM      5  C   UNL     1      45.268   4.898  11.511  0.00  0.00    +0.000 A 
ATOM      6  C   UNL     1      45.539   4.528  12.835  0.00  0.00    +0.000 A 
ATOM      7  C   UNL     1      46.489   5.227  13.591  0.00  0.00    +0.000 A 
BRANCH   5   8
ATOM      8  C   UNL     1      44.252   4.141  10.679  0.00  0.00    +0.000 C 
BRANCH   8   9
ATOM      9  N   UNL     1      44.220   4.649   9.305  0.00  0.00    +0.000 NA
ATOM     10  H   UNL     1      44.851   5.449   9.249  0.00  0.00    +0.000 HD
BRANCH   9  11
ATOM     11  C   UNL     1      44.551   3.684   8.251  0.00  0.00    +0.000 C 
ATOM     12  C   UNL     1      44.504   2.213   8.665  0.00  0.00    +0.000 C 
ATOM     13  C   UNL     1      45.957   1.779   8.664  0.00  0.00    +0.000 C 
ATOM     14  N   UNL     1      46.555   2.513   7.542  0.00  0.00    +0.000 NA
ATOM     15  C   UNL     1      45.932   3.847   7.581  0.00  0.00    +0.000 C 
ATOM     16  H   UNL     1      46.280   2.051   6.674  0.00  0.00    +0.000 HD
ENDBRANCH   9  11
ENDBRANCH   8   9
ENDBRANCH   5   8
ENDBRANCH   1   2
BRANCH   1  19
ATOM     17  O   UNL     1      50.138   6.257  15.769  0.00  0.00    +0.000 OA
ATOM     18  C   UNL     1      49.006   6.566  16.130  0.00  0.00    +0.000 C 
ATOM     19  N   UNL     1      48.018   6.912  15.245  0.00  0.00    +0.000 N 
ATOM     20  H   UNL     1      47.158   7.315  15.594  0.00  0.00    +0.000 HD
BRANCH  18  21
ATOM     21  C   UNL     1      48.616   6.527  17.547  0.00  0.00    +0.000 A 
ATOM     22  C   UNL     1      48.724   5.341  18.261  0.00  0.00    +0.000 A 
ATOM     23  S   UNL     1      48.225   5.472  19.886  0.00  0.00    +0.000 S 
ATOM     24  C   UNL     1      47.884   7.130  19.706  0.00  0.00    +0.000 A 
ATOM     25  N   UNL     1      47.442   7.872  20.756  0.00  0.00    +0.000 NA
ATOM     26  C   UNL     1      47.261   9.122  20.489  0.00  0.00    +0.000 A 
ATOM     27  N   UNL     1      47.468   9.694  19.261  0.00  0.00    +0.000 N 
ATOM     28  C   UNL     1      47.834   8.971  18.153  0.00  0.00    +0.000 A 
ATOM     29  O   UNL     1      47.867   9.489  17.044  0.00  0.00    +0.000 OA
ATOM     30  C   UNL     1      48.112   7.568  18.413  0.00  0.00    +0.000 A 
ATOM     31  H   UNL     1      47.274  10.674  19.105  0.00  0.00    +0.000 HD
ENDBRANCH  18  21
ENDBRANCH   1  19
TORSDOF 6
ENDMDL
MODEL 8
REMARK VINA RESULT:    -7.052      3.250      8.026
REMARK INTER + INTRA:         -10.156
REMARK INTER:                  -8.929
REMARK INTRA:                  -1.227
REMARK UNBOUND:                -0.631
REMARK  Name = 
REMARK  6 active torsions:
REMARK  status: ('A' for Active; 'I' for Inactive)
REMARK    1  A    between atoms: C_2  and  C_18
REMARK    2  A    between atoms: N_3  and  C_4
REMARK    3  A    between atoms: C_4  and  C_5
REMARK    4  A    between atoms: C_8  and  C_9
REMARK    5  A    between atoms: C_9  and  N_10
REMARK    6  A    between atoms: N_10  and  C_11
REMARK                            x       y       z     vdW  Elec       q    Type
REMARK                         _______ _______ _______ _____ _____    ______ ____
ROOT
ATOM      1  C   UNL     1      48.249   8.216  11.986  0.00  0.00    +0.000 C 
ENDROOT
BRANCH   1   2
ATOM      2  C   UNL     1      48.502   8.072  13.465  0.00  0.00    +0.000 A 
ATOM      3  C   UNL     1      49.411   7.118  13.935  0.00  0.00    +0.000 A 
ATOM      4  C   UNL     1      49.676   7.002  15.303  0.00  0.00    +0.000 A 
ATOM      5  C   UNL     1      49.031   7.830  16.233  0.00  0.00    +0.000 A 
ATOM      6  C   UNL     1      48.088   8.755  15.764  0.00  0.00    +0.000 A 
ATOM      7  C   UNL     1      47.823   8.872  14.394  0.00  0.00    +0.000 A 
BRANCH   5   8
ATOM      8  C   UNL     1      49.335   7.704  17.712  0.00  0.00    +0.000 C 
BRANCH   8   9
ATOM      9  N   UNL     1      49.915   6.393  18.016  0.00  0.00    +0.000 NA
ATOM     10  H   UNL     1      50.666   6.528  18.692  0.00  0.00    +0.000 HD
BRANCH   9  11
ATOM     11  C   UNL     1      48.982   5.373  18.511  0.00  0.00    +0.000 C 
ATOM     12  C   UNL     1      48.737   4.193  17.571  0.00  0.00    +0.000 C 
ATOM     13  C   UNL     1      47.310   4.384  17.098  0.00  0.00    +0.000 C 
ATOM     14  N   UNL     1      46.608   4.932  18.265  0.00  0.00    +0.000 NA
ATOM     15  C   UNL     1      47.567   5.863  18.885  0.00  0.00    +0.000 C 
ATOM     16  H   UNL     1      46.428   4.168  18.919  0.00  0.00    +0.000 HD
ENDBRANCH   9  11
ENDBRANCH   8   9
ENDBRANCH   5   8
ENDBRANCH   1   2
BRANCH   1  19
ATOM     17  O   UNL     1      45.446   7.913  11.817  0.00  0.00    +0.000 OA
ATOM     18  C   UNL     1      46.172   7.028  11.372  0.00  0.00    +0.000 C 
ATOM     19  N   UNL     1      47.538   7.082  11.457  0.00  0.00    +0.000 N 
ATOM     20  H   UNL     1      48.095   6.417  10.935  0.00  0.00    +0.000 HD
BRANCH  18  21
ATOM     21  C   UNL     1      45.612   5.813  10.762  0.00  0.00    +0.000 A 
ATOM     22  C   UNL     1      45.867   5.530   9.427  0.00  0.00    +0.000 A 
ATOM     23  S   UNL     1      45.137   4.088   8.882  0.00  0.00    +0.000 S 
ATOM     24  C   UNL     1      44.486   3.770  10.422  0.00  0.00    +0.000 A 
ATOM     25  N   UNL     1      43.762   2.642  10.657  0.00  0.00    +0.000 NA
ATOM     26  C   UNL     1      43.363   2.508  11.877  0.00  0.00    +0.000 A 
ATOM     27  N   UNL     1      43.611   3.407  12.881  0.00  0.00    +0.000 N 
ATOM     28  C   UNL     1      44.265   4.596  12.674  0.00  0.00    +0.000 A 
ATOM     29  O   UNL     1      44.338   5.438  13.560  0.00  0.00    +0.000 OA
ATOM     30  C   UNL     1      44.790   4.769  11.330  0.00  0.00    +0.000 A 
ATOM     31  H   UNL     1      43.240   3.263  13.810  0.00  0.00    +0.000 HD
ENDBRANCH  18  21
ENDBRANCH   1  19
TORSDOF 6
ENDMDL
MODEL 9
REMARK VINA RESULT:    -6.693      3.921      8.939
REMARK INTER + INTRA:          -9.671
REMARK INTER:                  -8.690
REMARK INTRA:                  -0.982
REMARK UNBOUND:                -0.631
REMARK  Name = 
REMARK  6 active torsions:
REMARK  status: ('A' for Active; 'I' for Inactive)
REMARK    1  A    between atoms: C_2  and  C_18
REMARK    2  A    between atoms: N_3  and  C_4
REMARK    3  A    between atoms: C_4  and  C_5
REMARK    4  A    between atoms: C_8  and  C_9
REMARK    5  A    between atoms: C_9  and  N_10
REMARK    6  A    between atoms: N_10  and  C_11
REMARK                            x       y       z     vdW  Elec       q    Type
REMARK                         _______ _______ _______ _____ _____    ______ ____
ROOT
ATOM      1  C   UNL     1      47.167   3.402  16.914  0.00  0.00    +0.000 C 
ENDROOT
BRANCH   1   2
ATOM      2  C   UNL     1      48.628   3.475  17.275  0.00  0.00    +0.000 A 
ATOM      3  C   UNL     1      49.154   4.637  17.851  0.00  0.00    +0.000 A 
ATOM      4  C   UNL     1      50.501   4.700  18.221  0.00  0.00    +0.000 A 
ATOM      5  C   UNL     1      51.356   3.608  18.013  0.00  0.00    +0.000 A 
ATOM      6  C   UNL     1      50.837   2.461  17.396  0.00  0.00    +0.000 A 
ATOM      7  C   UNL     1      49.488   2.397  17.026  0.00  0.00    +0.000 A 
BRANCH   5   8
ATOM      8  C   UNL     1      52.811   3.683  18.428  0.00  0.00    +0.000 C 
BRANCH   8   9
ATOM      9  N   UNL     1      53.599   4.417  17.435  0.00  0.00    +0.000 NA
ATOM     10  H   UNL     1      52.994   4.625  16.641  0.00  0.00    +0.000 HD
BRANCH   9  11
ATOM     11  C   UNL     1      54.239   5.652  17.904  0.00  0.00    +0.000 C 
ATOM     12  C   UNL     1      53.847   6.104  19.311  0.00  0.00    +0.000 C 
ATOM     13  C   UNL     1      53.015   7.351  19.084  0.00  0.00    +0.000 C 
ATOM     14  N   UNL     1      53.647   8.006  17.932  0.00  0.00    +0.000 NA
ATOM     15  C   UNL     1      54.030   6.907  17.029  0.00  0.00    +0.000 C 
ATOM     16  H   UNL     1      54.496   8.472  18.255  0.00  0.00    +0.000 HD
ENDBRANCH   9  11
ENDBRANCH   8   9
ENDBRANCH   5   8
ENDBRANCH   1   2
BRANCH   1  19
ATOM     17  O   UNL     1      47.280   3.049  14.114  0.00  0.00    +0.000 OA
ATOM     18  C   UNL     1      46.862   4.111  14.567  0.00  0.00    +0.000 C 
ATOM     19  N   UNL     1      46.819   4.374  15.911  0.00  0.00    +0.000 N 
ATOM     20  H   UNL     1      46.318   5.189  16.242  0.00  0.00    +0.000 HD
BRANCH  18  21
ATOM     21  C   UNL     1      46.429   5.203  13.683  0.00  0.00    +0.000 A 
ATOM     22  C   UNL     1      47.285   6.267  13.430  0.00  0.00    +0.000 A 
ATOM     23  S   UNL     1      46.623   7.446  12.391  0.00  0.00    +0.000 S 
ATOM     24  C   UNL     1      45.183   6.558  12.210  0.00  0.00    +0.000 A 
ATOM     25  N   UNL     1      44.184   7.002  11.401  0.00  0.00    +0.000 NA
ATOM     26  C   UNL     1      43.166   6.211  11.325  0.00  0.00    +0.000 A 
ATOM     27  N   UNL     1      43.052   5.022  11.997  0.00  0.00    +0.000 N 
ATOM     28  C   UNL     1      43.997   4.573  12.886  0.00  0.00    +0.000 A 
ATOM     29  O   UNL     1      43.794   3.582  13.575  0.00  0.00    +0.000 OA
ATOM     30  C   UNL     1      45.193   5.396  12.961  0.00  0.00    +0.000 A 
ATOM     31  H   UNL     1      42.213   4.463  11.924  0.00  0.00    +0.000 HD
ENDBRANCH  18  21
ENDBRANCH   1  19
TORSDOF 6
ENDMDL
