MODEL 1
REMARK VINA RESULT:    -7.512      0.000      0.000
REMARK INTER + INTRA:         -10.525
REMARK INTER:                  -9.927
REMARK INTRA:                  -0.598
REMARK UNBOUND:                -0.598
REMARK  Name = 
REMARK  7 active torsions:
REMARK  status: ('A' for Active; 'I' for Inactive)
REMARK    1  A    between atoms: C_1  and  C_2
REMARK    2  A    between atoms: C_2  and  O_3
REMARK    3  A    between atoms: C_11  and  C_12
REMARK    4  A    between atoms: C_12  and  C_13
REMARK    5  A    between atoms: C_13  and  N_14
REMARK    6  A    between atoms: N_14  and  C_15
REMARK    7  A    between atoms: C_19  and  C_20
REMARK                            x       y       z     vdW  Elec       q    Type
REMARK                         _______ _______ _______ _____ _____    ______ ____
ROOT
ATOM      1  C   UNL     1      49.369   6.275  16.963  0.00  0.00    +0.000 C 
ATOM      2  C   UNL     1      48.962   6.922  15.637  0.00  0.00    +0.000 C 
ATOM      3  C   UNL     1      50.170   7.610  14.983  0.00  0.00    +0.000 C 
ATOM      4  C   UNL     1      49.816   8.182  13.614  0.00  0.00    +0.000 C 
ATOM      5  F   UNL     1      48.953   9.223  13.787  0.00  0.00    +0.000 F 
ATOM      6  C   UNL     1      49.177   7.133  12.702  0.00  0.00    +0.000 C 
ATOM      7  N   UNL     1      48.104   6.389  13.369  0.00  0.00    +0.000 N 
ATOM      8  C   UNL     1      46.815   6.476  12.883  0.00  0.00    +0.000 A 
ATOM      9  C   UNL     1      45.893   5.451  13.115  0.00  0.00    +0.000 A 
ATOM     10  C   UNL     1      44.582   5.532  12.633  0.00  0.00    +0.000 A 
ATOM     11  C   UNL     1      44.240   6.667  11.901  0.00  0.00    +0.000 A 
ATOM     12  C   UNL     1      45.203   7.636  11.691  0.00  0.00    +0.000 A 
ATOM     13  N   UNL     1      46.468   7.555  12.154  0.00  0.00    +0.000 NA
ATOM     14  C   UNL     1      48.361   5.846  14.704  0.00  0.00    +0.000 C 
ENDROOT
BRANCH   2  15
ATOM     15  O   UNL     1      47.963   7.902  15.946  0.00  0.00    +0.000 OA
ATOM     16  H   UNL     1      48.423   8.636  16.406  0.00  0.00    +0.000 HD
ENDBRANCH   2  15
BRANCH  10  17
ATOM     17  C   UNL     1      43.629   4.392  12.936  0.00  0.00    +0.000 C 
BRANCH  17  18
ATOM     18  C   UNL     1      43.766   3.210  11.977  0.00  0.00    +0.000 C 
BRANCH  18  19
ATOM     19  N   UNL     1      43.405   3.549  10.599  0.00  0.00    +0.000 N 
ATOM     20  H   UNL     1      42.979   4.473  10.527  0.00  0.00    +0.000 HD
BRANCH  19  21
ATOM     21  C   UNL     1      44.441   3.389   9.655  0.00  0.00    +0.000 A 
ATOM     22  C   UNL     1      44.945   4.484   8.948  0.00  0.00    +0.000 A 
ATOM     23  N   UNL     1      45.908   4.417   7.991  0.00  0.00    +0.000 NA
ATOM     24  C   UNL     1      46.379   3.188   7.688  0.00  0.00    +0.000 A 
ATOM     25  C   UNL     1      45.923   2.028   8.289  0.00  0.00    +0.000 A 
ATOM     26  C   UNL     1      44.935   2.136   9.267  0.00  0.00    +0.000 A 
BRANCH  25  27
ATOM     27  C   UNL     1      46.450   0.752   7.915  0.00  0.00    +0.000 C 
ATOM     28  N   UNL     1      46.893  -0.273   7.609  0.00  0.00    +0.000 NA
ENDBRANCH  25  27
ENDBRANCH  19  21
ENDBRANCH  18  19
ENDBRANCH  17  18
ENDBRANCH  10  17
TORSDOF 6
ENDMDL
MODEL 2
REMARK VINA RESULT:    -7.306      1.966      2.975
REMARK INTER + INTRA:         -10.253
REMARK INTER:                  -9.727
REMARK INTRA:                  -0.526
REMARK UNBOUND:                -0.598
REMARK  Name = 
REMARK  7 active torsions:
REMARK  status: ('A' for Active; 'I' for Inactive)
REMARK    1  A    between atoms: C_1  and  C_2
REMARK    2  A    between atoms: C_2  and  O_3
REMARK    3  A    between atoms: C_11  and  C_12
REMARK    4  A    between atoms: C_12  and  C_13
REMARK    5  A    between atoms: C_13  and  N_14
REMARK    6  A    between atoms: N_14  and  C_15
REMARK    7  A    between atoms: C_19  and  C_20
REMARK                            x       y       z     vdW  Elec       q    Type
REMARK                         _______ _______ _______ _____ _____    ______ ____
ROOT
ATOM      1  C   UNL     1      49.191  10.560  11.103  0.00  0.00    +0.000 C 
ATOM      2  C   UNL     1      49.064   9.378  12.067  0.00  0.00    +0.000 C 
ATOM      3  C   UNL     1      49.887   9.633  13.339  0.00  0.00    +0.000 C 
ATOM      4  C   UNL     1      49.702   8.513  14.360  0.00  0.00    +0.000 C 
ATOM      5  F   UNL     1      50.278   7.379  13.869  0.00  0.00    +0.000 F 
ATOM      6  C   UNL     1      48.227   8.250  14.661  0.00  0.00    +0.000 C 
ATOM      7  N   UNL     1      47.417   8.130  13.445  0.00  0.00    +0.000 N 
ATOM      8  C   UNL     1      46.778   6.938  13.171  0.00  0.00    +0.000 A 
ATOM      9  C   UNL     1      45.635   6.909  12.366  0.00  0.00    +0.000 A 
ATOM     10  C   UNL     1      44.982   5.706  12.076  0.00  0.00    +0.000 A 
ATOM     11  C   UNL     1      45.510   4.543  12.633  0.00  0.00    +0.000 A 
ATOM     12  C   UNL     1      46.632   4.642  13.434  0.00  0.00    +0.000 A 
ATOM     13  N   UNL     1      47.258   5.803  13.715  0.00  0.00    +0.000 NA
ATOM     14  C   UNL     1      47.573   9.148  12.404  0.00  0.00    +0.000 C 
ENDROOT
BRANCH   2  15
ATOM     15  O   UNL     1      49.583   8.231  11.384  0.00  0.00    +0.000 OA
ATOM     16  H   UNL     1      49.245   7.443  11.860  0.00  0.00    +0.000 HD
ENDBRANCH   2  15
BRANCH  10  17
ATOM     17  C   UNL     1      43.757   5.745  11.184  0.00  0.00    +0.000 C 
BRANCH  17  18
ATOM     18  C   UNL     1      43.670   4.569  10.213  0.00  0.00    +0.000 C 
BRANCH  18  19
ATOM     19  N   UNL     1      44.571   4.708   9.067  0.00  0.00    +0.000 N 
ATOM     20  H   UNL     1      45.283   5.422   9.220  0.00  0.00    +0.000 HD
BRANCH  19  21
ATOM     21  C   UNL     1      45.143   3.503   8.609  0.00  0.00    +0.000 A 
ATOM     22  C   UNL     1      44.850   2.287   9.231  0.00  0.00    +0.000 A 
ATOM     23  N   UNL     1      45.388   1.087   8.888  0.00  0.00    +0.000 NA
ATOM     24  C   UNL     1      46.299   1.092   7.891  0.00  0.00    +0.000 A 
ATOM     25  C   UNL     1      46.701   2.241   7.232  0.00  0.00    +0.000 A 
ATOM     26  C   UNL     1      46.127   3.454   7.612  0.00  0.00    +0.000 A 
BRANCH  25  27
ATOM     27  C   UNL     1      47.682   2.186   6.193  0.00  0.00    +0.000 C 
ATOM     28  N   UNL     1      48.485   2.129   5.361  0.00  0.00    +0.000 NA
ENDBRANCH  25  27
ENDBRANCH  19  21
ENDBRANCH  18  19
ENDBRANCH  17  18
ENDBRANCH  10  17
TORSDOF 6
ENDMDL
MODEL 3
REMARK VINA RESULT:    -7.051      3.172      7.469
REMARK INTER + INTRA:          -9.917
REMARK INTER:                  -9.160
REMARK INTRA:                  -0.757
REMARK UNBOUND:                -0.598
REMARK  Name = 
REMARK  7 active torsions:
REMARK  status: ('A' for Active; 'I' for Inactive)
REMARK    1  A    between atoms: C_1  and  C_2
REMARK    2  A    between atoms: C_2  and  O_3
REMARK    3  A    between atoms: C_11  and  C_12
REMARK    4  A    between atoms: C_12  and  C_13
REMARK    5  A    between atoms: C_13  and  N_14
REMARK    6  A    between atoms: N_14  and  C_15
REMARK    7  A    between atoms: C_19  and  C_20
REMARK                            x       y       z     vdW  Elec       q    Type
REMARK                         _______ _______ _______ _____ _____    ______ ____
ROOT
ATOM      1  C   UNL     1      44.898   2.782   9.884  0.00  0.00    +0.000 C 
ATOM      2  C   UNL     1      44.521   4.064  10.628  0.00  0.00    +0.000 C 
ATOM      3  C   UNL     1      43.058   4.006  11.093  0.00  0.00    +0.000 C 
ATOM      4  C   UNL     1      42.682   5.231  11.920  0.00  0.00    +0.000 C 
ATOM      5  F   UNL     1      42.679   6.322  11.103  0.00  0.00    +0.000 F 
ATOM      6  C   UNL     1      43.654   5.460  13.078  0.00  0.00    +0.000 C 
ATOM      7  N   UNL     1      45.056   5.393  12.657  0.00  0.00    +0.000 N 
ATOM      8  C   UNL     1      45.856   6.512  12.778  0.00  0.00    +0.000 A 
ATOM      9  C   UNL     1      47.244   6.389  12.892  0.00  0.00    +0.000 A 
ATOM     10  C   UNL     1      48.065   7.516  13.010  0.00  0.00    +0.000 A 
ATOM     11  C   UNL     1      47.440   8.762  13.024  0.00  0.00    +0.000 A 
ATOM     12  C   UNL     1      46.062   8.814  12.926  0.00  0.00    +0.000 A 
ATOM     13  N   UNL     1      45.272   7.726  12.816  0.00  0.00    +0.000 NA
ATOM     14  C   UNL     1      45.478   4.264  11.824  0.00  0.00    +0.000 C 
ENDROOT
BRANCH   2  15
ATOM     15  O   UNL     1      44.684   5.143   9.698  0.00  0.00    +0.000 OA
ATOM     16  H   UNL     1      45.562   5.540   9.880  0.00  0.00    +0.000 HD
ENDBRANCH   2  15
BRANCH  10  17
ATOM     17  C   UNL     1      49.563   7.312  13.112  0.00  0.00    +0.000 C 
BRANCH  17  18
ATOM     18  C   UNL     1      50.196   8.019  14.310  0.00  0.00    +0.000 C 
BRANCH  18  19
ATOM     19  N   UNL     1      49.403   7.886  15.534  0.00  0.00    +0.000 N 
ATOM     20  H   UNL     1      48.423   8.124  15.387  0.00  0.00    +0.000 HD
BRANCH  19  21
ATOM     21  C   UNL     1      49.536   6.649  16.198  0.00  0.00    +0.000 A 
ATOM     22  C   UNL     1      50.793   6.161  16.565  0.00  0.00    +0.000 A 
ATOM     23  N   UNL     1      51.019   4.963  17.165  0.00  0.00    +0.000 NA
ATOM     24  C   UNL     1      49.939   4.181  17.386  0.00  0.00    +0.000 A 
ATOM     25  C   UNL     1      48.652   4.540  17.026  0.00  0.00    +0.000 A 
ATOM     26  C   UNL     1      48.460   5.777  16.412  0.00  0.00    +0.000 A 
BRANCH  25  27
ATOM     27  C   UNL     1      47.550   3.663  17.272  0.00  0.00    +0.000 C 
ATOM     28  N   UNL     1      46.657   2.949  17.455  0.00  0.00    +0.000 NA
ENDBRANCH  25  27
ENDBRANCH  19  21
ENDBRANCH  18  19
ENDBRANCH  17  18
ENDBRANCH  10  17
TORSDOF 6
ENDMDL
MODEL 4
REMARK VINA RESULT:    -6.727      2.530      4.198
REMARK INTER + INTRA:          -9.487
REMARK INTER:                  -8.885
REMARK INTRA:                  -0.603
REMARK UNBOUND:                -0.598
REMARK  Name = 
REMARK  7 active torsions:
REMARK  status: ('A' for Active; 'I' for Inactive)
REMARK    1  A    between atoms: C_1  and  C_2
REMARK    2  A    between atoms: C_2  and  O_3
REMARK    3  A    between atoms: C_11  and  C_12
REMARK    4  A    between atoms: C_12  and  C_13
REMARK    5  A    between atoms: C_13  and  N_14
REMARK    6  A    between atoms: N_14  and  C_15
REMARK    7  A    between atoms: C_19  and  C_20
REMARK                            x       y       z     vdW  Elec       q    Type
REMARK                         _______ _______ _______ _____ _____    ______ ____
ROOT
ATOM      1  C   UNL     1      51.149   6.830  18.237  0.00  0.00    +0.000 C 
ATOM      2  C   UNL     1      50.184   5.710  17.839  0.00  0.00    +0.000 C 
ATOM      3  C   UNL     1      49.756   4.906  19.076  0.00  0.00    +0.000 C 
ATOM      4  C   UNL     1      48.720   3.843  18.722  0.00  0.00    +0.000 C 
ATOM      5  F   UNL     1      49.321   2.889  17.955  0.00  0.00    +0.000 F 
ATOM      6  C   UNL     1      47.528   4.433  17.968  0.00  0.00    +0.000 C 
ATOM      7  N   UNL     1      47.938   5.302  16.862  0.00  0.00    +0.000 N 
ATOM      8  C   UNL     1      47.601   4.958  15.568  0.00  0.00    +0.000 A 
ATOM      9  C   UNL     1      47.496   5.935  14.573  0.00  0.00    +0.000 A 
ATOM     10  C   UNL     1      47.161   5.598  13.257  0.00  0.00    +0.000 A 
ATOM     11  C   UNL     1      46.923   4.252  12.985  0.00  0.00    +0.000 A 
ATOM     12  C   UNL     1      47.027   3.338  14.016  0.00  0.00    +0.000 A 
ATOM     13  N   UNL     1      47.347   3.666  15.285  0.00  0.00    +0.000 NA
ATOM     14  C   UNL     1      48.960   6.319  17.119  0.00  0.00    +0.000 C 
ENDROOT
BRANCH   2  15
ATOM     15  O   UNL     1      50.896   4.855  16.935  0.00  0.00    +0.000 OA
ATOM     16  H   UNL     1      51.551   5.419  16.472  0.00  0.00    +0.000 HD
ENDBRANCH   2  15
BRANCH  10  17
ATOM     17  C   UNL     1      47.080   6.705  12.225  0.00  0.00    +0.000 C 
BRANCH  17  18
ATOM     18  C   UNL     1      45.728   7.415  12.195  0.00  0.00    +0.000 C 
BRANCH  18  19
ATOM     19  N   UNL     1      44.914   7.042  11.036  0.00  0.00    +0.000 N 
ATOM     20  H   UNL     1      45.383   7.247  10.153  0.00  0.00    +0.000 HD
BRANCH  19  21
ATOM     21  C   UNL     1      44.416   5.723  11.057  0.00  0.00    +0.000 A 
ATOM     22  C   UNL     1      43.504   5.315  12.034  0.00  0.00    +0.000 A 
ATOM     23  N   UNL     1      43.007   4.056  12.158  0.00  0.00    +0.000 NA
ATOM     24  C   UNL     1      43.465   3.133  11.285  0.00  0.00    +0.000 A 
ATOM     25  C   UNL     1      44.401   3.410  10.305  0.00  0.00    +0.000 A 
ATOM     26  C   UNL     1      44.888   4.713  10.208  0.00  0.00    +0.000 A 
BRANCH  25  27
ATOM     27  C   UNL     1      44.860   2.386   9.418  0.00  0.00    +0.000 C 
ATOM     28  N   UNL     1      45.214   1.551   8.699  0.00  0.00    +0.000 NA
ENDBRANCH  25  27
ENDBRANCH  19  21
ENDBRANCH  18  19
ENDBRANCH  17  18
ENDBRANCH  10  17
TORSDOF 6
ENDMDL
MODEL 5
REMARK VINA RESULT:    -6.687      2.527      4.534
REMARK INTER + INTRA:          -9.435
REMARK INTER:                  -8.705
REMARK INTRA:                  -0.729
REMARK UNBOUND:                -0.598
REMARK  Name = 
REMARK  7 active torsions:
REMARK  status: ('A' for Active; 'I' for Inactive)
REMARK    1  A    between atoms: C_1  and  C_2
REMARK    2  A    between atoms: C_2  and  O_3
REMARK    3  A    between atoms: C_11  and  C_12
REMARK    4  A    between atoms: C_12  and  C_13
REMARK    5  A    between atoms: C_13  and  N_14
REMARK    6  A    between atoms: N_14  and  C_15
REMARK    7  A    between atoms: C_19  and  C_20
REMARK                            x       y       z     vdW  Elec       q    Type
REMARK                         _______ _______ _______ _____ _____    ______ ____
ROOT
ATOM      1  C   UNL     1      47.150   2.658  17.764  0.00  0.00    +0.000 C 
ATOM      2  C   UNL     1      47.751   4.060  17.880  0.00  0.00    +0.000 C 
ATOM      3  C   UNL     1      48.765   4.116  19.032  0.00  0.00    +0.000 C 
ATOM      4  C   UNL     1      49.451   5.477  19.110  0.00  0.00    +0.000 C 
ATOM      5  F   UNL     1      48.531   6.406  19.494  0.00  0.00    +0.000 F 
ATOM      6  C   UNL     1      50.066   5.886  17.771  0.00  0.00    +0.000 C 
ATOM      7  N   UNL     1      49.136   5.715  16.651  0.00  0.00    +0.000 N 
ATOM      8  C   UNL     1      48.735   6.820  15.928  0.00  0.00    +0.000 A 
ATOM      9  C   UNL     1      48.302   6.689  14.604  0.00  0.00    +0.000 A 
ATOM     10  C   UNL     1      47.887   7.801  13.864  0.00  0.00    +0.000 A 
ATOM     11  C   UNL     1      47.937   9.043  14.494  0.00  0.00    +0.000 A 
ATOM     12  C   UNL     1      48.392   9.107  15.798  0.00  0.00    +0.000 A 
ATOM     13  N   UNL     1      48.794   8.033  16.509  0.00  0.00    +0.000 NA
ATOM     14  C   UNL     1      48.411   4.448  16.537  0.00  0.00    +0.000 C 
ENDROOT
BRANCH   2  15
ATOM     15  O   UNL     1      46.665   4.953  18.155  0.00  0.00    +0.000 OA
ATOM     16  H   UNL     1      45.839   4.449  17.992  0.00  0.00    +0.000 HD
ENDBRANCH   2  15
BRANCH  10  17
ATOM     17  C   UNL     1      47.414   7.586  12.439  0.00  0.00    +0.000 C 
BRANCH  17  18
ATOM     18  C   UNL     1      45.990   8.080  12.187  0.00  0.00    +0.000 C 
BRANCH  18  19
ATOM     19  N   UNL     1      44.974   7.246  12.832  0.00  0.00    +0.000 N 
ATOM     20  H   UNL     1      44.055   7.688  12.831  0.00  0.00    +0.000 HD
BRANCH  19  21
ATOM     21  C   UNL     1      44.905   5.919  12.360  0.00  0.00    +0.000 A 
ATOM     22  C   UNL     1      45.042   4.837  13.234  0.00  0.00    +0.000 A 
ATOM     23  N   UNL     1      45.034   3.530  12.863  0.00  0.00    +0.000 NA
ATOM     24  C   UNL     1      44.919   3.274  11.541  0.00  0.00    +0.000 A 
ATOM     25  C   UNL     1      44.823   4.264  10.579  0.00  0.00    +0.000 A 
ATOM     26  C   UNL     1      44.834   5.594  10.999  0.00  0.00    +0.000 A 
BRANCH  25  27
ATOM     27  C   UNL     1      44.718   3.932   9.193  0.00  0.00    +0.000 C 
ATOM     28  N   UNL     1      44.650   3.668   8.067  0.00  0.00    +0.000 NA
ENDBRANCH  25  27
ENDBRANCH  19  21
ENDBRANCH  18  19
ENDBRANCH  17  18
ENDBRANCH  10  17
TORSDOF 6
ENDMDL
MODEL 6
REMARK VINA RESULT:    -6.214      1.741      2.715
REMARK INTER + INTRA:          -8.809
REMARK INTER:                  -8.623
REMARK INTRA:                  -0.186
REMARK UNBOUND:                -0.598
REMARK  Name = 
REMARK  7 active torsions:
REMARK  status: ('A' for Active; 'I' for Inactive)
REMARK    1  A    between atoms: C_1  and  C_2
REMARK    2  A    between atoms: C_2  and  O_3
REMARK    3  A    between atoms: C_11  and  C_12
REMARK    4  A    between atoms: C_12  and  C_13
REMARK    5  A    between atoms: C_13  and  N_14
REMARK    6  A    between atoms: N_14  and  C_15
REMARK    7  A    between atoms: C_19  and  C_20
REMARK                            x       y       z     vdW  Elec       q    Type
REMARK                         _______ _______ _______ _____ _____    ______ ____
ROOT
ATOM      1  C   UNL     1      50.558   8.984  11.303  0.00  0.00    +0.000 C 
ATOM      2  C   UNL     1      50.038   8.501  12.658  0.00  0.00    +0.000 C 
ATOM      3  C   UNL     1      50.131   9.626  13.701  0.00  0.00    +0.000 C 
ATOM      4  C   UNL     1      49.530   9.202  15.038  0.00  0.00    +0.000 C 
ATOM      5  F   UNL     1      50.324   8.238  15.585  0.00  0.00    +0.000 F 
ATOM      6  C   UNL     1      48.107   8.666  14.882  0.00  0.00    +0.000 C 
ATOM      7  N   UNL     1      47.991   7.683  13.803  0.00  0.00    +0.000 N 
ATOM      8  C   UNL     1      47.621   6.387  14.102  0.00  0.00    +0.000 A 
ATOM      9  C   UNL     1      47.010   5.577  13.139  0.00  0.00    +0.000 A 
ATOM     10  C   UNL     1      46.636   4.261  13.429  0.00  0.00    +0.000 A 
ATOM     11  C   UNL     1      46.884   3.797  14.720  0.00  0.00    +0.000 A 
ATOM     12  C   UNL     1      47.475   4.653  15.630  0.00  0.00    +0.000 A 
ATOM     13  N   UNL     1      47.832   5.923  15.349  0.00  0.00    +0.000 NA
ATOM     14  C   UNL     1      48.582   8.005  12.502  0.00  0.00    +0.000 C 
ENDROOT
BRANCH   2  15
ATOM     15  O   UNL     1      50.876   7.409  13.056  0.00  0.00    +0.000 OA
ATOM     16  H   UNL     1      50.841   7.371  14.035  0.00  0.00    +0.000 HD
ENDBRANCH   2  15
BRANCH  10  17
ATOM     17  C   UNL     1      45.994   3.433  12.334  0.00  0.00    +0.000 C 
BRANCH  17  18
ATOM     18  C   UNL     1      44.470   3.544  12.298  0.00  0.00    +0.000 C 
BRANCH  18  19
ATOM     19  N   UNL     1      43.960   3.980  10.997  0.00  0.00    +0.000 N 
ATOM     20  H   UNL     1      43.647   4.951  11.011  0.00  0.00    +0.000 HD
BRANCH  19  21
ATOM     21  C   UNL     1      44.821   3.735   9.907  0.00  0.00    +0.000 A 
ATOM     22  C   UNL     1      45.266   4.780   9.093  0.00  0.00    +0.000 A 
ATOM     23  N   UNL     1      46.058   4.633   7.999  0.00  0.00    +0.000 NA
ATOM     24  C   UNL     1      46.405   3.371   7.666  0.00  0.00    +0.000 A 
ATOM     25  C   UNL     1      45.987   2.255   8.370  0.00  0.00    +0.000 A 
ATOM     26  C   UNL     1      45.176   2.446   9.487  0.00  0.00    +0.000 A 
BRANCH  25  27
ATOM     27  C   UNL     1      46.376   0.941   7.960  0.00  0.00    +0.000 C 
ATOM     28  N   UNL     1      46.697  -0.126   7.644  0.00  0.00    +0.000 NA
ENDBRANCH  25  27
ENDBRANCH  19  21
ENDBRANCH  18  19
ENDBRANCH  17  18
ENDBRANCH  10  17
TORSDOF 6
ENDMDL
MODEL 7
REMARK VINA RESULT:    -5.898      3.025      4.565
REMARK INTER + INTRA:          -8.392
REMARK INTER:                  -7.593
REMARK INTRA:                  -0.799
REMARK UNBOUND:                -0.598
REMARK  Name = 
REMARK  7 active torsions:
REMARK  status: ('A' for Active; 'I' for Inactive)
REMARK    1  A    between atoms: C_1  and  C_2
REMARK    2  A    between atoms: C_2  and  O_3
REMARK    3  A    between atoms: C_11  and  C_12
REMARK    4  A    between atoms: C_12  and  C_13
REMARK    5  A    between atoms: C_13  and  N_14
REMARK    6  A    between atoms: N_14  and  C_15
REMARK    7  A    between atoms: C_19  and  C_20
REMARK                            x       y       z     vdW  Elec       q    Type
REMARK                         _______ _______ _______ _____ _____    ______ ____
ROOT
ATOM      1  C   UNL     1      47.534   4.718  17.780  0.00  0.00    +0.000 C 
ATOM      2  C   UNL     1      48.478   5.865  17.414  0.00  0.00    +0.000 C 
ATOM      3  C   UNL     1      49.872   5.626  18.013  0.00  0.00    +0.000 C 
ATOM      4  C   UNL     1      50.860   6.707  17.585  0.00  0.00    +0.000 C 
ATOM      5  F   UNL     1      50.496   7.884  18.168  0.00  0.00    +0.000 F 
ATOM      6  C   UNL     1      50.899   6.878  16.066  0.00  0.00    +0.000 C 
ATOM      7  N   UNL     1      49.561   6.982  15.478  0.00  0.00    +0.000 N 
ATOM      8  C   UNL     1      49.194   8.142  14.826  0.00  0.00    +0.000 A 
ATOM      9  C   UNL     1      48.201   8.126  13.842  0.00  0.00    +0.000 A 
ATOM     10  C   UNL     1      47.817   9.297  13.179  0.00  0.00    +0.000 A 
ATOM     11  C   UNL     1      48.476  10.474  13.529  0.00  0.00    +0.000 A 
ATOM     12  C   UNL     1      49.461  10.419  14.497  0.00  0.00    +0.000 A 
ATOM     13  N   UNL     1      49.832   9.289  15.133  0.00  0.00    +0.000 NA
ATOM     14  C   UNL     1      48.549   6.001  15.876  0.00  0.00    +0.000 C 
ENDROOT
BRANCH   2  15
ATOM     15  O   UNL     1      47.914   7.057  17.975  0.00  0.00    +0.000 OA
ATOM     16  H   UNL     1      48.043   6.999  18.945  0.00  0.00    +0.000 HD
ENDBRANCH   2  15
BRANCH  10  17
ATOM     17  C   UNL     1      46.721   9.210  12.135  0.00  0.00    +0.000 C 
BRANCH  17  18
ATOM     18  C   UNL     1      45.371   8.773  12.700  0.00  0.00    +0.000 C 
BRANCH  18  19
ATOM     19  N   UNL     1      44.541   8.072  11.718  0.00  0.00    +0.000 N 
ATOM     20  H   UNL     1      44.760   8.348  10.761  0.00  0.00    +0.000 HD
BRANCH  19  21
ATOM     21  C   UNL     1      44.517   6.668  11.853  0.00  0.00    +0.000 A 
ATOM     22  C   UNL     1      43.430   5.921  11.391  0.00  0.00    +0.000 A 
ATOM     23  N   UNL     1      43.301   4.574  11.519  0.00  0.00    +0.000 NA
ATOM     24  C   UNL     1      44.290   3.927  12.173  0.00  0.00    +0.000 A 
ATOM     25  C   UNL     1      45.392   4.568  12.713  0.00  0.00    +0.000 A 
ATOM     26  C   UNL     1      45.490   5.951  12.561  0.00  0.00    +0.000 A 
BRANCH  25  27
ATOM     27  C   UNL     1      46.401   3.831  13.408  0.00  0.00    +0.000 C 
ATOM     28  N   UNL     1      47.224   3.250  13.979  0.00  0.00    +0.000 NA
ENDBRANCH  25  27
ENDBRANCH  19  21
ENDBRANCH  18  19
ENDBRANCH  17  18
ENDBRANCH  10  17
TORSDOF 6
ENDMDL
MODEL 8
REMARK VINA RESULT:    -5.869      2.915      4.367
REMARK INTER + INTRA:          -8.354
REMARK INTER:                  -7.918
REMARK INTRA:                  -0.436
REMARK UNBOUND:                -0.598
REMARK  Name = 
REMARK  7 active torsions:
REMARK  status: ('A' for Active; 'I' for Inactive)
REMARK    1  A    between atoms: C_1  and  C_2
REMARK    2  A    between atoms: C_2  and  O_3
REMARK    3  A    between atoms: C_11  and  C_12
REMARK    4  A    between atoms: C_12  and  C_13
REMARK    5  A    between atoms: C_13  and  N_14
REMARK    6  A    between atoms: N_14  and  C_15
REMARK    7  A    between atoms: C_19  and  C_20
REMARK                            x       y       z     vdW  Elec       q    Type
REMARK                         _______ _______ _______ _____ _____    ______ ____
ROOT
ATOM      1  C   UNL     1      52.744   7.447   8.785  0.00  0.00    +0.000 C 
ATOM      2  C   UNL     1      52.515   7.781  10.260  0.00  0.00    +0.000 C 
ATOM      3  C   UNL     1      53.436   8.929  10.700  0.00  0.00    +0.000 C 
ATOM      4  C   UNL     1      53.162   9.347  12.142  0.00  0.00    +0.000 C 
ATOM      5  F   UNL     1      53.551   8.336  12.969  0.00  0.00    +0.000 F 
ATOM      6  C   UNL     1      51.684   9.661  12.376  0.00  0.00    +0.000 C 
ATOM      7  N   UNL     1      50.798   8.623  11.844  0.00  0.00    +0.000 N 
ATOM      8  C   UNL     1      49.989   7.913  12.709  0.00  0.00    +0.000 A 
ATOM      9  C   UNL     1      48.807   7.317  12.256  0.00  0.00    +0.000 A 
ATOM     10  C   UNL     1      47.983   6.591  13.123  0.00  0.00    +0.000 A 
ATOM     11  C   UNL     1      48.381   6.499  14.455  0.00  0.00    +0.000 A 
ATOM     12  C   UNL     1      49.551   7.125  14.843  0.00  0.00    +0.000 A 
ATOM     13  N   UNL     1      50.342   7.828  14.006  0.00  0.00    +0.000 NA
ATOM     14  C   UNL     1      51.029   8.143  10.480  0.00  0.00    +0.000 C 
ENDROOT
BRANCH   2  15
ATOM     15  O   UNL     1      52.835   6.599  11.005  0.00  0.00    +0.000 OA
ATOM     16  H   UNL     1      52.098   5.968  10.860  0.00  0.00    +0.000 HD
ENDBRANCH   2  15
BRANCH  10  17
ATOM     17  C   UNL     1      46.725   5.957  12.562  0.00  0.00    +0.000 C 
BRANCH  17  18
ATOM     18  C   UNL     1      46.379   6.431  11.151  0.00  0.00    +0.000 C 
BRANCH  18  19
ATOM     19  N   UNL     1      45.020   6.067  10.745  0.00  0.00    +0.000 N 
ATOM     20  H   UNL     1      44.544   6.829  10.261  0.00  0.00    +0.000 HD
BRANCH  19  21
ATOM     21  C   UNL     1      44.917   4.860  10.023  0.00  0.00    +0.000 A 
ATOM     22  C   UNL     1      44.221   3.767  10.545  0.00  0.00    +0.000 A 
ATOM     23  N   UNL     1      44.109   2.554   9.943  0.00  0.00    +0.000 NA
ATOM     24  C   UNL     1      44.754   2.398   8.766  0.00  0.00    +0.000 A 
ATOM     25  C   UNL     1      45.511   3.395   8.174  0.00  0.00    +0.000 A 
ATOM     26  C   UNL     1      45.602   4.626   8.822  0.00  0.00    +0.000 A 
BRANCH  25  27
ATOM     27  C   UNL     1      46.183   3.166   6.934  0.00  0.00    +0.000 C 
ATOM     28  N   UNL     1      46.725   2.998   5.924  0.00  0.00    +0.000 NA
ENDBRANCH  25  27
ENDBRANCH  19  21
ENDBRANCH  18  19
ENDBRANCH  17  18
ENDBRANCH  10  17
TORSDOF 6
ENDMDL
MODEL 9
REMARK VINA RESULT:    -5.752      3.597      6.143
REMARK INTER + INTRA:          -8.200
REMARK INTER:                  -7.310
REMARK INTRA:                  -0.890
REMARK UNBOUND:                -0.598
REMARK  Name = 
REMARK  7 active torsions:
REMARK  status: ('A' for Active; 'I' for Inactive)
REMARK    1  A    between atoms: C_1  and  C_2
REMARK    2  A    between atoms: C_2  and  O_3
REMARK    3  A    between atoms: C_11  and  C_12
REMARK    4  A    between atoms: C_12  and  C_13
REMARK    5  A    between atoms: C_13  and  N_14
REMARK    6  A    between atoms: N_14  and  C_15
REMARK    7  A    between atoms: C_19  and  C_20
REMARK                            x       y       z     vdW  Elec       q    Type
REMARK                         _______ _______ _______ _____ _____    ______ ____
ROOT
ATOM      1  C   UNL     1      47.888   2.935  16.749  0.00  0.00    +0.000 C 
ATOM      2  C   UNL     1      48.021   4.130  17.696  0.00  0.00    +0.000 C 
ATOM      3  C   UNL     1      48.533   3.672  19.070  0.00  0.00    +0.000 C 
ATOM      4  C   UNL     1      48.766   4.855  20.004  0.00  0.00    +0.000 C 
ATOM      5  F   UNL     1      47.559   5.405  20.318  0.00  0.00    +0.000 F 
ATOM      6  C   UNL     1      49.665   5.918  19.371  0.00  0.00    +0.000 C 
ATOM      7  N   UNL     1      49.249   6.266  18.009  0.00  0.00    +0.000 N 
ATOM      8  C   UNL     1      48.837   7.555  17.734  0.00  0.00    +0.000 A 
ATOM      9  C   UNL     1      48.928   8.072  16.438  0.00  0.00    +0.000 A 
ATOM     10  C   UNL     1      48.508   9.374  16.146  0.00  0.00    +0.000 A 
ATOM     11  C   UNL     1      48.012  10.137  17.202  0.00  0.00    +0.000 A 
ATOM     12  C   UNL     1      47.966   9.573  18.463  0.00  0.00    +0.000 A 
ATOM     13  N   UNL     1      48.373   8.317  18.743  0.00  0.00    +0.000 NA
ATOM     14  C   UNL     1      48.967   5.179  17.069  0.00  0.00    +0.000 C 
ENDROOT
BRANCH   2  15
ATOM     15  O   UNL     1      46.710   4.691  17.837  0.00  0.00    +0.000 OA
ATOM     16  H   UNL     1      46.563   4.822  18.798  0.00  0.00    +0.000 HD
ENDBRANCH   2  15
BRANCH  10  17
ATOM     17  C   UNL     1      48.619   9.866  14.716  0.00  0.00    +0.000 C 
BRANCH  17  18
ATOM     18  C   UNL     1      48.521   8.751  13.677  0.00  0.00    +0.000 C 
BRANCH  18  19
ATOM     19  N   UNL     1      47.145   8.489  13.250  0.00  0.00    +0.000 N 
ATOM     20  H   UNL     1      46.933   8.915  12.347  0.00  0.00    +0.000 HD
BRANCH  19  21
ATOM     21  C   UNL     1      46.759   7.133  13.279  0.00  0.00    +0.000 A 
ATOM     22  C   UNL     1      47.668   6.136  13.642  0.00  0.00    +0.000 A 
ATOM     23  N   UNL     1      47.398   4.804  13.655  0.00  0.00    +0.000 NA
ATOM     24  C   UNL     1      46.165   4.429  13.251  0.00  0.00    +0.000 A 
ATOM     25  C   UNL     1      45.198   5.324  12.826  0.00  0.00    +0.000 A 
ATOM     26  C   UNL     1      45.511   6.683  12.828  0.00  0.00    +0.000 A 
BRANCH  25  27
ATOM     27  C   UNL     1      43.914   4.866  12.396  0.00  0.00    +0.000 C 
ATOM     28  N   UNL     1      42.866   4.510  12.054  0.00  0.00    +0.000 NA
ENDBRANCH  25  27
ENDBRANCH  19  21
ENDBRANCH  18  19
ENDBRANCH  17  18
ENDBRANCH  10  17
TORSDOF 6
ENDMDL
