MODEL 1
REMARK VINA RESULT:    -8.161      0.000      0.000
REMARK INTER + INTRA:         -10.724
REMARK INTER:                 -10.069
REMARK INTRA:                  -0.655
REMARK UNBOUND:                -0.655
REMARK  Name = 
REMARK  4 active torsions:
REMARK  status: ('A' for Active; 'I' for Inactive)
REMARK    1  A    between atoms: C_2  and  C_4
REMARK    2  A    between atoms: N_8  and  C_9
REMARK    3  A    between atoms: C_9  and  C_10
REMARK    4  A    between atoms: C_10  and  C_13
REMARK                            x       y       z     vdW  Elec       q    Type
REMARK                         _______ _______ _______ _____ _____    ______ ____
ROOT
ATOM      1  C   UNL     1      46.500   2.565   7.418  0.00  0.00    +0.000 A 
ATOM      2  C   UNL     1      46.043   1.520   8.216  0.00  0.00    +0.000 A 
ATOM      3  C   UNL     1      45.064   1.779   9.176  0.00  0.00    +0.000 A 
ATOM      4  C   UNL     1      44.596   3.084   9.359  0.00  0.00    +0.000 A 
ATOM      5  N   UNL     1      43.660   3.294  10.376  0.00  0.00    +0.000 N 
ATOM      6  N   UNL     1      45.044   4.106   8.607  0.00  0.00    +0.000 NA
ATOM      7  C   UNL     1      45.978   3.828   7.653  0.00  0.00    +0.000 A 
ATOM      8  H   UNL     1      42.782   2.821  10.175  0.00  0.00    +0.000 HD
ENDROOT
BRANCH   1  10
ATOM      9  N   UNL     1      47.487   3.229   5.300  0.00  0.00    +0.000 N 
ATOM     10  C   UNL     1      47.531   2.386   6.376  0.00  0.00    +0.000 C 
ATOM     11  O   UNL     1      48.408   1.540   6.482  0.00  0.00    +0.000 OA
ATOM     12  H   UNL     1      48.254   3.163   4.644  0.00  0.00    +0.000 HD
ATOM     13  H   UNL     1      46.936   4.075   5.289  0.00  0.00    +0.000 HD
ENDBRANCH   1  10
BRANCH   5  14
ATOM     14  C   UNL     1      43.502   4.671  10.877  0.00  0.00    +0.000 C 
BRANCH  14  15
ATOM     15  C   UNL     1      43.950   4.801  12.359  0.00  0.00    +0.000 C 
ATOM     16  F   UNL     1      43.029   5.585  13.005  0.00  0.00    +0.000 F 
ATOM     17  F   UNL     1      43.838   3.574  12.957  0.00  0.00    +0.000 F 
BRANCH  15  18
ATOM     18  C   UNL     1      45.356   5.355  12.498  0.00  0.00    +0.000 A 
ATOM     19  C   UNL     1      45.900   6.198  11.519  0.00  0.00    +0.000 A 
ATOM     20  C   UNL     1      47.175   6.746  11.673  0.00  0.00    +0.000 A 
ATOM     21  C   UNL     1      47.924   6.453  12.815  0.00  0.00    +0.000 A 
ATOM     22  C   UNL     1      47.404   5.605  13.791  0.00  0.00    +0.000 A 
ATOM     23  C   UNL     1      46.129   5.055  13.633  0.00  0.00    +0.000 A 
ENDBRANCH  15  18
ENDBRANCH  14  15
ENDBRANCH   5  14
TORSDOF 4
ENDMDL
MODEL 2
REMARK VINA RESULT:    -7.966      1.025      1.333
REMARK INTER + INTRA:         -10.484
REMARK INTER:                  -9.886
REMARK INTRA:                  -0.598
REMARK UNBOUND:                -0.655
REMARK  Name = 
REMARK  4 active torsions:
REMARK  status: ('A' for Active; 'I' for Inactive)
REMARK    1  A    between atoms: C_2  and  C_4
REMARK    2  A    between atoms: N_8  and  C_9
REMARK    3  A    between atoms: C_9  and  C_10
REMARK    4  A    between atoms: C_10  and  C_13
REMARK                            x       y       z     vdW  Elec       q    Type
REMARK                         _______ _______ _______ _____ _____    ______ ____
ROOT
ATOM      1  C   UNL     1      46.477   2.684   7.562  0.00  0.00    +0.000 A 
ATOM      2  C   UNL     1      45.861   1.739   8.378  0.00  0.00    +0.000 A 
ATOM      3  C   UNL     1      44.912   2.164   9.308  0.00  0.00    +0.000 A 
ATOM      4  C   UNL     1      44.631   3.528   9.444  0.00  0.00    +0.000 A 
ATOM      5  N   UNL     1      43.717   3.899  10.434  0.00  0.00    +0.000 N 
ATOM      6  N   UNL     1      45.234   4.451   8.675  0.00  0.00    +0.000 NA
ATOM      7  C   UNL     1      46.136   4.015   7.750  0.00  0.00    +0.000 A 
ATOM      8  H   UNL     1      42.784   3.550  10.227  0.00  0.00    +0.000 HD
ENDROOT
BRANCH   1  10
ATOM      9  N   UNL     1      47.516   3.072   5.401  0.00  0.00    +0.000 N 
ATOM     10  C   UNL     1      47.491   2.328   6.549  0.00  0.00    +0.000 C 
ATOM     11  O   UNL     1      48.296   1.427   6.737  0.00  0.00    +0.000 OA
ATOM     12  H   UNL     1      48.276   2.884   4.759  0.00  0.00    +0.000 HD
ATOM     13  H   UNL     1      47.036   3.955   5.309  0.00  0.00    +0.000 HD
ENDBRANCH   1  10
BRANCH   5  14
ATOM     14  C   UNL     1      43.748   5.300  10.893  0.00  0.00    +0.000 C 
BRANCH  14  15
ATOM     15  C   UNL     1      44.450   5.440  12.271  0.00  0.00    +0.000 C 
ATOM     16  F   UNL     1      43.479   5.672  13.211  0.00  0.00    +0.000 F 
ATOM     17  F   UNL     1      44.979   4.225  12.616  0.00  0.00    +0.000 F 
BRANCH  15  18
ATOM     18  C   UNL     1      45.511   6.525  12.280  0.00  0.00    +0.000 A 
ATOM     19  C   UNL     1      46.821   6.255  11.860  0.00  0.00    +0.000 A 
ATOM     20  C   UNL     1      47.784   7.266  11.822  0.00  0.00    +0.000 A 
ATOM     21  C   UNL     1      47.443   8.565  12.208  0.00  0.00    +0.000 A 
ATOM     22  C   UNL     1      46.149   8.847  12.642  0.00  0.00    +0.000 A 
ATOM     23  C   UNL     1      45.188   7.832  12.683  0.00  0.00    +0.000 A 
ENDBRANCH  15  18
ENDBRANCH  14  15
ENDBRANCH   5  14
TORSDOF 4
ENDMDL
MODEL 3
REMARK VINA RESULT:    -7.389      3.376      6.606
REMARK INTER + INTRA:          -9.771
REMARK INTER:                  -9.283
REMARK INTRA:                  -0.489
REMARK UNBOUND:                -0.655
REMARK  Name = 
REMARK  4 active torsions:
REMARK  status: ('A' for Active; 'I' for Inactive)
REMARK    1  A    between atoms: C_2  and  C_4
REMARK    2  A    between atoms: N_8  and  C_9
REMARK    3  A    between atoms: C_9  and  C_10
REMARK    4  A    between atoms: C_10  and  C_13
REMARK                            x       y       z     vdW  Elec       q    Type
REMARK                         _______ _______ _______ _____ _____    ______ ____
ROOT
ATOM      1  C   UNL     1      46.795   4.371  14.417  0.00  0.00    +0.000 A 
ATOM      2  C   UNL     1      46.322   5.606  13.983  0.00  0.00    +0.000 A 
ATOM      3  C   UNL     1      45.512   5.659  12.848  0.00  0.00    +0.000 A 
ATOM      4  C   UNL     1      45.229   4.488  12.138  0.00  0.00    +0.000 A 
ATOM      5  N   UNL     1      44.462   4.611  10.976  0.00  0.00    +0.000 N 
ATOM      6  N   UNL     1      45.696   3.292  12.538  0.00  0.00    +0.000 NA
ATOM      7  C   UNL     1      46.460   3.255  13.666  0.00  0.00    +0.000 A 
ATOM      8  H   UNL     1      43.516   4.919  11.187  0.00  0.00    +0.000 HD
ENDROOT
BRANCH   1  10
ATOM      9  N   UNL     1      47.696   5.259  16.491  0.00  0.00    +0.000 N 
ATOM     10  C   UNL     1      47.656   4.216  15.608  0.00  0.00    +0.000 C 
ATOM     11  O   UNL     1      48.284   3.187  15.814  0.00  0.00    +0.000 OA
ATOM     12  H   UNL     1      48.209   5.103  17.349  0.00  0.00    +0.000 HD
ATOM     13  H   UNL     1      47.025   6.013  16.480  0.00  0.00    +0.000 HD
ENDBRANCH   1  10
BRANCH   5  14
ATOM     14  C   UNL     1      44.533   3.510   9.998  0.00  0.00    +0.000 C 
BRANCH  14  15
ATOM     15  C   UNL     1      45.012   4.006   8.606  0.00  0.00    +0.000 C 
ATOM     16  F   UNL     1      43.898   4.294   7.861  0.00  0.00    +0.000 F 
ATOM     17  F   UNL     1      45.640   5.213   8.766  0.00  0.00    +0.000 F 
BRANCH  15  18
ATOM     18  C   UNL     1      45.914   3.005   7.907  0.00  0.00    +0.000 A 
ATOM     19  C   UNL     1      46.006   1.681   8.357  0.00  0.00    +0.000 A 
ATOM     20  C   UNL     1      46.798   0.749   7.682  0.00  0.00    +0.000 A 
ATOM     21  C   UNL     1      47.510   1.136   6.545  0.00  0.00    +0.000 A 
ATOM     22  C   UNL     1      47.442   2.452   6.093  0.00  0.00    +0.000 A 
ATOM     23  C   UNL     1      46.651   3.384   6.772  0.00  0.00    +0.000 A 
ENDBRANCH  15  18
ENDBRANCH  14  15
ENDBRANCH   5  14
TORSDOF 4
ENDMDL
MODEL 4
REMARK VINA RESULT:    -7.358      3.521      6.558
REMARK INTER + INTRA:          -9.733
REMARK INTER:                  -9.312
REMARK INTRA:                  -0.421
REMARK UNBOUND:                -0.655
REMARK  Name = 
REMARK  4 active torsions:
REMARK  status: ('A' for Active; 'I' for Inactive)
REMARK    1  A    between atoms: C_2  and  C_4
REMARK    2  A    between atoms: N_8  and  C_9
REMARK    3  A    between atoms: C_9  and  C_10
REMARK    4  A    between atoms: C_10  and  C_13
REMARK                            x       y       z     vdW  Elec       q    Type
REMARK                         _______ _______ _______ _____ _____    ______ ____
ROOT
ATOM      1  C   UNL     1      46.656   7.488  12.975  0.00  0.00    +0.000 A 
ATOM      2  C   UNL     1      45.332   7.811  12.690  0.00  0.00    +0.000 A 
ATOM      3  C   UNL     1      44.524   6.861  12.065  0.00  0.00    +0.000 A 
ATOM      4  C   UNL     1      45.063   5.627  11.689  0.00  0.00    +0.000 A 
ATOM      5  N   UNL     1      44.222   4.739  11.011  0.00  0.00    +0.000 N 
ATOM      6  N   UNL     1      46.346   5.311  11.941  0.00  0.00    +0.000 NA
ATOM      7  C   UNL     1      47.112   6.240  12.581  0.00  0.00    +0.000 A 
ATOM      8  H   UNL     1      43.461   4.421  11.607  0.00  0.00    +0.000 HD
ENDROOT
BRANCH   1  10
ATOM      9  N   UNL     1      47.192   8.960  14.832  0.00  0.00    +0.000 N 
ATOM     10  C   UNL     1      47.586   8.427  13.636  0.00  0.00    +0.000 C 
ATOM     11  O   UNL     1      48.677   8.696  13.152  0.00  0.00    +0.000 OA
ATOM     12  H   UNL     1      47.876   9.522  15.322  0.00  0.00    +0.000 HD
ATOM     13  H   UNL     1      46.421   8.591  15.369  0.00  0.00    +0.000 HD
ENDBRANCH   1  10
BRANCH   5  14
ATOM     14  C   UNL     1      44.861   3.667  10.227  0.00  0.00    +0.000 C 
BRANCH  14  15
ATOM     15  C   UNL     1      45.118   4.101   8.758  0.00  0.00    +0.000 C 
ATOM     16  F   UNL     1      43.903   4.384   8.189  0.00  0.00    +0.000 F 
ATOM     17  F   UNL     1      45.780   5.300   8.768  0.00  0.00    +0.000 F 
BRANCH  15  18
ATOM     18  C   UNL     1      45.882   3.058   7.964  0.00  0.00    +0.000 A 
ATOM     19  C   UNL     1      46.542   3.398   6.774  0.00  0.00    +0.000 A 
ATOM     20  C   UNL     1      47.285   2.448   6.071  0.00  0.00    +0.000 A 
ATOM     21  C   UNL     1      47.375   1.140   6.553  0.00  0.00    +0.000 A 
ATOM     22  C   UNL     1      46.713   0.782   7.726  0.00  0.00    +0.000 A 
ATOM     23  C   UNL     1      45.967   1.733   8.426  0.00  0.00    +0.000 A 
ENDBRANCH  15  18
ENDBRANCH  14  15
ENDBRANCH   5  14
TORSDOF 4
ENDMDL
MODEL 5
REMARK VINA RESULT:    -7.091      3.704      6.837
REMARK INTER + INTRA:          -9.403
REMARK INTER:                  -9.014
REMARK INTRA:                  -0.390
REMARK UNBOUND:                -0.655
REMARK  Name = 
REMARK  4 active torsions:
REMARK  status: ('A' for Active; 'I' for Inactive)
REMARK    1  A    between atoms: C_2  and  C_4
REMARK    2  A    between atoms: N_8  and  C_9
REMARK    3  A    between atoms: C_9  and  C_10
REMARK    4  A    between atoms: C_10  and  C_13
REMARK                            x       y       z     vdW  Elec       q    Type
REMARK                         _______ _______ _______ _____ _____    ______ ____
ROOT
ATOM      1  C   UNL     1      47.900   5.486  15.379  0.00  0.00    +0.000 A 
ATOM      2  C   UNL     1      47.933   6.389  14.321  0.00  0.00    +0.000 A 
ATOM      3  C   UNL     1      47.145   6.144  13.196  0.00  0.00    +0.000 A 
ATOM      4  C   UNL     1      46.377   4.977  13.125  0.00  0.00    +0.000 A 
ATOM      5  N   UNL     1      45.655   4.755  11.949  0.00  0.00    +0.000 N 
ATOM      6  N   UNL     1      46.352   4.087  14.133  0.00  0.00    +0.000 NA
ATOM      7  C   UNL     1      47.105   4.359  15.237  0.00  0.00    +0.000 A 
ATOM      8  H   UNL     1      44.923   5.452  11.826  0.00  0.00    +0.000 HD
ENDROOT
BRANCH   1  10
ATOM      9  N   UNL     1      48.021   5.983  17.754  0.00  0.00    +0.000 N 
ATOM     10  C   UNL     1      48.698   5.663  16.609  0.00  0.00    +0.000 C 
ATOM     11  O   UNL     1      49.910   5.500  16.615  0.00  0.00    +0.000 OA
ATOM     12  H   UNL     1      48.565   6.004  18.608  0.00  0.00    +0.000 HD
ATOM     13  H   UNL     1      47.019   5.895  17.841  0.00  0.00    +0.000 HD
ENDBRANCH   1  10
BRANCH   5  14
ATOM     14  C   UNL     1      45.223   3.373  11.670  0.00  0.00    +0.000 C 
BRANCH  14  15
ATOM     15  C   UNL     1      44.392   3.282  10.361  0.00  0.00    +0.000 C 
ATOM     16  F   UNL     1      43.462   2.288  10.527  0.00  0.00    +0.000 F 
ATOM     17  F   UNL     1      43.651   4.427  10.234  0.00  0.00    +0.000 F 
BRANCH  15  18
ATOM     18  C   UNL     1      45.255   3.046   9.135  0.00  0.00    +0.000 A 
ATOM     19  C   UNL     1      45.635   4.111   8.305  0.00  0.00    +0.000 A 
ATOM     20  C   UNL     1      46.469   3.899   7.206  0.00  0.00    +0.000 A 
ATOM     21  C   UNL     1      46.934   2.613   6.923  0.00  0.00    +0.000 A 
ATOM     22  C   UNL     1      46.554   1.541   7.729  0.00  0.00    +0.000 A 
ATOM     23  C   UNL     1      45.715   1.754   8.827  0.00  0.00    +0.000 A 
ENDBRANCH  15  18
ENDBRANCH  14  15
ENDBRANCH   5  14
TORSDOF 4
ENDMDL
MODEL 6
REMARK VINA RESULT:    -6.920      3.664      6.558
REMARK INTER + INTRA:          -9.193
REMARK INTER:                  -8.828
REMARK INTRA:                  -0.365
REMARK UNBOUND:                -0.655
REMARK  Name = 
REMARK  4 active torsions:
REMARK  status: ('A' for Active; 'I' for Inactive)
REMARK    1  A    between atoms: C_2  and  C_4
REMARK    2  A    between atoms: N_8  and  C_9
REMARK    3  A    between atoms: C_9  and  C_10
REMARK    4  A    between atoms: C_10  and  C_13
REMARK                            x       y       z     vdW  Elec       q    Type
REMARK                         _______ _______ _______ _____ _____    ______ ____
ROOT
ATOM      1  C   UNL     1      48.398   6.884  13.777  0.00  0.00    +0.000 A 
ATOM      2  C   UNL     1      48.249   7.489  12.532  0.00  0.00    +0.000 A 
ATOM      3  C   UNL     1      47.261   7.020  11.666  0.00  0.00    +0.000 A 
ATOM      4  C   UNL     1      46.473   5.925  12.035  0.00  0.00    +0.000 A 
ATOM      5  N   UNL     1      45.541   5.462  11.103  0.00  0.00    +0.000 N 
ATOM      6  N   UNL     1      46.621   5.320  13.227  0.00  0.00    +0.000 NA
ATOM      7  C   UNL     1      47.572   5.812  14.073  0.00  0.00    +0.000 A 
ATOM      8  H   UNL     1      44.811   6.150  10.934  0.00  0.00    +0.000 HD
ENDROOT
BRANCH   1  10
ATOM      9  N   UNL     1      50.684   7.522  14.297  0.00  0.00    +0.000 N 
ATOM     10  C   UNL     1      49.414   7.313  14.760  0.00  0.00    +0.000 C 
ATOM     11  O   UNL     1      49.129   7.505  15.934  0.00  0.00    +0.000 OA
ATOM     12  H   UNL     1      51.346   7.910  14.957  0.00  0.00    +0.000 HD
ATOM     13  H   UNL     1      50.903   7.602  13.315  0.00  0.00    +0.000 HD
ENDBRANCH   1  10
BRANCH   5  14
ATOM     14  C   UNL     1      45.041   4.085  11.271  0.00  0.00    +0.000 C 
BRANCH  14  15
ATOM     15  C   UNL     1      44.327   3.570   9.991  0.00  0.00    +0.000 C 
ATOM     16  F   UNL     1      43.480   2.559  10.366  0.00  0.00    +0.000 F 
ATOM     17  F   UNL     1      43.500   4.558   9.527  0.00  0.00    +0.000 F 
BRANCH  15  18
ATOM     18  C   UNL     1      45.301   3.118   8.919  0.00  0.00    +0.000 A 
ATOM     19  C   UNL     1      45.677   1.772   8.807  0.00  0.00    +0.000 A 
ATOM     20  C   UNL     1      46.535   1.351   7.789  0.00  0.00    +0.000 A 
ATOM     21  C   UNL     1      47.029   2.278   6.868  0.00  0.00    +0.000 A 
ATOM     22  C   UNL     1      46.677   3.622   6.974  0.00  0.00    +0.000 A 
ATOM     23  C   UNL     1      45.821   4.042   7.996  0.00  0.00    +0.000 A 
ENDBRANCH  15  18
ENDBRANCH  14  15
ENDBRANCH   5  14
TORSDOF 4
ENDMDL
MODEL 7
REMARK VINA RESULT:    -6.642      4.457      6.122
REMARK INTER + INTRA:          -8.850
REMARK INTER:                  -8.453
REMARK INTRA:                  -0.397
REMARK UNBOUND:                -0.655
REMARK  Name = 
REMARK  4 active torsions:
REMARK  status: ('A' for Active; 'I' for Inactive)
REMARK    1  A    between atoms: C_2  and  C_4
REMARK    2  A    between atoms: N_8  and  C_9
REMARK    3  A    between atoms: C_9  and  C_10
REMARK    4  A    between atoms: C_10  and  C_13
REMARK                            x       y       z     vdW  Elec       q    Type
REMARK                         _______ _______ _______ _____ _____    ______ ____
ROOT
ATOM      1  C   UNL     1      45.148   4.275  11.462  0.00  0.00    +0.000 A 
ATOM      2  C   UNL     1      45.567   5.583  11.691  0.00  0.00    +0.000 A 
ATOM      3  C   UNL     1      46.311   5.864  12.837  0.00  0.00    +0.000 A 
ATOM      4  C   UNL     1      46.580   4.848  13.760  0.00  0.00    +0.000 A 
ATOM      5  N   UNL     1      47.277   5.202  14.919  0.00  0.00    +0.000 N 
ATOM      6  N   UNL     1      46.164   3.585  13.559  0.00  0.00    +0.000 NA
ATOM      7  C   UNL     1      45.465   3.322  12.418  0.00  0.00    +0.000 A 
ATOM      8  H   UNL     1      48.227   5.497  14.705  0.00  0.00    +0.000 HD
ENDROOT
BRANCH   1  10
ATOM      9  N   UNL     1      44.356   4.742   9.213  0.00  0.00    +0.000 N 
ATOM     10  C   UNL     1      44.359   3.882  10.276  0.00  0.00    +0.000 C 
ATOM     11  O   UNL     1      43.757   2.818  10.232  0.00  0.00    +0.000 OA
ATOM     12  H   UNL     1      43.895   4.418   8.373  0.00  0.00    +0.000 HD
ATOM     13  H   UNL     1      45.016   5.501   9.120  0.00  0.00    +0.000 HD
ENDBRANCH   1  10
BRANCH   5  14
ATOM     14  C   UNL     1      47.176   4.291  16.074  0.00  0.00    +0.000 C 
BRANCH  14  15
ATOM     15  C   UNL     1      48.080   4.751  17.251  0.00  0.00    +0.000 C 
ATOM     16  F   UNL     1      48.375   6.076  17.056  0.00  0.00    +0.000 F 
ATOM     17  F   UNL     1      47.339   4.730  18.403  0.00  0.00    +0.000 F 
BRANCH  15  18
ATOM     18  C   UNL     1      49.335   3.909  17.389  0.00  0.00    +0.000 A 
ATOM     19  C   UNL     1      49.327   2.545  17.065  0.00  0.00    +0.000 A 
ATOM     20  C   UNL     1      50.495   1.783  17.145  0.00  0.00    +0.000 A 
ATOM     21  C   UNL     1      51.689   2.382  17.555  0.00  0.00    +0.000 A 
ATOM     22  C   UNL     1      51.710   3.733  17.895  0.00  0.00    +0.000 A 
ATOM     23  C   UNL     1      50.539   4.493  17.817  0.00  0.00    +0.000 A 
ENDBRANCH  15  18
ENDBRANCH  14  15
ENDBRANCH   5  14
TORSDOF 4
ENDMDL
MODEL 8
REMARK VINA RESULT:    -6.418      4.515      7.466
REMARK INTER + INTRA:          -8.574
REMARK INTER:                  -8.217
REMARK INTRA:                  -0.357
REMARK UNBOUND:                -0.655
REMARK  Name = 
REMARK  4 active torsions:
REMARK  status: ('A' for Active; 'I' for Inactive)
REMARK    1  A    between atoms: C_2  and  C_4
REMARK    2  A    between atoms: N_8  and  C_9
REMARK    3  A    between atoms: C_9  and  C_10
REMARK    4  A    between atoms: C_10  and  C_13
REMARK                            x       y       z     vdW  Elec       q    Type
REMARK                         _______ _______ _______ _____ _____    ______ ____
ROOT
ATOM      1  C   UNL     1      48.534   4.379  17.130  0.00  0.00    +0.000 A 
ATOM      2  C   UNL     1      48.896   5.581  16.528  0.00  0.00    +0.000 A 
ATOM      3  C   UNL     1      48.191   6.013  15.405  0.00  0.00    +0.000 A 
ATOM      4  C   UNL     1      47.171   5.217  14.872  0.00  0.00    +0.000 A 
ATOM      5  N   UNL     1      46.541   5.674  13.711  0.00  0.00    +0.000 N 
ATOM      6  N   UNL     1      46.826   4.045  15.434  0.00  0.00    +0.000 NA
ATOM      7  C   UNL     1      47.506   3.653  16.549  0.00  0.00    +0.000 A 
ATOM      8  H   UNL     1      46.019   6.530  13.884  0.00  0.00    +0.000 HD
ENDROOT
BRANCH   1  10
ATOM      9  N   UNL     1      48.461   3.145  19.222  0.00  0.00    +0.000 N 
ATOM     10  C   UNL     1      49.221   3.842  18.323  0.00  0.00    +0.000 C 
ATOM     11  O   UNL     1      50.424   3.985  18.488  0.00  0.00    +0.000 OA
ATOM     12  H   UNL     1      48.959   2.698  19.981  0.00  0.00    +0.000 HD
ATOM     13  H   UNL     1      47.533   2.808  19.011  0.00  0.00    +0.000 HD
ENDBRANCH   1  10
BRANCH   5  14
ATOM     14  C   UNL     1      45.815   4.680  12.899  0.00  0.00    +0.000 C 
BRANCH  14  15
ATOM     15  C   UNL     1      45.101   5.337  11.686  0.00  0.00    +0.000 C 
ATOM     16  F   UNL     1      43.836   5.685  12.087  0.00  0.00    +0.000 F 
ATOM     17  F   UNL     1      45.716   6.530  11.412  0.00  0.00    +0.000 F 
BRANCH  15  18
ATOM     18  C   UNL     1      45.075   4.437  10.464  0.00  0.00    +0.000 A 
ATOM     19  C   UNL     1      45.555   4.889   9.227  0.00  0.00    +0.000 A 
ATOM     20  C   UNL     1      45.577   4.044   8.115  0.00  0.00    +0.000 A 
ATOM     21  C   UNL     1      45.114   2.730   8.232  0.00  0.00    +0.000 A 
ATOM     22  C   UNL     1      44.620   2.271   9.450  0.00  0.00    +0.000 A 
ATOM     23  C   UNL     1      44.596   3.119  10.561  0.00  0.00    +0.000 A 
ENDBRANCH  15  18
ENDBRANCH  14  15
ENDBRANCH   5  14
TORSDOF 4
ENDMDL
MODEL 9
REMARK VINA RESULT:    -6.082      5.131      7.875
REMARK INTER + INTRA:          -8.159
REMARK INTER:                  -7.768
REMARK INTRA:                  -0.391
REMARK UNBOUND:                -0.655
REMARK  Name = 
REMARK  4 active torsions:
REMARK  status: ('A' for Active; 'I' for Inactive)
REMARK    1  A    between atoms: C_2  and  C_4
REMARK    2  A    between atoms: N_8  and  C_9
REMARK    3  A    between atoms: C_9  and  C_10
REMARK    4  A    between atoms: C_10  and  C_13
REMARK                            x       y       z     vdW  Elec       q    Type
REMARK                         _______ _______ _______ _____ _____    ______ ____
ROOT
ATOM      1  C   UNL     1      48.733   5.052  17.877  0.00  0.00    +0.000 A 
ATOM      2  C   UNL     1      47.808   4.011  17.914  0.00  0.00    +0.000 A 
ATOM      3  C   UNL     1      47.124   3.672  16.747  0.00  0.00    +0.000 A 
ATOM      4  C   UNL     1      47.335   4.409  15.577  0.00  0.00    +0.000 A 
ATOM      5  N   UNL     1      46.577   4.063  14.455  0.00  0.00    +0.000 N 
ATOM      6  N   UNL     1      48.211   5.428  15.534  0.00  0.00    +0.000 NA
ATOM      7  C   UNL     1      48.894   5.725  16.677  0.00  0.00    +0.000 A 
ATOM      8  H   UNL     1      46.815   3.132  14.119  0.00  0.00    +0.000 HD
ENDROOT
BRANCH   1  10
ATOM      9  N   UNL     1      50.868   5.393  18.985  0.00  0.00    +0.000 N 
ATOM     10  C   UNL     1      49.505   5.479  19.061  0.00  0.00    +0.000 C 
ATOM     11  O   UNL     1      48.955   5.922  20.060  0.00  0.00    +0.000 OA
ATOM     12  H   UNL     1      51.389   5.781  19.761  0.00  0.00    +0.000 HD
ATOM     13  H   UNL     1      51.361   5.259  18.113  0.00  0.00    +0.000 HD
ENDBRANCH   1  10
BRANCH   5  14
ATOM     14  C   UNL     1      46.445   5.072  13.388  0.00  0.00    +0.000 C 
BRANCH  14  15
ATOM     15  C   UNL     1      45.025   5.065  12.760  0.00  0.00    +0.000 C 
ATOM     16  F   UNL     1      44.201   4.362  13.601  0.00  0.00    +0.000 F 
ATOM     17  F   UNL     1      44.531   6.343  12.784  0.00  0.00    +0.000 F 
BRANCH  15  18
ATOM     18  C   UNL     1      45.010   4.497  11.353  0.00  0.00    +0.000 A 
ATOM     19  C   UNL     1      44.487   3.221  11.096  0.00  0.00    +0.000 A 
ATOM     20  C   UNL     1      44.430   2.720   9.794  0.00  0.00    +0.000 A 
ATOM     21  C   UNL     1      44.897   3.494   8.730  0.00  0.00    +0.000 A 
ATOM     22  C   UNL     1      45.433   4.757   8.969  0.00  0.00    +0.000 A 
ATOM     23  C   UNL     1      45.494   5.256  10.274  0.00  0.00    +0.000 A 
ENDBRANCH  15  18
ENDBRANCH  14  15
ENDBRANCH   5  14
TORSDOF 4
ENDMDL
