MODEL 1
REMARK VINA RESULT:    -7.672      0.000      0.000
REMARK INTER + INTRA:         -11.128
REMARK INTER:                 -10.364
REMARK INTRA:                  -0.765
REMARK UNBOUND:                -0.765
REMARK  Name = 
REMARK  9 active torsions:
REMARK  status: ('A' for Active; 'I' for Inactive)
REMARK    1  A    between atoms: C_1  and  C_2
REMARK    2  A    between atoms: N_6  and  C_7
REMARK    3  A    between atoms: C_7  and  C_8
REMARK    4  A    between atoms: C_8  and  C_9
REMARK    5  A    between atoms: C_8  and  C_10
REMARK    6  A    between atoms: C_8  and  C_11
REMARK    7  A    between atoms: C_15  and  O_16
REMARK    8  A    between atoms: O_16  and  C_17
REMARK    9  A    between atoms: C_23  and  C_24
REMARK                            x       y       z     vdW  Elec       q    Type
REMARK                         _______ _______ _______ _____ _____    ______ ____
ROOT
ATOM      1  C   UNL     1      46.352   6.071  13.486  0.00  0.00    +0.000 C 
ENDROOT
BRANCH   1   7
ATOM      2  C   UNL     1      50.553   4.535  18.227  0.00  0.00    +0.000 C 
ATOM      3  C   UNL     1      49.684   5.092  17.145  0.00  0.00    +0.000 A 
ATOM      4  N   UNL     1      50.000   6.346  16.726  0.00  0.00    +0.000 NA
ATOM      5  C   UNL     1      49.224   6.851  15.739  0.00  0.00    +0.000 A 
ATOM      6  C   UNL     1      48.140   6.180  15.167  0.00  0.00    +0.000 A 
ATOM      7  N   UNL     1      47.439   6.805  14.132  0.00  0.00    +0.000 N 
ATOM      8  N   UNL     1      47.831   4.933  15.569  0.00  0.00    +0.000 NA
ATOM      9  C   UNL     1      48.613   4.402  16.569  0.00  0.00    +0.000 A 
ATOM     10  H   UNL     1      47.199   7.757  14.387  0.00  0.00    +0.000 HD
BRANCH   9  11
ATOM     11  C   UNL     1      48.231   3.014  16.995  0.00  0.00    +0.000 C 
ATOM     12  N   UNL     1      47.215   2.949  17.914  0.00  0.00    +0.000 N 
ATOM     13  O   UNL     1      48.761   1.994  16.580  0.00  0.00    +0.000 OA
ATOM     14  H   UNL     1      46.773   3.804  18.232  0.00  0.00    +0.000 HD
ATOM     15  H   UNL     1      46.890   2.048  18.236  0.00  0.00    +0.000 HD
ENDBRANCH   9  11
ENDBRANCH   1   7
BRANCH   1  16
ATOM     16  C   UNL     1      46.137   6.528  11.997  0.00  0.00    +0.000 C 
ATOM     17  C   UNL     1      45.224   7.778  12.047  0.00  0.00    +0.000 C 
ATOM     18  C   UNL     1      47.504   6.965  11.410  0.00  0.00    +0.000 C 
BRANCH  16  19
ATOM     19  C   UNL     1      45.492   5.475  11.066  0.00  0.00    +0.000 A 
ATOM     20  C   UNL     1      44.439   4.665  11.532  0.00  0.00    +0.000 A 
ATOM     21  C   UNL     1      43.807   3.736  10.699  0.00  0.00    +0.000 A 
ATOM     22  C   UNL     1      44.205   3.599   9.371  0.00  0.00    +0.000 A 
ATOM     23  C   UNL     1      45.248   4.376   8.887  0.00  0.00    +0.000 A 
ATOM     24  C   UNL     1      45.889   5.292   9.729  0.00  0.00    +0.000 A 
BRANCH  23  25
ATOM     25  O   UNL     1      45.669   4.374   7.579  0.00  0.00    +0.000 OA
BRANCH  25  26
ATOM     26  C   UNL     1      46.824   3.587   7.236  0.00  0.00    +0.000 C 
ATOM     27  C   UNL     1      46.806   3.001   5.815  0.00  0.00    +0.000 C 
ATOM     28  C   UNL     1      47.232   1.709   6.502  0.00  0.00    +0.000 C 
ATOM     29  O   UNL     1      46.847   2.238   7.794  0.00  0.00    +0.000 OA
ENDBRANCH  25  26
ENDBRANCH  23  25
ENDBRANCH  16  19
ENDBRANCH   1  16
TORSDOF 6
ENDMDL
MODEL 2
REMARK VINA RESULT:    -7.479      1.690      2.467
REMARK INTER + INTRA:         -10.867
REMARK INTER:                 -10.120
REMARK INTRA:                  -0.747
REMARK UNBOUND:                -0.765
REMARK  Name = 
REMARK  9 active torsions:
REMARK  status: ('A' for Active; 'I' for Inactive)
REMARK    1  A    between atoms: C_1  and  C_2
REMARK    2  A    between atoms: N_6  and  C_7
REMARK    3  A    between atoms: C_7  and  C_8
REMARK    4  A    between atoms: C_8  and  C_9
REMARK    5  A    between atoms: C_8  and  C_10
REMARK    6  A    between atoms: C_8  and  C_11
REMARK    7  A    between atoms: C_15  and  O_16
REMARK    8  A    between atoms: O_16  and  C_17
REMARK    9  A    between atoms: C_23  and  C_24
REMARK                            x       y       z     vdW  Elec       q    Type
REMARK                         _______ _______ _______ _____ _____    ______ ____
ROOT
ATOM      1  C   UNL     1      46.556   5.670  12.724  0.00  0.00    +0.000 C 
ENDROOT
BRANCH   1   7
ATOM      2  C   UNL     1      49.691   5.279  18.426  0.00  0.00    +0.000 C 
ATOM      3  C   UNL     1      48.877   5.172  17.175  0.00  0.00    +0.000 A 
ATOM      4  N   UNL     1      47.995   4.139  17.136  0.00  0.00    +0.000 NA
ATOM      5  C   UNL     1      47.247   4.043  16.012  0.00  0.00    +0.000 A 
ATOM      6  C   UNL     1      47.351   4.910  14.921  0.00  0.00    +0.000 A 
ATOM      7  N   UNL     1      46.497   4.718  13.832  0.00  0.00    +0.000 N 
ATOM      8  N   UNL     1      48.214   5.944  14.960  0.00  0.00    +0.000 NA
ATOM      9  C   UNL     1      48.978   6.058  16.099  0.00  0.00    +0.000 A 
ATOM     10  H   UNL     1      46.502   3.746  13.541  0.00  0.00    +0.000 HD
BRANCH   9  11
ATOM     11  C   UNL     1      49.933   7.217  16.100  0.00  0.00    +0.000 C 
ATOM     12  N   UNL     1      51.117   6.993  15.446  0.00  0.00    +0.000 N 
ATOM     13  O   UNL     1      49.710   8.294  16.633  0.00  0.00    +0.000 OA
ATOM     14  H   UNL     1      51.277   6.101  14.992  0.00  0.00    +0.000 HD
ATOM     15  H   UNL     1      51.803   7.732  15.388  0.00  0.00    +0.000 HD
ENDBRANCH   9  11
ENDBRANCH   1   7
BRANCH   1  16
ATOM     16  C   UNL     1      45.203   5.729  11.925  0.00  0.00    +0.000 C 
ATOM     17  C   UNL     1      44.068   5.633  12.974  0.00  0.00    +0.000 C 
ATOM     18  C   UNL     1      45.093   7.113  11.236  0.00  0.00    +0.000 C 
BRANCH  16  19
ATOM     19  C   UNL     1      45.006   4.614  10.872  0.00  0.00    +0.000 A 
ATOM     20  C   UNL     1      44.356   3.414  11.220  0.00  0.00    +0.000 A 
ATOM     21  C   UNL     1      44.124   2.407  10.277  0.00  0.00    +0.000 A 
ATOM     22  C   UNL     1      44.527   2.578   8.955  0.00  0.00    +0.000 A 
ATOM     23  C   UNL     1      45.179   3.746   8.584  0.00  0.00    +0.000 A 
ATOM     24  C   UNL     1      45.424   4.743   9.535  0.00  0.00    +0.000 A 
BRANCH  23  25
ATOM     25  O   UNL     1      45.550   4.047   7.296  0.00  0.00    +0.000 OA
BRANCH  25  26
ATOM     26  C   UNL     1      46.857   3.642   6.851  0.00  0.00    +0.000 C 
ATOM     27  C   UNL     1      46.885   2.933   5.488  0.00  0.00    +0.000 C 
ATOM     28  C   UNL     1      47.787   1.929   6.194  0.00  0.00    +0.000 C 
ATOM     29  O   UNL     1      47.390   2.441   7.489  0.00  0.00    +0.000 OA
ENDBRANCH  25  26
ENDBRANCH  23  25
ENDBRANCH  16  19
ENDBRANCH   1  16
TORSDOF 6
ENDMDL
MODEL 3
REMARK VINA RESULT:    -7.092      1.566      2.208
REMARK INTER + INTRA:         -10.344
REMARK INTER:                  -9.688
REMARK INTRA:                  -0.657
REMARK UNBOUND:                -0.765
REMARK  Name = 
REMARK  9 active torsions:
REMARK  status: ('A' for Active; 'I' for Inactive)
REMARK    1  A    between atoms: C_1  and  C_2
REMARK    2  A    between atoms: N_6  and  C_7
REMARK    3  A    between atoms: C_7  and  C_8
REMARK    4  A    between atoms: C_8  and  C_9
REMARK    5  A    between atoms: C_8  and  C_10
REMARK    6  A    between atoms: C_8  and  C_11
REMARK    7  A    between atoms: C_15  and  O_16
REMARK    8  A    between atoms: O_16  and  C_17
REMARK    9  A    between atoms: C_23  and  C_24
REMARK                            x       y       z     vdW  Elec       q    Type
REMARK                         _______ _______ _______ _____ _____    ______ ____
ROOT
ATOM      1  C   UNL     1      47.137   6.586  11.837  0.00  0.00    +0.000 C 
ENDROOT
BRANCH   1   7
ATOM      2  C   UNL     1      49.573   8.678  17.509  0.00  0.00    +0.000 C 
ATOM      3  C   UNL     1      48.977   8.416  16.162  0.00  0.00    +0.000 A 
ATOM      4  N   UNL     1      48.707   9.519  15.416  0.00  0.00    +0.000 NA
ATOM      5  C   UNL     1      48.178   9.288  14.191  0.00  0.00    +0.000 A 
ATOM      6  C   UNL     1      47.888   8.019  13.685  0.00  0.00    +0.000 A 
ATOM      7  N   UNL     1      47.371   7.918  12.391  0.00  0.00    +0.000 N 
ATOM      8  N   UNL     1      48.166   6.922  14.415  0.00  0.00    +0.000 NA
ATOM      9  C   UNL     1      48.709   7.139  15.661  0.00  0.00    +0.000 A 
ATOM     10  H   UNL     1      46.595   8.560  12.265  0.00  0.00    +0.000 HD
BRANCH   9  11
ATOM     11  C   UNL     1      48.997   5.892  16.446  0.00  0.00    +0.000 C 
ATOM     12  N   UNL     1      47.905   5.320  17.046  0.00  0.00    +0.000 N 
ATOM     13  O   UNL     1      50.107   5.394  16.567  0.00  0.00    +0.000 OA
ATOM     14  H   UNL     1      46.990   5.735  16.919  0.00  0.00    +0.000 HD
ATOM     15  H   UNL     1      48.016   4.468  17.577  0.00  0.00    +0.000 HD
ENDBRANCH   9  11
ENDBRANCH   1   7
BRANCH   1  16
ATOM     16  C   UNL     1      45.604   6.239  11.766  0.00  0.00    +0.000 C 
ATOM     17  C   UNL     1      45.166   5.885  13.208  0.00  0.00    +0.000 C 
ATOM     18  C   UNL     1      44.828   7.510  11.334  0.00  0.00    +0.000 C 
BRANCH  16  19
ATOM     19  C   UNL     1      45.232   5.068  10.828  0.00  0.00    +0.000 A 
ATOM     20  C   UNL     1      44.425   4.012  11.295  0.00  0.00    +0.000 A 
ATOM     21  C   UNL     1      44.036   2.963  10.456  0.00  0.00    +0.000 A 
ATOM     22  C   UNL     1      44.435   2.945   9.122  0.00  0.00    +0.000 A 
ATOM     23  C   UNL     1      45.240   3.966   8.636  0.00  0.00    +0.000 A 
ATOM     24  C   UNL     1      45.642   5.005   9.484  0.00  0.00    +0.000 A 
BRANCH  23  25
ATOM     25  O   UNL     1      45.627   4.085   7.324  0.00  0.00    +0.000 OA
BRANCH  25  26
ATOM     26  C   UNL     1      46.899   3.533   6.936  0.00  0.00    +0.000 C 
ATOM     27  C   UNL     1      46.915   2.857   5.555  0.00  0.00    +0.000 C 
ATOM     28  C   UNL     1      47.651   1.735   6.279  0.00  0.00    +0.000 C 
ATOM     29  O   UNL     1      47.247   2.263   7.565  0.00  0.00    +0.000 OA
ENDBRANCH  25  26
ENDBRANCH  23  25
ENDBRANCH  16  19
ENDBRANCH   1  16
TORSDOF 6
ENDMDL
MODEL 4
REMARK VINA RESULT:    -7.086      1.224      1.631
REMARK INTER + INTRA:         -10.336
REMARK INTER:                  -9.549
REMARK INTRA:                  -0.787
REMARK UNBOUND:                -0.765
REMARK  Name = 
REMARK  9 active torsions:
REMARK  status: ('A' for Active; 'I' for Inactive)
REMARK    1  A    between atoms: C_1  and  C_2
REMARK    2  A    between atoms: N_6  and  C_7
REMARK    3  A    between atoms: C_7  and  C_8
REMARK    4  A    between atoms: C_8  and  C_9
REMARK    5  A    between atoms: C_8  and  C_10
REMARK    6  A    between atoms: C_8  and  C_11
REMARK    7  A    between atoms: C_15  and  O_16
REMARK    8  A    between atoms: O_16  and  C_17
REMARK    9  A    between atoms: C_23  and  C_24
REMARK                            x       y       z     vdW  Elec       q    Type
REMARK                         _______ _______ _______ _____ _____    ______ ____
ROOT
ATOM      1  C   UNL     1      47.554   6.109  13.716  0.00  0.00    +0.000 C 
ENDROOT
BRANCH   1   7
ATOM      2  C   UNL     1      50.079   5.047  19.631  0.00  0.00    +0.000 C 
ATOM      3  C   UNL     1      49.543   5.508  18.313  0.00  0.00    +0.000 A 
ATOM      4  N   UNL     1      49.723   6.827  18.036  0.00  0.00    +0.000 NA
ATOM      5  C   UNL     1      49.250   7.249  16.840  0.00  0.00    +0.000 A 
ATOM      6  C   UNL     1      48.590   6.429  15.920  0.00  0.00    +0.000 A 
ATOM      7  N   UNL     1      48.178   6.985  14.706  0.00  0.00    +0.000 N 
ATOM      8  N   UNL     1      48.421   5.119  16.184  0.00  0.00    +0.000 NA
ATOM      9  C   UNL     1      48.901   4.673  17.394  0.00  0.00    +0.000 A 
ATOM     10  H   UNL     1      47.677   7.853  14.863  0.00  0.00    +0.000 HD
BRANCH   9  11
ATOM     11  C   UNL     1      48.686   3.210  17.654  0.00  0.00    +0.000 C 
ATOM     12  N   UNL     1      47.440   2.881  18.122  0.00  0.00    +0.000 N 
ATOM     13  O   UNL     1      49.532   2.346  17.475  0.00  0.00    +0.000 OA
ATOM     14  H   UNL     1      46.744   3.609  18.245  0.00  0.00    +0.000 HD
ATOM     15  H   UNL     1      47.213   1.914  18.304  0.00  0.00    +0.000 HD
ENDBRANCH   9  11
ENDBRANCH   1   7
BRANCH   1  16
ATOM     16  C   UNL     1      46.818   6.924  12.590  0.00  0.00    +0.000 C 
ATOM     17  C   UNL     1      46.306   8.226  13.252  0.00  0.00    +0.000 C 
ATOM     18  C   UNL     1      47.855   7.320  11.507  0.00  0.00    +0.000 C 
BRANCH  16  19
ATOM     19  C   UNL     1      45.627   6.201  11.919  0.00  0.00    +0.000 A 
ATOM     20  C   UNL     1      44.351   6.797  11.907  0.00  0.00    +0.000 A 
ATOM     21  C   UNL     1      43.266   6.187  11.269  0.00  0.00    +0.000 A 
ATOM     22  C   UNL     1      43.429   4.968  10.615  0.00  0.00    +0.000 A 
ATOM     23  C   UNL     1      44.674   4.352  10.620  0.00  0.00    +0.000 A 
ATOM     24  C   UNL     1      45.753   4.958  11.274  0.00  0.00    +0.000 A 
BRANCH  23  25
ATOM     25  O   UNL     1      44.962   3.191   9.945  0.00  0.00    +0.000 OA
BRANCH  25  26
ATOM     26  C   UNL     1      45.054   3.242   8.510  0.00  0.00    +0.000 C 
ATOM     27  C   UNL     1      46.153   2.354   7.902  0.00  0.00    +0.000 C 
ATOM     28  C   UNL     1      46.492   3.592   7.081  0.00  0.00    +0.000 C 
ATOM     29  O   UNL     1      45.711   4.428   7.968  0.00  0.00    +0.000 OA
ENDBRANCH  25  26
ENDBRANCH  23  25
ENDBRANCH  16  19
ENDBRANCH   1  16
TORSDOF 6
ENDMDL
MODEL 5
REMARK VINA RESULT:    -7.024      2.000      3.483
REMARK INTER + INTRA:         -10.252
REMARK INTER:                  -9.037
REMARK INTRA:                  -1.216
REMARK UNBOUND:                -0.765
REMARK  Name = 
REMARK  9 active torsions:
REMARK  status: ('A' for Active; 'I' for Inactive)
REMARK    1  A    between atoms: C_1  and  C_2
REMARK    2  A    between atoms: N_6  and  C_7
REMARK    3  A    between atoms: C_7  and  C_8
REMARK    4  A    between atoms: C_8  and  C_9
REMARK    5  A    between atoms: C_8  and  C_10
REMARK    6  A    between atoms: C_8  and  C_11
REMARK    7  A    between atoms: C_15  and  O_16
REMARK    8  A    between atoms: O_16  and  C_17
REMARK    9  A    between atoms: C_23  and  C_24
REMARK                            x       y       z     vdW  Elec       q    Type
REMARK                         _______ _______ _______ _____ _____    ______ ____
ROOT
ATOM      1  C   UNL     1      49.942   7.959  13.257  0.00  0.00    +0.000 C 
ENDROOT
BRANCH   1   7
ATOM      2  C   UNL     1      47.192   3.974  17.620  0.00  0.00    +0.000 C 
ATOM      3  C   UNL     1      47.890   5.009  16.797  0.00  0.00    +0.000 A 
ATOM      4  N   UNL     1      48.600   5.933  17.496  0.00  0.00    +0.000 NA
ATOM      5  C   UNL     1      49.244   6.867  16.757  0.00  0.00    +0.000 A 
ATOM      6  C   UNL     1      49.198   6.936  15.362  0.00  0.00    +0.000 A 
ATOM      7  N   UNL     1      49.934   7.934  14.718  0.00  0.00    +0.000 N 
ATOM      8  N   UNL     1      48.506   6.015  14.664  0.00  0.00    +0.000 NA
ATOM      9  C   UNL     1      47.849   5.057  15.401  0.00  0.00    +0.000 A 
ATOM     10  H   UNL     1      49.761   8.838  15.146  0.00  0.00    +0.000 HD
BRANCH   9  11
ATOM     11  C   UNL     1      47.084   4.054  14.586  0.00  0.00    +0.000 C 
ATOM     12  N   UNL     1      45.875   4.494  14.112  0.00  0.00    +0.000 N 
ATOM     13  O   UNL     1      47.474   2.921  14.342  0.00  0.00    +0.000 OA
ATOM     14  H   UNL     1      45.577   5.443  14.308  0.00  0.00    +0.000 HD
ATOM     15  H   UNL     1      45.310   3.882  13.541  0.00  0.00    +0.000 HD
ENDBRANCH   9  11
ENDBRANCH   1   7
BRANCH   1  16
ATOM     16  C   UNL     1      48.934   9.020  12.681  0.00  0.00    +0.000 C 
ATOM     17  C   UNL     1      48.796  10.125  13.758  0.00  0.00    +0.000 C 
ATOM     18  C   UNL     1      49.560   9.666  11.419  0.00  0.00    +0.000 C 
BRANCH  16  19
ATOM     19  C   UNL     1      47.527   8.479  12.337  0.00  0.00    +0.000 A 
ATOM     20  C   UNL     1      46.400   9.318  12.433  0.00  0.00    +0.000 A 
ATOM     21  C   UNL     1      45.122   8.868  12.085  0.00  0.00    +0.000 A 
ATOM     22  C   UNL     1      44.937   7.568  11.620  0.00  0.00    +0.000 A 
ATOM     23  C   UNL     1      46.028   6.715  11.525  0.00  0.00    +0.000 A 
ATOM     24  C   UNL     1      47.303   7.164  11.891  0.00  0.00    +0.000 A 
BRANCH  23  25
ATOM     25  O   UNL     1      45.970   5.443  11.010  0.00  0.00    +0.000 OA
BRANCH  25  26
ATOM     26  C   UNL     1      45.153   5.215   9.848  0.00  0.00    +0.000 C 
ATOM     27  C   UNL     1      44.582   3.792   9.729  0.00  0.00    +0.000 C 
ATOM     28  C   UNL     1      45.056   3.883   8.284  0.00  0.00    +0.000 C 
ATOM     29  O   UNL     1      45.884   5.028   8.598  0.00  0.00    +0.000 OA
ENDBRANCH  25  26
ENDBRANCH  23  25
ENDBRANCH  16  19
ENDBRANCH   1  16
TORSDOF 6
ENDMDL
MODEL 6
REMARK VINA RESULT:    -6.987      1.646      2.594
REMARK INTER + INTRA:         -10.202
REMARK INTER:                  -9.272
REMARK INTRA:                  -0.930
REMARK UNBOUND:                -0.765
REMARK  Name = 
REMARK  9 active torsions:
REMARK  status: ('A' for Active; 'I' for Inactive)
REMARK    1  A    between atoms: C_1  and  C_2
REMARK    2  A    between atoms: N_6  and  C_7
REMARK    3  A    between atoms: C_7  and  C_8
REMARK    4  A    between atoms: C_8  and  C_9
REMARK    5  A    between atoms: C_8  and  C_10
REMARK    6  A    between atoms: C_8  and  C_11
REMARK    7  A    between atoms: C_15  and  O_16
REMARK    8  A    between atoms: O_16  and  C_17
REMARK    9  A    between atoms: C_23  and  C_24
REMARK                            x       y       z     vdW  Elec       q    Type
REMARK                         _______ _______ _______ _____ _____    ______ ____
ROOT
ATOM      1  C   UNL     1      48.975   6.777  13.570  0.00  0.00    +0.000 C 
ENDROOT
BRANCH   1   7
ATOM      2  C   UNL     1      48.645   4.545  19.685  0.00  0.00    +0.000 C 
ATOM      3  C   UNL     1      48.791   5.251  18.375  0.00  0.00    +0.000 A 
ATOM      4  N   UNL     1      49.345   6.490  18.435  0.00  0.00    +0.000 NA
ATOM      5  C   UNL     1      49.490   7.130  17.250  0.00  0.00    +0.000 A 
ATOM      6  C   UNL     1      49.091   6.606  16.018  0.00  0.00    +0.000 A 
ATOM      7  N   UNL     1      49.326   7.359  14.865  0.00  0.00    +0.000 N 
ATOM      8  N   UNL     1      48.553   5.373  15.952  0.00  0.00    +0.000 NA
ATOM      9  C   UNL     1      48.404   4.707  17.147  0.00  0.00    +0.000 A 
ATOM     10  H   UNL     1      49.004   8.313  14.989  0.00  0.00    +0.000 HD
BRANCH   9  11
ATOM     11  C   UNL     1      47.793   3.340  17.031  0.00  0.00    +0.000 C 
ATOM     12  N   UNL     1      48.648   2.359  16.598  0.00  0.00    +0.000 N 
ATOM     13  O   UNL     1      46.628   3.080  17.293  0.00  0.00    +0.000 OA
ATOM     14  H   UNL     1      49.616   2.588  16.406  0.00  0.00    +0.000 HD
ATOM     15  H   UNL     1      48.315   1.409  16.512  0.00  0.00    +0.000 HD
ENDBRANCH   9  11
ENDBRANCH   1   7
BRANCH   1  16
ATOM     16  C   UNL     1      48.239   7.811  12.641  0.00  0.00    +0.000 C 
ATOM     17  C   UNL     1      48.109   9.121  13.457  0.00  0.00    +0.000 C 
ATOM     18  C   UNL     1      49.141   8.105  11.415  0.00  0.00    +0.000 C 
BRANCH  16  19
ATOM     19  C   UNL     1      46.836   7.384  12.154  0.00  0.00    +0.000 A 
ATOM     20  C   UNL     1      45.785   8.320  12.104  0.00  0.00    +0.000 A 
ATOM     21  C   UNL     1      44.518   7.972  11.626  0.00  0.00    +0.000 A 
ATOM     22  C   UNL     1      44.268   6.679  11.173  0.00  0.00    +0.000 A 
ATOM     23  C   UNL     1      45.282   5.731  11.221  0.00  0.00    +0.000 A 
ATOM     24  C   UNL     1      46.543   6.079  11.717  0.00  0.00    +0.000 A 
BRANCH  23  25
ATOM     25  O   UNL     1      45.165   4.452  10.733  0.00  0.00    +0.000 OA
BRANCH  25  26
ATOM     26  C   UNL     1      44.818   4.281   9.347  0.00  0.00    +0.000 C 
ATOM     27  C   UNL     1      45.042   2.863   8.796  0.00  0.00    +0.000 C 
ATOM     28  C   UNL     1      45.698   3.583   7.624  0.00  0.00    +0.000 C 
ATOM     29  O   UNL     1      45.786   4.808   8.390  0.00  0.00    +0.000 OA
ENDBRANCH  25  26
ENDBRANCH  23  25
ENDBRANCH  16  19
ENDBRANCH   1  16
TORSDOF 6
ENDMDL
MODEL 7
REMARK VINA RESULT:    -6.882      1.790      2.502
REMARK INTER + INTRA:         -10.060
REMARK INTER:                  -9.317
REMARK INTRA:                  -0.743
REMARK UNBOUND:                -0.765
REMARK  Name = 
REMARK  9 active torsions:
REMARK  status: ('A' for Active; 'I' for Inactive)
REMARK    1  A    between atoms: C_1  and  C_2
REMARK    2  A    between atoms: N_6  and  C_7
REMARK    3  A    between atoms: C_7  and  C_8
REMARK    4  A    between atoms: C_8  and  C_9
REMARK    5  A    between atoms: C_8  and  C_10
REMARK    6  A    between atoms: C_8  and  C_11
REMARK    7  A    between atoms: C_15  and  O_16
REMARK    8  A    between atoms: O_16  and  C_17
REMARK    9  A    between atoms: C_23  and  C_24
REMARK                            x       y       z     vdW  Elec       q    Type
REMARK                         _______ _______ _______ _____ _____    ______ ____
ROOT
ATOM      1  C   UNL     1      47.517   6.058  13.387  0.00  0.00    +0.000 C 
ENDROOT
BRANCH   1   7
ATOM      2  C   UNL     1      49.075   4.093  19.403  0.00  0.00    +0.000 C 
ATOM      3  C   UNL     1      48.556   4.386  18.031  0.00  0.00    +0.000 A 
ATOM      4  N   UNL     1      47.428   3.716  17.675  0.00  0.00    +0.000 NA
ATOM      5  C   UNL     1      46.948   3.985  16.439  0.00  0.00    +0.000 A 
ATOM      6  C   UNL     1      47.546   4.868  15.536  0.00  0.00    +0.000 A 
ATOM      7  N   UNL     1      46.929   5.079  14.300  0.00  0.00    +0.000 N 
ATOM      8  N   UNL     1      48.656   5.544  15.889  0.00  0.00    +0.000 NA
ATOM      9  C   UNL     1      49.155   5.285  17.145  0.00  0.00    +0.000 A 
ATOM     10  H   UNL     1      46.696   4.194  13.862  0.00  0.00    +0.000 HD
BRANCH   9  11
ATOM     11  C   UNL     1      50.397   6.052  17.497  0.00  0.00    +0.000 C 
ATOM     12  N   UNL     1      51.570   5.483  17.070  0.00  0.00    +0.000 N 
ATOM     13  O   UNL     1      50.406   7.105  18.116  0.00  0.00    +0.000 OA
ATOM     14  H   UNL     1      51.542   4.619  16.539  0.00  0.00    +0.000 HD
ATOM     15  H   UNL     1      52.447   5.949  17.253  0.00  0.00    +0.000 HD
ENDBRANCH   9  11
ENDBRANCH   1   7
BRANCH   1  16
ATOM     16  C   UNL     1      46.462   6.611  12.360  0.00  0.00    +0.000 C 
ATOM     17  C   UNL     1      45.925   7.938  12.952  0.00  0.00    +0.000 C 
ATOM     18  C   UNL     1      47.190   6.947  11.033  0.00  0.00    +0.000 C 
BRANCH  16  19
ATOM     19  C   UNL     1      45.267   5.675  12.066  0.00  0.00    +0.000 A 
ATOM     20  C   UNL     1      44.092   5.760  12.837  0.00  0.00    +0.000 A 
ATOM     21  C   UNL     1      42.979   4.956  12.565  0.00  0.00    +0.000 A 
ATOM     22  C   UNL     1      43.008   4.052  11.506  0.00  0.00    +0.000 A 
ATOM     23  C   UNL     1      44.157   3.938  10.736  0.00  0.00    +0.000 A 
ATOM     24  C   UNL     1      45.274   4.732  11.022  0.00  0.00    +0.000 A 
BRANCH  23  25
ATOM     25  O   UNL     1      44.266   3.135   9.627  0.00  0.00    +0.000 OA
BRANCH  25  26
ATOM     26  C   UNL     1      45.583   2.823   9.138  0.00  0.00    +0.000 C 
ATOM     27  C   UNL     1      45.849   3.244   7.683  0.00  0.00    +0.000 C 
ATOM     28  C   UNL     1      46.429   1.842   7.540  0.00  0.00    +0.000 C 
ATOM     29  O   UNL     1      45.799   1.425   8.775  0.00  0.00    +0.000 OA
ENDBRANCH  25  26
ENDBRANCH  23  25
ENDBRANCH  16  19
ENDBRANCH   1  16
TORSDOF 6
ENDMDL
MODEL 8
REMARK VINA RESULT:    -6.673      3.870      4.611
REMARK INTER + INTRA:          -9.778
REMARK INTER:                  -9.022
REMARK INTRA:                  -0.756
REMARK UNBOUND:                -0.765
REMARK  Name = 
REMARK  9 active torsions:
REMARK  status: ('A' for Active; 'I' for Inactive)
REMARK    1  A    between atoms: C_1  and  C_2
REMARK    2  A    between atoms: N_6  and  C_7
REMARK    3  A    between atoms: C_7  and  C_8
REMARK    4  A    between atoms: C_8  and  C_9
REMARK    5  A    between atoms: C_8  and  C_10
REMARK    6  A    between atoms: C_8  and  C_11
REMARK    7  A    between atoms: C_15  and  O_16
REMARK    8  A    between atoms: O_16  and  C_17
REMARK    9  A    between atoms: C_23  and  C_24
REMARK                            x       y       z     vdW  Elec       q    Type
REMARK                         _______ _______ _______ _____ _____    ______ ____
ROOT
ATOM      1  C   UNL     1      46.551   6.524  11.682  0.00  0.00    +0.000 C 
ENDROOT
BRANCH   1   7
ATOM      2  C   UNL     1      50.879  11.360  12.283  0.00  0.00    +0.000 C 
ATOM      3  C   UNL     1      49.733  10.401  12.216  0.00  0.00    +0.000 A 
ATOM      4  N   UNL     1      48.506  10.936  12.449  0.00  0.00    +0.000 NA
ATOM      5  C   UNL     1      47.464  10.075  12.379  0.00  0.00    +0.000 A 
ATOM      6  C   UNL     1      47.587   8.710  12.110  0.00  0.00    +0.000 A 
ATOM      7  N   UNL     1      46.425   7.937  12.036  0.00  0.00    +0.000 N 
ATOM      8  N   UNL     1      48.799   8.177  11.865  0.00  0.00    +0.000 NA
ATOM      9  C   UNL     1      49.869   9.040  11.929  0.00  0.00    +0.000 A 
ATOM     10  H   UNL     1      45.829   8.110  12.838  0.00  0.00    +0.000 HD
BRANCH   9  11
ATOM     11  C   UNL     1      51.204   8.406  11.658  0.00  0.00    +0.000 C 
ATOM     12  N   UNL     1      51.900   8.023  12.775  0.00  0.00    +0.000 N 
ATOM     13  O   UNL     1      51.669   8.229  10.542  0.00  0.00    +0.000 OA
ATOM     14  H   UNL     1      51.490   8.160  13.692  0.00  0.00    +0.000 HD
ATOM     15  H   UNL     1      52.799   7.573  12.674  0.00  0.00    +0.000 HD
ENDBRANCH   9  11
ENDBRANCH   1   7
BRANCH   1  16
ATOM     16  C   UNL     1      45.173   5.771  11.769  0.00  0.00    +0.000 C 
ATOM     17  C   UNL     1      45.064   5.215  13.210  0.00  0.00    +0.000 C 
ATOM     18  C   UNL     1      44.032   6.801  11.572  0.00  0.00    +0.000 C 
BRANCH  16  19
ATOM     19  C   UNL     1      44.990   4.606  10.769  0.00  0.00    +0.000 A 
ATOM     20  C   UNL     1      44.378   3.406  11.180  0.00  0.00    +0.000 A 
ATOM     21  C   UNL     1      44.159   2.353  10.286  0.00  0.00    +0.000 A 
ATOM     22  C   UNL     1      44.537   2.475   8.950  0.00  0.00    +0.000 A 
ATOM     23  C   UNL     1      45.152   3.642   8.519  0.00  0.00    +0.000 A 
ATOM     24  C   UNL     1      45.385   4.687   9.421  0.00  0.00    +0.000 A 
BRANCH  23  25
ATOM     25  O   UNL     1      45.496   3.896   7.213  0.00  0.00    +0.000 OA
BRANCH  25  26
ATOM     26  C   UNL     1      46.841   3.601   6.793  0.00  0.00    +0.000 C 
ATOM     27  C   UNL     1      46.952   2.905   5.427  0.00  0.00    +0.000 C 
ATOM     28  C   UNL     1      47.920   1.974   6.147  0.00  0.00    +0.000 C 
ATOM     29  O   UNL     1      47.456   2.444   7.435  0.00  0.00    +0.000 OA
ENDBRANCH  25  26
ENDBRANCH  23  25
ENDBRANCH  16  19
ENDBRANCH   1  16
TORSDOF 6
ENDMDL
MODEL 9
REMARK VINA RESULT:    -6.567      3.451      5.119
REMARK INTER + INTRA:          -9.635
REMARK INTER:                  -8.112
REMARK INTRA:                  -1.523
REMARK UNBOUND:                -0.765
REMARK  Name = 
REMARK  9 active torsions:
REMARK  status: ('A' for Active; 'I' for Inactive)
REMARK    1  A    between atoms: C_1  and  C_2
REMARK    2  A    between atoms: N_6  and  C_7
REMARK    3  A    between atoms: C_7  and  C_8
REMARK    4  A    between atoms: C_8  and  C_9
REMARK    5  A    between atoms: C_8  and  C_10
REMARK    6  A    between atoms: C_8  and  C_11
REMARK    7  A    between atoms: C_15  and  O_16
REMARK    8  A    between atoms: O_16  and  C_17
REMARK    9  A    between atoms: C_23  and  C_24
REMARK                            x       y       z     vdW  Elec       q    Type
REMARK                         _______ _______ _______ _____ _____    ______ ____
ROOT
ATOM      1  C   UNL     1      48.618   8.301  14.262  0.00  0.00    +0.000 C 
ENDROOT
BRANCH   1   7
ATOM      2  C   UNL     1      50.108   5.226  19.813  0.00  0.00    +0.000 C 
ATOM      3  C   UNL     1      49.979   5.889  18.478  0.00  0.00    +0.000 A 
ATOM      4  N   UNL     1      51.052   5.760  17.653  0.00  0.00    +0.000 NA
ATOM      5  C   UNL     1      50.937   6.349  16.439  0.00  0.00    +0.000 A 
ATOM      6  C   UNL     1      49.820   7.074  16.018  0.00  0.00    +0.000 A 
ATOM      7  N   UNL     1      49.817   7.606  14.726  0.00  0.00    +0.000 N 
ATOM      8  N   UNL     1      48.749   7.193  16.827  0.00  0.00    +0.000 NA
ATOM      9  C   UNL     1      48.848   6.597  18.063  0.00  0.00    +0.000 A 
ATOM     10  H   UNL     1      50.681   8.107  14.544  0.00  0.00    +0.000 HD
BRANCH   9  11
ATOM     11  C   UNL     1      47.638   6.759  18.937  0.00  0.00    +0.000 C 
ATOM     12  N   UNL     1      47.569   7.948  19.616  0.00  0.00    +0.000 N 
ATOM     13  O   UNL     1      46.759   5.919  19.061  0.00  0.00    +0.000 OA
ATOM     14  H   UNL     1      48.297   8.642  19.485  0.00  0.00    +0.000 HD
ATOM     15  H   UNL     1      46.775   8.139  20.211  0.00  0.00    +0.000 HD
ENDBRANCH   9  11
ENDBRANCH   1   7
BRANCH   1  16
ATOM     16  C   UNL     1      48.150   7.789  12.850  0.00  0.00    +0.000 C 
ATOM     17  C   UNL     1      47.357   8.950  12.201  0.00  0.00    +0.000 C 
ATOM     18  C   UNL     1      49.404   7.528  11.977  0.00  0.00    +0.000 C 
BRANCH  16  19
ATOM     19  C   UNL     1      47.262   6.524  12.864  0.00  0.00    +0.000 A 
ATOM     20  C   UNL     1      46.255   6.351  11.895  0.00  0.00    +0.000 A 
ATOM     21  C   UNL     1      45.467   5.196  11.857  0.00  0.00    +0.000 A 
ATOM     22  C   UNL     1      45.672   4.175  12.782  0.00  0.00    +0.000 A 
ATOM     23  C   UNL     1      46.650   4.322  13.756  0.00  0.00    +0.000 A 
ATOM     24  C   UNL     1      47.425   5.487  13.801  0.00  0.00    +0.000 A 
BRANCH  23  25
ATOM     25  O   UNL     1      46.984   3.349  14.666  0.00  0.00    +0.000 OA
BRANCH  25  26
ATOM     26  C   UNL     1      47.383   3.759  15.987  0.00  0.00    +0.000 C 
ATOM     27  C   UNL     1      48.547   2.955  16.589  0.00  0.00    +0.000 C 
ATOM     28  C   UNL     1      47.671   2.902  17.834  0.00  0.00    +0.000 C 
ATOM     29  O   UNL     1      46.512   3.313  17.070  0.00  0.00    +0.000 OA
ENDBRANCH  25  26
ENDBRANCH  23  25
ENDBRANCH  16  19
ENDBRANCH   1  16
TORSDOF 6
ENDMDL
