MODEL 1
REMARK VINA RESULT:    -8.510      0.000      0.000
REMARK INTER + INTRA:         -14.304
REMARK INTER:                 -12.739
REMARK INTRA:                  -1.565
REMARK UNBOUND:                -1.565
REMARK  Name = 
REMARK  9 active torsions:
REMARK  status: ('A' for Active; 'I' for Inactive)
REMARK    1  A    between atoms: C_2  and  C_4
REMARK    2  A    between atoms: C_7  and  N_8
REMARK    3  A    between atoms: N_8  and  C_9
REMARK    4  A    between atoms: C_9  and  C_10
REMARK    5  A    between atoms: C_10  and  C_11
REMARK    6  A    between atoms: C_10  and  C_13
REMARK    7  A    between atoms: C_11  and  O_12
REMARK    8  A    between atoms: C_15  and  C_16
REMARK    9  A    between atoms: C_19  and  C_20
REMARK                            x       y       z     vdW  Elec       q    Type
REMARK                         _______ _______ _______ _____ _____    ______ ____
ROOT
ATOM      1  C   UNL     1      43.895   4.912  12.475  0.00  0.00    +0.000 C 
ENDROOT
BRANCH   1   2
ATOM      2  C   UNL     1      45.269   5.213  13.046  0.00  0.00    +0.000 A 
ATOM      3  C   UNL     1      46.080   6.221  12.520  0.00  0.00    +0.000 A 
ATOM      4  C   UNL     1      47.369   6.445  13.025  0.00  0.00    +0.000 A 
ATOM      5  C   UNL     1      47.779   5.621  14.079  0.00  0.00    +0.000 A 
ATOM      6  C   UNL     1      46.913   4.656  14.568  0.00  0.00    +0.000 A 
ATOM      7  N   UNL     1      45.674   4.440  14.081  0.00  0.00    +0.000 NA
BRANCH   4   8
ATOM      8  C   UNL     1      48.253   7.494  12.459  0.00  0.00    +0.000 A 
ATOM      9  C   UNL     1      47.753   8.754  12.082  0.00  0.00    +0.000 A 
ATOM     10  C   UNL     1      48.587   9.749  11.557  0.00  0.00    +0.000 A 
ATOM     11  C   UNL     1      49.953   9.513  11.376  0.00  0.00    +0.000 A 
ATOM     12  C   UNL     1      50.468   8.263  11.736  0.00  0.00    +0.000 A 
ATOM     13  C   UNL     1      49.632   7.277  12.275  0.00  0.00    +0.000 A 
BRANCH  11  14
ATOM     14  C   UNL     1      50.866  10.573  10.809  0.00  0.00    +0.000 C 
ATOM     15  F   UNL     1      51.563  11.256  11.758  0.00  0.00    +0.000 F 
ATOM     16  F   UNL     1      51.797  10.057   9.960  0.00  0.00    +0.000 F 
ATOM     17  F   UNL     1      50.189  11.514  10.094  0.00  0.00    +0.000 F 
ENDBRANCH  11  14
ENDBRANCH   4   8
ENDBRANCH   1   2
BRANCH   1  18
ATOM     18  C   UNL     1      43.834   5.221  10.969  0.00  0.00    +0.000 C 
BRANCH  18  19
ATOM     19  N   UNL     1      43.727   3.987  10.186  0.00  0.00    +0.000 N 
ATOM     20  H   UNL     1      43.392   3.183  10.715  0.00  0.00    +0.000 HD
BRANCH  19  24
ATOM     21  C   UNL     1      46.642   2.700   7.418  0.00  0.00    +0.000 A 
ATOM     22  C   UNL     1      46.352   4.061   7.520  0.00  0.00    +0.000 A 
ATOM     23  C   UNL     1      45.380   4.504   8.427  0.00  0.00    +0.000 A 
ATOM     24  C   UNL     1      44.713   3.610   9.273  0.00  0.00    +0.000 A 
ATOM     25  C   UNL     1      44.991   2.246   9.126  0.00  0.00    +0.000 A 
ATOM     26  C   UNL     1      45.939   1.786   8.203  0.00  0.00    +0.000 A 
BRANCH  21  28
ATOM     27  N   UNL     1      47.837   2.913   5.311  0.00  0.00    +0.000 N 
ATOM     28  C   UNL     1      47.660   2.196   6.460  0.00  0.00    +0.000 C 
ATOM     29  O   UNL     1      48.340   1.207   6.703  0.00  0.00    +0.000 OA
ATOM     30  H   UNL     1      48.599   2.623   4.712  0.00  0.00    +0.000 HD
ATOM     31  H   UNL     1      47.483   3.854   5.199  0.00  0.00    +0.000 HD
ENDBRANCH  21  28
ENDBRANCH  19  24
ENDBRANCH  18  19
ENDBRANCH   1  18
BRANCH   1  32
ATOM     32  C   UNL     1      43.460   3.472  12.803  0.00  0.00    +0.000 C 
BRANCH  32  33
ATOM     33  O   UNL     1      44.479   2.509  12.527  0.00  0.00    +0.000 OA
ATOM     34  H   UNL     1      44.381   2.250  11.595  0.00  0.00    +0.000 HD
ENDBRANCH  32  33
ENDBRANCH   1  32
TORSDOF 9
ENDMDL
MODEL 2
REMARK VINA RESULT:    -8.122      4.007      5.168
REMARK INTER + INTRA:         -13.723
REMARK INTER:                 -12.631
REMARK INTRA:                  -1.091
REMARK UNBOUND:                -1.565
REMARK  Name = 
REMARK  9 active torsions:
REMARK  status: ('A' for Active; 'I' for Inactive)
REMARK    1  A    between atoms: C_2  and  C_4
REMARK    2  A    between atoms: C_7  and  N_8
REMARK    3  A    between atoms: N_8  and  C_9
REMARK    4  A    between atoms: C_9  and  C_10
REMARK    5  A    between atoms: C_10  and  C_11
REMARK    6  A    between atoms: C_10  and  C_13
REMARK    7  A    between atoms: C_11  and  O_12
REMARK    8  A    between atoms: C_15  and  C_16
REMARK    9  A    between atoms: C_19  and  C_20
REMARK                            x       y       z     vdW  Elec       q    Type
REMARK                         _______ _______ _______ _____ _____    ______ ____
ROOT
ATOM      1  C   UNL     1      44.078   5.022  11.712  0.00  0.00    +0.000 C 
ENDROOT
BRANCH   1   2
ATOM      2  C   UNL     1      45.436   5.510  12.185  0.00  0.00    +0.000 A 
ATOM      3  C   UNL     1      45.933   5.189  13.450  0.00  0.00    +0.000 A 
ATOM      4  C   UNL     1      47.165   5.696  13.889  0.00  0.00    +0.000 A 
ATOM      5  C   UNL     1      47.858   6.517  12.993  0.00  0.00    +0.000 A 
ATOM      6  C   UNL     1      47.316   6.774  11.743  0.00  0.00    +0.000 A 
ATOM      7  N   UNL     1      46.131   6.287  11.322  0.00  0.00    +0.000 NA
BRANCH   4   8
ATOM      8  C   UNL     1      47.694   5.386  15.240  0.00  0.00    +0.000 A 
ATOM      9  C   UNL     1      48.679   6.185  15.848  0.00  0.00    +0.000 A 
ATOM     10  C   UNL     1      49.173   5.901  17.127  0.00  0.00    +0.000 A 
ATOM     11  C   UNL     1      48.707   4.793  17.841  0.00  0.00    +0.000 A 
ATOM     12  C   UNL     1      47.733   3.980  17.250  0.00  0.00    +0.000 A 
ATOM     13  C   UNL     1      47.233   4.278  15.977  0.00  0.00    +0.000 A 
BRANCH  11  14
ATOM     14  C   UNL     1      49.230   4.469  19.219  0.00  0.00    +0.000 C 
ATOM     15  F   UNL     1      49.072   5.484  20.113  0.00  0.00    +0.000 F 
ATOM     16  F   UNL     1      48.612   3.388  19.769  0.00  0.00    +0.000 F 
ATOM     17  F   UNL     1      50.560   4.179  19.216  0.00  0.00    +0.000 F 
ENDBRANCH  11  14
ENDBRANCH   4   8
ENDBRANCH   1   2
BRANCH   1  18
ATOM     18  C   UNL     1      44.040   3.488  11.602  0.00  0.00    +0.000 C 
BRANCH  18  19
ATOM     19  N   UNL     1      43.730   3.068  10.233  0.00  0.00    +0.000 N 
ATOM     20  H   UNL     1      43.066   2.297  10.171  0.00  0.00    +0.000 HD
BRANCH  19  24
ATOM     21  C   UNL     1      46.692   2.568   7.269  0.00  0.00    +0.000 A 
ATOM     22  C   UNL     1      46.138   3.832   7.473  0.00  0.00    +0.000 A 
ATOM     23  C   UNL     1      45.146   4.014   8.446  0.00  0.00    +0.000 A 
ATOM     24  C   UNL     1      44.721   2.955   9.258  0.00  0.00    +0.000 A 
ATOM     25  C   UNL     1      45.261   1.688   9.008  0.00  0.00    +0.000 A 
ATOM     26  C   UNL     1      46.233   1.486   8.019  0.00  0.00    +0.000 A 
BRANCH  21  28
ATOM     27  N   UNL     1      47.687   3.123   5.120  0.00  0.00    +0.000 N 
ATOM     28  C   UNL     1      47.738   2.340   6.239  0.00  0.00    +0.000 C 
ATOM     29  O   UNL     1      48.631   1.517   6.397  0.00  0.00    +0.000 OA
ATOM     30  H   UNL     1      48.458   3.032   4.471  0.00  0.00    +0.000 HD
ATOM     31  H   UNL     1      47.129   3.965   5.073  0.00  0.00    +0.000 HD
ENDBRANCH  21  28
ENDBRANCH  19  24
ENDBRANCH  18  19
ENDBRANCH   1  18
BRANCH   1  32
ATOM     32  C   UNL     1      42.948   5.581  12.595  0.00  0.00    +0.000 C 
BRANCH  32  33
ATOM     33  O   UNL     1      41.927   6.238  11.840  0.00  0.00    +0.000 OA
ATOM     34  H   UNL     1      42.019   7.192  12.006  0.00  0.00    +0.000 HD
ENDBRANCH  32  33
ENDBRANCH   1  32
TORSDOF 9
ENDMDL
MODEL 3
REMARK VINA RESULT:    -7.573      4.848      8.115
REMARK INTER + INTRA:         -12.901
REMARK INTER:                 -12.153
REMARK INTRA:                  -0.748
REMARK UNBOUND:                -1.565
REMARK  Name = 
REMARK  9 active torsions:
REMARK  status: ('A' for Active; 'I' for Inactive)
REMARK    1  A    between atoms: C_2  and  C_4
REMARK    2  A    between atoms: C_7  and  N_8
REMARK    3  A    between atoms: N_8  and  C_9
REMARK    4  A    between atoms: C_9  and  C_10
REMARK    5  A    between atoms: C_10  and  C_11
REMARK    6  A    between atoms: C_10  and  C_13
REMARK    7  A    between atoms: C_11  and  O_12
REMARK    8  A    between atoms: C_15  and  C_16
REMARK    9  A    between atoms: C_19  and  C_20
REMARK                            x       y       z     vdW  Elec       q    Type
REMARK                         _______ _______ _______ _____ _____    ______ ____
ROOT
ATOM      1  C   UNL     1      45.433   7.846  12.970  0.00  0.00    +0.000 C 
ENDROOT
BRANCH   1   2
ATOM      2  C   UNL     1      44.877   6.523  12.476  0.00  0.00    +0.000 A 
ATOM      3  C   UNL     1      45.408   5.872  11.361  0.00  0.00    +0.000 A 
ATOM      4  C   UNL     1      44.844   4.678  10.887  0.00  0.00    +0.000 A 
ATOM      5  C   UNL     1      43.745   4.181  11.597  0.00  0.00    +0.000 A 
ATOM      6  C   UNL     1      43.285   4.867  12.710  0.00  0.00    +0.000 A 
ATOM      7  N   UNL     1      43.827   6.016  13.164  0.00  0.00    +0.000 NA
BRANCH   4   8
ATOM      8  C   UNL     1      45.380   3.989   9.687  0.00  0.00    +0.000 A 
ATOM      9  C   UNL     1      45.320   2.590   9.552  0.00  0.00    +0.000 A 
ATOM     10  C   UNL     1      45.815   1.938   8.416  0.00  0.00    +0.000 A 
ATOM     11  C   UNL     1      46.406   2.664   7.377  0.00  0.00    +0.000 A 
ATOM     12  C   UNL     1      46.484   4.056   7.497  0.00  0.00    +0.000 A 
ATOM     13  C   UNL     1      45.973   4.704   8.629  0.00  0.00    +0.000 A 
BRANCH  11  14
ATOM     14  C   UNL     1      46.949   1.979   6.147  0.00  0.00    +0.000 C 
ATOM     15  F   UNL     1      46.343   2.372   4.993  0.00  0.00    +0.000 F 
ATOM     16  F   UNL     1      48.279   2.207   5.968  0.00  0.00    +0.000 F 
ATOM     17  F   UNL     1      46.806   0.625   6.201  0.00  0.00    +0.000 F 
ENDBRANCH  11  14
ENDBRANCH   4   8
ENDBRANCH   1   2
BRANCH   1  18
ATOM     18  C   UNL     1      46.935   7.740  13.289  0.00  0.00    +0.000 C 
BRANCH  18  19
ATOM     19  N   UNL     1      47.327   6.343  13.496  0.00  0.00    +0.000 N 
ATOM     20  H   UNL     1      46.742   5.667  13.006  0.00  0.00    +0.000 HD
BRANCH  19  24
ATOM     21  C   UNL     1      48.411   4.748  17.250  0.00  0.00    +0.000 A 
ATOM     22  C   UNL     1      49.025   5.919  16.803  0.00  0.00    +0.000 A 
ATOM     23  C   UNL     1      48.683   6.457  15.555  0.00  0.00    +0.000 A 
ATOM     24  C   UNL     1      47.701   5.865  14.752  0.00  0.00    +0.000 A 
ATOM     25  C   UNL     1      47.128   4.669  15.202  0.00  0.00    +0.000 A 
ATOM     26  C   UNL     1      47.480   4.105  16.435  0.00  0.00    +0.000 A 
BRANCH  21  28
ATOM     27  N   UNL     1      48.223   2.923  18.845  0.00  0.00    +0.000 N 
ATOM     28  C   UNL     1      48.757   4.148  18.564  0.00  0.00    +0.000 C 
ATOM     29  O   UNL     1      49.518   4.703  19.347  0.00  0.00    +0.000 OA
ATOM     30  H   UNL     1      48.541   2.476  19.695  0.00  0.00    +0.000 HD
ATOM     31  H   UNL     1      47.807   2.336  18.134  0.00  0.00    +0.000 HD
ENDBRANCH  21  28
ENDBRANCH  19  24
ENDBRANCH  18  19
ENDBRANCH   1  18
BRANCH   1  32
ATOM     32  C   UNL     1      45.116   8.985  11.983  0.00  0.00    +0.000 C 
BRANCH  32  33
ATOM     33  O   UNL     1      44.384  10.054  12.587  0.00  0.00    +0.000 OA
ATOM     34  H   UNL     1      44.418   9.916  13.549  0.00  0.00    +0.000 HD
ENDBRANCH  32  33
ENDBRANCH   1  32
TORSDOF 9
ENDMDL
MODEL 4
REMARK VINA RESULT:    -7.233      2.428      3.236
REMARK INTER + INTRA:         -12.393
REMARK INTER:                 -11.092
REMARK INTRA:                  -1.300
REMARK UNBOUND:                -1.565
REMARK  Name = 
REMARK  9 active torsions:
REMARK  status: ('A' for Active; 'I' for Inactive)
REMARK    1  A    between atoms: C_2  and  C_4
REMARK    2  A    between atoms: C_7  and  N_8
REMARK    3  A    between atoms: N_8  and  C_9
REMARK    4  A    between atoms: C_9  and  C_10
REMARK    5  A    between atoms: C_10  and  C_11
REMARK    6  A    between atoms: C_10  and  C_13
REMARK    7  A    between atoms: C_11  and  O_12
REMARK    8  A    between atoms: C_15  and  C_16
REMARK    9  A    between atoms: C_19  and  C_20
REMARK                            x       y       z     vdW  Elec       q    Type
REMARK                         _______ _______ _______ _____ _____    ______ ____
ROOT
ATOM      1  C   UNL     1      43.802   5.367  12.227  0.00  0.00    +0.000 C 
ENDROOT
BRANCH   1   2
ATOM      2  C   UNL     1      44.712   6.582  12.195  0.00  0.00    +0.000 A 
ATOM      3  C   UNL     1      45.953   6.589  12.835  0.00  0.00    +0.000 A 
ATOM      4  C   UNL     1      46.753   7.741  12.841  0.00  0.00    +0.000 A 
ATOM      5  C   UNL     1      46.247   8.857  12.166  0.00  0.00    +0.000 A 
ATOM      6  C   UNL     1      45.017   8.772  11.532  0.00  0.00    +0.000 A 
ATOM      7  N   UNL     1      44.248   7.664  11.527  0.00  0.00    +0.000 NA
BRANCH   4   8
ATOM      8  C   UNL     1      48.062   7.773  13.540  0.00  0.00    +0.000 A 
ATOM      9  C   UNL     1      48.326   6.948  14.648  0.00  0.00    +0.000 A 
ATOM     10  C   UNL     1      49.563   6.968  15.303  0.00  0.00    +0.000 A 
ATOM     11  C   UNL     1      50.581   7.830  14.880  0.00  0.00    +0.000 A 
ATOM     12  C   UNL     1      50.334   8.666  13.785  0.00  0.00    +0.000 A 
ATOM     13  C   UNL     1      49.099   8.630  13.125  0.00  0.00    +0.000 A 
BRANCH  11  14
ATOM     14  C   UNL     1      51.919   7.868  15.576  0.00  0.00    +0.000 C 
ATOM     15  F   UNL     1      51.848   8.285  16.870  0.00  0.00    +0.000 F 
ATOM     16  F   UNL     1      52.523   6.648  15.609  0.00  0.00    +0.000 F 
ATOM     17  F   UNL     1      52.801   8.706  14.962  0.00  0.00    +0.000 F 
ENDBRANCH  11  14
ENDBRANCH   4   8
ENDBRANCH   1   2
BRANCH   1  18
ATOM     18  C   UNL     1      43.383   4.943  10.809  0.00  0.00    +0.000 C 
BRANCH  18  19
ATOM     19  N   UNL     1      43.820   3.574  10.522  0.00  0.00    +0.000 N 
ATOM     20  H   UNL     1      44.062   3.029  11.349  0.00  0.00    +0.000 HD
BRANCH  19  24
ATOM     21  C   UNL     1      46.489   2.851   7.333  0.00  0.00    +0.000 A 
ATOM     22  C   UNL     1      45.994   1.772   8.067  0.00  0.00    +0.000 A 
ATOM     23  C   UNL     1      45.115   1.995   9.135  0.00  0.00    +0.000 A 
ATOM     24  C   UNL     1      44.682   3.285   9.463  0.00  0.00    +0.000 A 
ATOM     25  C   UNL     1      45.221   4.355   8.739  0.00  0.00    +0.000 A 
ATOM     26  C   UNL     1      46.123   4.149   7.688  0.00  0.00    +0.000 A 
BRANCH  21  28
ATOM     27  N   UNL     1      48.624   2.051   6.488  0.00  0.00    +0.000 N 
ATOM     28  C   UNL     1      47.430   2.649   6.201  0.00  0.00    +0.000 C 
ATOM     29  O   UNL     1      47.137   2.966   5.055  0.00  0.00    +0.000 OA
ATOM     30  H   UNL     1      49.216   1.826   5.699  0.00  0.00    +0.000 HD
ATOM     31  H   UNL     1      48.789   1.557   7.355  0.00  0.00    +0.000 HD
ENDBRANCH  21  28
ENDBRANCH  19  24
ENDBRANCH  18  19
ENDBRANCH   1  18
BRANCH   1  32
ATOM     32  C   UNL     1      44.440   4.216  13.026  0.00  0.00    +0.000 C 
BRANCH  32  33
ATOM     33  O   UNL     1      43.498   3.206  13.392  0.00  0.00    +0.000 OA
ATOM     34  H   UNL     1      42.643   3.649  13.529  0.00  0.00    +0.000 HD
ENDBRANCH  32  33
ENDBRANCH   1  32
TORSDOF 9
ENDMDL
MODEL 5
REMARK VINA RESULT:    -7.200      1.619      2.640
REMARK INTER + INTRA:         -12.343
REMARK INTER:                 -11.074
REMARK INTRA:                  -1.268
REMARK UNBOUND:                -1.565
REMARK  Name = 
REMARK  9 active torsions:
REMARK  status: ('A' for Active; 'I' for Inactive)
REMARK    1  A    between atoms: C_2  and  C_4
REMARK    2  A    between atoms: C_7  and  N_8
REMARK    3  A    between atoms: N_8  and  C_9
REMARK    4  A    between atoms: C_9  and  C_10
REMARK    5  A    between atoms: C_10  and  C_11
REMARK    6  A    between atoms: C_10  and  C_13
REMARK    7  A    between atoms: C_11  and  O_12
REMARK    8  A    between atoms: C_15  and  C_16
REMARK    9  A    between atoms: C_19  and  C_20
REMARK                            x       y       z     vdW  Elec       q    Type
REMARK                         _______ _______ _______ _____ _____    ______ ____
ROOT
ATOM      1  C   UNL     1      45.009   6.062  12.343  0.00  0.00    +0.000 C 
ENDROOT
BRANCH   1   2
ATOM      2  C   UNL     1      45.740   7.387  12.219  0.00  0.00    +0.000 A 
ATOM      3  C   UNL     1      47.097   7.452  11.897  0.00  0.00    +0.000 A 
ATOM      4  C   UNL     1      47.766   8.683  11.843  0.00  0.00    +0.000 A 
ATOM      5  C   UNL     1      47.000   9.823  12.111  0.00  0.00    +0.000 A 
ATOM      6  C   UNL     1      45.651   9.686  12.400  0.00  0.00    +0.000 A 
ATOM      7  N   UNL     1      45.009   8.502  12.453  0.00  0.00    +0.000 NA
BRANCH   4   8
ATOM      8  C   UNL     1      49.214   8.767  11.529  0.00  0.00    +0.000 A 
ATOM      9  C   UNL     1      49.850  10.001  11.307  0.00  0.00    +0.000 A 
ATOM     10  C   UNL     1      51.219  10.084  11.021  0.00  0.00    +0.000 A 
ATOM     11  C   UNL     1      52.000   8.927  10.933  0.00  0.00    +0.000 A 
ATOM     12  C   UNL     1      51.383   7.688  11.141  0.00  0.00    +0.000 A 
ATOM     13  C   UNL     1      50.017   7.614  11.442  0.00  0.00    +0.000 A 
BRANCH  11  14
ATOM     14  C   UNL     1      53.475   8.996  10.623  0.00  0.00    +0.000 C 
ATOM     15  F   UNL     1      53.848  10.150  10.004  0.00  0.00    +0.000 F 
ATOM     16  F   UNL     1      54.246   8.906  11.741  0.00  0.00    +0.000 F 
ATOM     17  F   UNL     1      53.883   7.986   9.804  0.00  0.00    +0.000 F 
ENDBRANCH  11  14
ENDBRANCH   4   8
ENDBRANCH   1   2
BRANCH   1  18
ATOM     18  C   UNL     1      44.224   5.731  11.061  0.00  0.00    +0.000 C 
BRANCH  18  19
ATOM     19  N   UNL     1      44.240   4.290  10.795  0.00  0.00    +0.000 N 
ATOM     20  H   UNL     1      44.329   3.711  11.630  0.00  0.00    +0.000 HD
BRANCH  19  24
ATOM     21  C   UNL     1      46.512   2.788   7.570  0.00  0.00    +0.000 A 
ATOM     22  C   UNL     1      45.894   1.893   8.446  0.00  0.00    +0.000 A 
ATOM     23  C   UNL     1      45.145   2.375   9.527  0.00  0.00    +0.000 A 
ATOM     24  C   UNL     1      44.963   3.748   9.731  0.00  0.00    +0.000 A 
ATOM     25  C   UNL     1      45.624   4.627   8.865  0.00  0.00    +0.000 A 
ATOM     26  C   UNL     1      46.400   4.159   7.797  0.00  0.00    +0.000 A 
BRANCH  21  28
ATOM     27  N   UNL     1      47.244   3.033   5.265  0.00  0.00    +0.000 N 
ATOM     28  C   UNL     1      47.321   2.309   6.420  0.00  0.00    +0.000 C 
ATOM     29  O   UNL     1      48.056   1.334   6.510  0.00  0.00    +0.000 OA
ATOM     30  H   UNL     1      47.872   2.761   4.520  0.00  0.00    +0.000 HD
ATOM     31  H   UNL     1      46.855   3.966   5.235  0.00  0.00    +0.000 HD
ENDBRANCH  21  28
ENDBRANCH  19  24
ENDBRANCH  18  19
ENDBRANCH   1  18
BRANCH   1  32
ATOM     32  C   UNL     1      45.972   4.933  12.756  0.00  0.00    +0.000 C 
BRANCH  32  33
ATOM     33  O   UNL     1      45.331   3.910  13.521  0.00  0.00    +0.000 OA
ATOM     34  H   UNL     1      45.719   3.062  13.245  0.00  0.00    +0.000 HD
ENDBRANCH  32  33
ENDBRANCH   1  32
TORSDOF 9
ENDMDL
MODEL 6
REMARK VINA RESULT:    -7.178      1.415      1.911
REMARK INTER + INTRA:         -12.310
REMARK INTER:                 -11.166
REMARK INTRA:                  -1.143
REMARK UNBOUND:                -1.565
REMARK  Name = 
REMARK  9 active torsions:
REMARK  status: ('A' for Active; 'I' for Inactive)
REMARK    1  A    between atoms: C_2  and  C_4
REMARK    2  A    between atoms: C_7  and  N_8
REMARK    3  A    between atoms: N_8  and  C_9
REMARK    4  A    between atoms: C_9  and  C_10
REMARK    5  A    between atoms: C_10  and  C_11
REMARK    6  A    between atoms: C_10  and  C_13
REMARK    7  A    between atoms: C_11  and  O_12
REMARK    8  A    between atoms: C_15  and  C_16
REMARK    9  A    between atoms: C_19  and  C_20
REMARK                            x       y       z     vdW  Elec       q    Type
REMARK                         _______ _______ _______ _____ _____    ______ ____
ROOT
ATOM      1  C   UNL     1      43.767   5.111  11.064  0.00  0.00    +0.000 C 
ENDROOT
BRANCH   1   2
ATOM      2  C   UNL     1      44.920   5.227  12.045  0.00  0.00    +0.000 A 
ATOM      3  C   UNL     1      45.926   6.183  11.887  0.00  0.00    +0.000 A 
ATOM      4  C   UNL     1      47.013   6.237  12.773  0.00  0.00    +0.000 A 
ATOM      5  C   UNL     1      47.019   5.300  13.812  0.00  0.00    +0.000 A 
ATOM      6  C   UNL     1      45.975   4.395  13.922  0.00  0.00    +0.000 A 
ATOM      7  N   UNL     1      44.931   4.343  13.069  0.00  0.00    +0.000 NA
BRANCH   4   8
ATOM      8  C   UNL     1      48.103   7.229  12.603  0.00  0.00    +0.000 A 
ATOM      9  C   UNL     1      47.985   8.309  11.708  0.00  0.00    +0.000 A 
ATOM     10  C   UNL     1      49.008   9.252  11.554  0.00  0.00    +0.000 A 
ATOM     11  C   UNL     1      50.197   9.141  12.281  0.00  0.00    +0.000 A 
ATOM     12  C   UNL     1      50.338   8.068  13.169  0.00  0.00    +0.000 A 
ATOM     13  C   UNL     1      49.305   7.137  13.331  0.00  0.00    +0.000 A 
BRANCH  11  14
ATOM     14  C   UNL     1      51.312  10.146  12.125  0.00  0.00    +0.000 C 
ATOM     15  F   UNL     1      52.255   9.776  11.216  0.00  0.00    +0.000 F 
ATOM     16  F   UNL     1      50.860  11.365  11.720  0.00  0.00    +0.000 F 
ATOM     17  F   UNL     1      51.983  10.364  13.290  0.00  0.00    +0.000 F 
ENDBRANCH  11  14
ENDBRANCH   4   8
ENDBRANCH   1   2
BRANCH   1  18
ATOM     18  C   UNL     1      43.408   3.639  10.792  0.00  0.00    +0.000 C 
BRANCH  18  19
ATOM     19  N   UNL     1      44.617   2.817  10.689  0.00  0.00    +0.000 N 
ATOM     20  H   UNL     1      45.272   2.937  11.463  0.00  0.00    +0.000 HD
BRANCH  19  24
ATOM     21  C   UNL     1      46.735   2.477   7.054  0.00  0.00    +0.000 A 
ATOM     22  C   UNL     1      46.329   1.319   7.719  0.00  0.00    +0.000 A 
ATOM     23  C   UNL     1      45.633   1.414   8.931  0.00  0.00    +0.000 A 
ATOM     24  C   UNL     1      45.295   2.657   9.480  0.00  0.00    +0.000 A 
ATOM     25  C   UNL     1      45.747   3.804   8.818  0.00  0.00    +0.000 A 
ATOM     26  C   UNL     1      46.468   3.724   7.620  0.00  0.00    +0.000 A 
BRANCH  21  28
ATOM     27  N   UNL     1      47.189   3.360   4.835  0.00  0.00    +0.000 N 
ATOM     28  C   UNL     1      47.482   2.411   5.772  0.00  0.00    +0.000 C 
ATOM     29  O   UNL     1      48.349   1.569   5.574  0.00  0.00    +0.000 OA
ATOM     30  H   UNL     1      47.770   3.370   4.006  0.00  0.00    +0.000 HD
ATOM     31  H   UNL     1      46.674   4.202   5.058  0.00  0.00    +0.000 HD
ENDBRANCH  21  28
ENDBRANCH  19  24
ENDBRANCH  18  19
ENDBRANCH   1  18
BRANCH   1  32
ATOM     32  C   UNL     1      42.556   5.939  11.530  0.00  0.00    +0.000 C 
BRANCH  32  33
ATOM     33  O   UNL     1      42.650   7.316  11.159  0.00  0.00    +0.000 OA
ATOM     34  H   UNL     1      42.070   7.814  11.761  0.00  0.00    +0.000 HD
ENDBRANCH  32  33
ENDBRANCH   1  32
TORSDOF 9
ENDMDL
MODEL 7
REMARK VINA RESULT:    -6.839      5.269      8.371
REMARK INTER + INTRA:         -11.802
REMARK INTER:                  -9.932
REMARK INTRA:                  -1.870
REMARK UNBOUND:                -1.565
REMARK  Name = 
REMARK  9 active torsions:
REMARK  status: ('A' for Active; 'I' for Inactive)
REMARK    1  A    between atoms: C_2  and  C_4
REMARK    2  A    between atoms: C_7  and  N_8
REMARK    3  A    between atoms: N_8  and  C_9
REMARK    4  A    between atoms: C_9  and  C_10
REMARK    5  A    between atoms: C_10  and  C_11
REMARK    6  A    between atoms: C_10  and  C_13
REMARK    7  A    between atoms: C_11  and  O_12
REMARK    8  A    between atoms: C_15  and  C_16
REMARK    9  A    between atoms: C_19  and  C_20
REMARK                            x       y       z     vdW  Elec       q    Type
REMARK                         _______ _______ _______ _____ _____    ______ ____
ROOT
ATOM      1  C   UNL     1      48.418   9.349  16.460  0.00  0.00    +0.000 C 
ENDROOT
BRANCH   1   2
ATOM      2  C   UNL     1      48.725   8.583  15.185  0.00  0.00    +0.000 A 
ATOM      3  C   UNL     1      47.762   7.795  14.551  0.00  0.00    +0.000 A 
ATOM      4  C   UNL     1      48.082   7.050  13.406  0.00  0.00    +0.000 A 
ATOM      5  C   UNL     1      49.396   7.157  12.938  0.00  0.00    +0.000 A 
ATOM      6  C   UNL     1      50.293   7.978  13.603  0.00  0.00    +0.000 A 
ATOM      7  N   UNL     1      49.985   8.692  14.705  0.00  0.00    +0.000 NA
BRANCH   4   8
ATOM      8  C   UNL     1      47.077   6.186  12.737  0.00  0.00    +0.000 A 
ATOM      9  C   UNL     1      46.548   5.046  13.369  0.00  0.00    +0.000 A 
ATOM     10  C   UNL     1      45.593   4.235  12.745  0.00  0.00    +0.000 A 
ATOM     11  C   UNL     1      45.142   4.528  11.453  0.00  0.00    +0.000 A 
ATOM     12  C   UNL     1      45.664   5.653  10.804  0.00  0.00    +0.000 A 
ATOM     13  C   UNL     1      46.608   6.469  11.440  0.00  0.00    +0.000 A 
BRANCH  11  14
ATOM     14  C   UNL     1      44.116   3.664  10.764  0.00  0.00    +0.000 C 
ATOM     15  F   UNL     1      43.091   3.283  11.575  0.00  0.00    +0.000 F 
ATOM     16  F   UNL     1      43.538   4.289   9.701  0.00  0.00    +0.000 F 
ATOM     17  F   UNL     1      44.651   2.511  10.273  0.00  0.00    +0.000 F 
ENDBRANCH  11  14
ENDBRANCH   4   8
ENDBRANCH   1   2
BRANCH   1  18
ATOM     18  C   UNL     1      48.952   8.610  17.700  0.00  0.00    +0.000 C 
BRANCH  18  19
ATOM     19  N   UNL     1      48.166   7.402  17.967  0.00  0.00    +0.000 N 
ATOM     20  H   UNL     1      47.625   7.438  18.831  0.00  0.00    +0.000 HD
BRANCH  19  24
ATOM     21  C   UNL     1      49.628   3.515  17.214  0.00  0.00    +0.000 A 
ATOM     22  C   UNL     1      50.491   4.481  17.734  0.00  0.00    +0.000 A 
ATOM     23  C   UNL     1      50.025   5.778  17.981  0.00  0.00    +0.000 A 
ATOM     24  C   UNL     1      48.687   6.126  17.755  0.00  0.00    +0.000 A 
ATOM     25  C   UNL     1      47.849   5.154  17.195  0.00  0.00    +0.000 A 
ATOM     26  C   UNL     1      48.310   3.861  16.916  0.00  0.00    +0.000 A 
BRANCH  21  28
ATOM     27  N   UNL     1      50.945   1.570  17.839  0.00  0.00    +0.000 N 
ATOM     28  C   UNL     1      50.094   2.133  16.932  0.00  0.00    +0.000 C 
ATOM     29  O   UNL     1      49.705   1.509  15.953  0.00  0.00    +0.000 OA
ATOM     30  H   UNL     1      51.178   0.596  17.694  0.00  0.00    +0.000 HD
ATOM     31  H   UNL     1      51.081   1.952  18.765  0.00  0.00    +0.000 HD
ENDBRANCH  21  28
ENDBRANCH  19  24
ENDBRANCH  18  19
ENDBRANCH   1  18
BRANCH   1  32
ATOM     32  C   UNL     1      48.924  10.800  16.372  0.00  0.00    +0.000 C 
BRANCH  32  33
ATOM     33  O   UNL     1      48.631  11.415  15.115  0.00  0.00    +0.000 OA
ATOM     34  H   UNL     1      48.916  10.795  14.421  0.00  0.00    +0.000 HD
ENDBRANCH  32  33
ENDBRANCH   1  32
TORSDOF 9
ENDMDL
MODEL 8
REMARK VINA RESULT:    -6.833      5.964      7.898
REMARK INTER + INTRA:         -11.793
REMARK INTER:                 -10.246
REMARK INTRA:                  -1.546
REMARK UNBOUND:                -1.565
REMARK  Name = 
REMARK  9 active torsions:
REMARK  status: ('A' for Active; 'I' for Inactive)
REMARK    1  A    between atoms: C_2  and  C_4
REMARK    2  A    between atoms: C_7  and  N_8
REMARK    3  A    between atoms: N_8  and  C_9
REMARK    4  A    between atoms: C_9  and  C_10
REMARK    5  A    between atoms: C_10  and  C_11
REMARK    6  A    between atoms: C_10  and  C_13
REMARK    7  A    between atoms: C_11  and  O_12
REMARK    8  A    between atoms: C_15  and  C_16
REMARK    9  A    between atoms: C_19  and  C_20
REMARK                            x       y       z     vdW  Elec       q    Type
REMARK                         _______ _______ _______ _____ _____    ______ ____
ROOT
ATOM      1  C   UNL     1      49.243   7.650  15.312  0.00  0.00    +0.000 C 
ENDROOT
BRANCH   1   2
ATOM      2  C   UNL     1      49.233   6.691  16.490  0.00  0.00    +0.000 A 
ATOM      3  C   UNL     1      50.137   5.631  16.582  0.00  0.00    +0.000 A 
ATOM      4  C   UNL     1      50.074   4.723  17.650  0.00  0.00    +0.000 A 
ATOM      5  C   UNL     1      49.078   4.950  18.606  0.00  0.00    +0.000 A 
ATOM      6  C   UNL     1      48.230   6.037  18.463  0.00  0.00    +0.000 A 
ATOM      7  N   UNL     1      48.290   6.909  17.436  0.00  0.00    +0.000 NA
BRANCH   4   8
ATOM      8  C   UNL     1      51.010   3.575  17.748  0.00  0.00    +0.000 A 
ATOM      9  C   UNL     1      50.642   2.286  17.324  0.00  0.00    +0.000 A 
ATOM     10  C   UNL     1      51.526   1.203  17.406  0.00  0.00    +0.000 A 
ATOM     11  C   UNL     1      52.812   1.370  17.931  0.00  0.00    +0.000 A 
ATOM     12  C   UNL     1      53.193   2.644  18.367  0.00  0.00    +0.000 A 
ATOM     13  C   UNL     1      52.310   3.726  18.268  0.00  0.00    +0.000 A 
BRANCH  11  14
ATOM     14  C   UNL     1      53.777   0.215  18.030  0.00  0.00    +0.000 C 
ATOM     15  F   UNL     1      54.292  -0.169  16.830  0.00  0.00    +0.000 F 
ATOM     16  F   UNL     1      54.847   0.498  18.823  0.00  0.00    +0.000 F 
ATOM     17  F   UNL     1      53.202  -0.900  18.562  0.00  0.00    +0.000 F 
ENDBRANCH  11  14
ENDBRANCH   4   8
ENDBRANCH   1   2
BRANCH   1  18
ATOM     18  C   UNL     1      48.699   6.979  14.038  0.00  0.00    +0.000 C 
BRANCH  18  19
ATOM     19  N   UNL     1      47.436   6.288  14.310  0.00  0.00    +0.000 N 
ATOM     20  H   UNL     1      47.463   5.670  15.121  0.00  0.00    +0.000 HD
BRANCH  19  24
ATOM     21  C   UNL     1      45.032   4.527  11.320  0.00  0.00    +0.000 A 
ATOM     22  C   UNL     1      45.585   5.789  11.097  0.00  0.00    +0.000 A 
ATOM     23  C   UNL     1      46.377   6.392  12.083  0.00  0.00    +0.000 A 
ATOM     24  C   UNL     1      46.666   5.735  13.286  0.00  0.00    +0.000 A 
ATOM     25  C   UNL     1      46.070   4.488  13.505  0.00  0.00    +0.000 A 
ATOM     26  C   UNL     1      45.252   3.886  12.540  0.00  0.00    +0.000 A 
BRANCH  21  28
ATOM     27  N   UNL     1      44.047   4.499   9.098  0.00  0.00    +0.000 N 
ATOM     28  C   UNL     1      44.181   3.864  10.300  0.00  0.00    +0.000 C 
ATOM     29  O   UNL     1      43.652   2.779  10.506  0.00  0.00    +0.000 OA
ATOM     30  H   UNL     1      43.550   3.996   8.375  0.00  0.00    +0.000 HD
ATOM     31  H   UNL     1      44.660   5.250   8.810  0.00  0.00    +0.000 HD
ENDBRANCH  21  28
ENDBRANCH  19  24
ENDBRANCH  18  19
ENDBRANCH   1  18
BRANCH   1  32
ATOM     32  C   UNL     1      48.506   8.958  15.654  0.00  0.00    +0.000 C 
BRANCH  32  33
ATOM     33  O   UNL     1      47.169   8.989  15.150  0.00  0.00    +0.000 OA
ATOM     34  H   UNL     1      47.228   8.911  14.182  0.00  0.00    +0.000 HD
ENDBRANCH  32  33
ENDBRANCH   1  32
TORSDOF 9
ENDMDL
MODEL 9
REMARK VINA RESULT:    -6.443      5.411      8.460
REMARK INTER + INTRA:         -11.209
REMARK INTER:                  -8.930
REMARK INTRA:                  -2.280
REMARK UNBOUND:                -1.565
REMARK  Name = 
REMARK  9 active torsions:
REMARK  status: ('A' for Active; 'I' for Inactive)
REMARK    1  A    between atoms: C_2  and  C_4
REMARK    2  A    between atoms: C_7  and  N_8
REMARK    3  A    between atoms: N_8  and  C_9
REMARK    4  A    between atoms: C_9  and  C_10
REMARK    5  A    between atoms: C_10  and  C_11
REMARK    6  A    between atoms: C_10  and  C_13
REMARK    7  A    between atoms: C_11  and  O_12
REMARK    8  A    between atoms: C_15  and  C_16
REMARK    9  A    between atoms: C_19  and  C_20
REMARK                            x       y       z     vdW  Elec       q    Type
REMARK                         _______ _______ _______ _____ _____    ______ ____
ROOT
ATOM      1  C   UNL     1      50.802   9.275  15.013  0.00  0.00    +0.000 C 
ENDROOT
BRANCH   1   2
ATOM      2  C   UNL     1      50.188   8.735  13.733  0.00  0.00    +0.000 A 
ATOM      3  C   UNL     1      48.934   8.119  13.722  0.00  0.00    +0.000 A 
ATOM      4  C   UNL     1      48.409   7.577  12.539  0.00  0.00    +0.000 A 
ATOM      5  C   UNL     1      49.198   7.703  11.390  0.00  0.00    +0.000 A 
ATOM      6  C   UNL     1      50.422   8.348  11.470  0.00  0.00    +0.000 A 
ATOM      7  N   UNL     1      50.927   8.868  12.608  0.00  0.00    +0.000 NA
BRANCH   4   8
ATOM      8  C   UNL     1      47.092   6.895  12.517  0.00  0.00    +0.000 A 
ATOM      9  C   UNL     1      46.864   5.707  13.235  0.00  0.00    +0.000 A 
ATOM     10  C   UNL     1      45.619   5.067  13.223  0.00  0.00    +0.000 A 
ATOM     11  C   UNL     1      44.556   5.588  12.478  0.00  0.00    +0.000 A 
ATOM     12  C   UNL     1      44.765   6.764  11.749  0.00  0.00    +0.000 A 
ATOM     13  C   UNL     1      46.009   7.408  11.777  0.00  0.00    +0.000 A 
BRANCH  11  14
ATOM     14  C   UNL     1      43.208   4.910  12.451  0.00  0.00    +0.000 C 
ATOM     15  F   UNL     1      42.586   4.886  13.663  0.00  0.00    +0.000 F 
ATOM     16  F   UNL     1      42.338   5.516  11.597  0.00  0.00    +0.000 F 
ATOM     17  F   UNL     1      43.286   3.612  12.047  0.00  0.00    +0.000 F 
ENDBRANCH  11  14
ENDBRANCH   4   8
ENDBRANCH   1   2
BRANCH   1  18
ATOM     18  C   UNL     1      49.888   9.019  16.225  0.00  0.00    +0.000 C 
BRANCH  18  19
ATOM     19  N   UNL     1      50.458   7.993  17.102  0.00  0.00    +0.000 N 
ATOM     20  H   UNL     1      51.476   8.018  17.170  0.00  0.00    +0.000 HD
BRANCH  19  24
ATOM     21  C   UNL     1      48.927   4.062  16.973  0.00  0.00    +0.000 A 
ATOM     22  C   UNL     1      50.252   4.266  17.361  0.00  0.00    +0.000 A 
ATOM     23  C   UNL     1      50.779   5.564  17.400  0.00  0.00    +0.000 A 
ATOM     24  C   UNL     1      49.989   6.679  17.095  0.00  0.00    +0.000 A 
ATOM     25  C   UNL     1      48.675   6.448  16.670  0.00  0.00    +0.000 A 
ATOM     26  C   UNL     1      48.144   5.154  16.599  0.00  0.00    +0.000 A 
BRANCH  21  28
ATOM     27  N   UNL     1      47.175   2.495  17.593  0.00  0.00    +0.000 N 
ATOM     28  C   UNL     1      48.341   2.698  16.912  0.00  0.00    +0.000 C 
ATOM     29  O   UNL     1      48.855   1.804  16.252  0.00  0.00    +0.000 OA
ATOM     30  H   UNL     1      46.730   1.595  17.466  0.00  0.00    +0.000 HD
ATOM     31  H   UNL     1      46.603   3.258  17.930  0.00  0.00    +0.000 HD
ENDBRANCH  21  28
ENDBRANCH  19  24
ENDBRANCH  18  19
ENDBRANCH   1  18
BRANCH   1  32
ATOM     32  C   UNL     1      52.226   8.728  15.219  0.00  0.00    +0.000 C 
BRANCH  32  33
ATOM     33  O   UNL     1      52.396   7.410  14.693  0.00  0.00    +0.000 OA
ATOM     34  H   UNL     1      53.353   7.235  14.665  0.00  0.00    +0.000 HD
ENDBRANCH  32  33
ENDBRANCH   1  32
TORSDOF 9
ENDMDL
