MODEL 1
REMARK VINA RESULT:    -8.192      0.000      0.000
REMARK INTER + INTRA:         -10.549
REMARK INTER:                 -10.108
REMARK INTRA:                  -0.442
REMARK UNBOUND:                -0.442
REMARK  Name = 
REMARK  4 active torsions:
REMARK  status: ('A' for Active; 'I' for Inactive)
REMARK    1  A    between atoms: C_2  and  C_4
REMARK    2  A    between atoms: N_8  and  C_9
REMARK    3  A    between atoms: C_9  and  C_10
REMARK    4  A    between atoms: C_12  and  C_13
REMARK                            x       y       z     vdW  Elec       q    Type
REMARK                         _______ _______ _______ _____ _____    ______ ____
ROOT
ATOM      1  C   UNL     1      46.532   2.640   7.416  0.00  0.00    +0.000 A 
ATOM      2  C   UNL     1      45.961   1.681   8.246  0.00  0.00    +0.000 A 
ATOM      3  C   UNL     1      45.042   2.087   9.212  0.00  0.00    +0.000 A 
ATOM      4  C   UNL     1      44.744   3.440   9.361  0.00  0.00    +0.000 A 
ATOM      5  N   UNL     1      43.842   3.787  10.369  0.00  0.00    +0.000 N 
ATOM      6  N   UNL     1      45.308   4.381   8.581  0.00  0.00    +0.000 NA
ATOM      7  C   UNL     1      46.183   3.967   7.627  0.00  0.00    +0.000 A 
ATOM      8  H   UNL     1      42.913   3.458  10.120  0.00  0.00    +0.000 HD
ENDROOT
BRANCH   1  10
ATOM      9  N   UNL     1      47.489   3.084   5.228  0.00  0.00    +0.000 N 
ATOM     10  C   UNL     1      47.499   2.307   6.351  0.00  0.00    +0.000 C 
ATOM     11  O   UNL     1      48.302   1.390   6.479  0.00  0.00    +0.000 OA
ATOM     12  H   UNL     1      48.220   2.907   4.550  0.00  0.00    +0.000 HD
ATOM     13  H   UNL     1      47.018   3.977   5.181  0.00  0.00    +0.000 HD
ENDBRANCH   1  10
BRANCH   5  14
ATOM     14  C   UNL     1      43.822   5.198  10.749  0.00  0.00    +0.000 C 
BRANCH  14  15
ATOM     15  C   UNL     1      44.964   5.458  11.722  0.00  0.00    +0.000 A 
ATOM     16  C   UNL     1      45.888   6.468  11.446  0.00  0.00    +0.000 A 
ATOM     17  C   UNL     1      46.941   6.705  12.337  0.00  0.00    +0.000 A 
ATOM     18  C   UNL     1      47.020   5.921  13.489  0.00  0.00    +0.000 A 
ATOM     19  C   UNL     1      46.063   4.941  13.692  0.00  0.00    +0.000 A 
ATOM     20  N   UNL     1      45.047   4.691  12.837  0.00  0.00    +0.000 NA
BRANCH  17  21
ATOM     21  C   UNL     1      47.964   7.774  12.067  0.00  0.00    +0.000 C 
ATOM     22  F   UNL     1      48.822   7.986  13.102  0.00  0.00    +0.000 F 
ATOM     23  F   UNL     1      48.743   7.485  10.988  0.00  0.00    +0.000 F 
ATOM     24  F   UNL     1      47.393   8.982  11.802  0.00  0.00    +0.000 F 
ENDBRANCH  17  21
ENDBRANCH  14  15
ENDBRANCH   5  14
TORSDOF 4
ENDMDL
MODEL 2
REMARK VINA RESULT:    -7.716      3.755      6.470
REMARK INTER + INTRA:          -9.963
REMARK INTER:                  -9.570
REMARK INTRA:                  -0.392
REMARK UNBOUND:                -0.442
REMARK  Name = 
REMARK  4 active torsions:
REMARK  status: ('A' for Active; 'I' for Inactive)
REMARK    1  A    between atoms: C_2  and  C_4
REMARK    2  A    between atoms: N_8  and  C_9
REMARK    3  A    between atoms: C_9  and  C_10
REMARK    4  A    between atoms: C_12  and  C_13
REMARK                            x       y       z     vdW  Elec       q    Type
REMARK                         _______ _______ _______ _____ _____    ______ ____
ROOT
ATOM      1  C   UNL     1      46.818   5.070  14.015  0.00  0.00    +0.000 A 
ATOM      2  C   UNL     1      47.391   5.975  13.127  0.00  0.00    +0.000 A 
ATOM      3  C   UNL     1      46.705   6.298  11.958  0.00  0.00    +0.000 A 
ATOM      4  C   UNL     1      45.487   5.682  11.676  0.00  0.00    +0.000 A 
ATOM      5  N   UNL     1      44.865   6.022  10.472  0.00  0.00    +0.000 N 
ATOM      6  N   UNL     1      44.933   4.787  12.513  0.00  0.00    +0.000 NA
ATOM      7  C   UNL     1      45.602   4.501  13.662  0.00  0.00    +0.000 A 
ATOM      8  H   UNL     1      44.538   6.983  10.520  0.00  0.00    +0.000 HD
ENDROOT
BRANCH   1  10
ATOM      9  N   UNL     1      47.879   5.684  16.112  0.00  0.00    +0.000 N 
ATOM     10  C   UNL     1      47.457   4.680  15.288  0.00  0.00    +0.000 C 
ATOM     11  O   UNL     1      47.576   3.504  15.611  0.00  0.00    +0.000 OA
ATOM     12  H   UNL     1      48.225   5.406  17.022  0.00  0.00    +0.000 HD
ATOM     13  H   UNL     1      47.592   6.647  15.998  0.00  0.00    +0.000 HD
ENDBRANCH   1  10
BRANCH   5  14
ATOM     14  C   UNL     1      43.805   5.120  10.025  0.00  0.00    +0.000 C 
BRANCH  14  15
ATOM     15  C   UNL     1      44.445   3.885   9.406  0.00  0.00    +0.000 A 
ATOM     16  C   UNL     1      45.357   4.032   8.359  0.00  0.00    +0.000 A 
ATOM     17  C   UNL     1      45.942   2.897   7.786  0.00  0.00    +0.000 A 
ATOM     18  C   UNL     1      45.598   1.646   8.301  0.00  0.00    +0.000 A 
ATOM     19  C   UNL     1      44.688   1.584   9.343  0.00  0.00    +0.000 A 
ATOM     20  N   UNL     1      44.104   2.669   9.899  0.00  0.00    +0.000 NA
BRANCH  17  21
ATOM     21  C   UNL     1      46.917   3.014   6.647  0.00  0.00    +0.000 C 
ATOM     22  F   UNL     1      48.221   2.939   7.030  0.00  0.00    +0.000 F 
ATOM     23  F   UNL     1      46.744   2.037   5.715  0.00  0.00    +0.000 F 
ATOM     24  F   UNL     1      46.792   4.194   5.978  0.00  0.00    +0.000 F 
ENDBRANCH  17  21
ENDBRANCH  14  15
ENDBRANCH   5  14
TORSDOF 4
ENDMDL
MODEL 3
REMARK VINA RESULT:    -7.350      4.114      6.816
REMARK INTER + INTRA:          -9.510
REMARK INTER:                  -9.365
REMARK INTRA:                  -0.145
REMARK UNBOUND:                -0.442
REMARK  Name = 
REMARK  4 active torsions:
REMARK  status: ('A' for Active; 'I' for Inactive)
REMARK    1  A    between atoms: C_2  and  C_4
REMARK    2  A    between atoms: N_8  and  C_9
REMARK    3  A    between atoms: C_9  and  C_10
REMARK    4  A    between atoms: C_12  and  C_13
REMARK                            x       y       z     vdW  Elec       q    Type
REMARK                         _______ _______ _______ _____ _____    ______ ____
ROOT
ATOM      1  C   UNL     1      46.585   5.015  13.991  0.00  0.00    +0.000 A 
ATOM      2  C   UNL     1      45.537   5.869  13.663  0.00  0.00    +0.000 A 
ATOM      3  C   UNL     1      44.512   5.394  12.846  0.00  0.00    +0.000 A 
ATOM      4  C   UNL     1      44.573   4.097  12.338  0.00  0.00    +0.000 A 
ATOM      5  N   UNL     1      43.534   3.692  11.498  0.00  0.00    +0.000 N 
ATOM      6  N   UNL     1      45.594   3.270  12.628  0.00  0.00    +0.000 NA
ATOM      7  C   UNL     1      46.573   3.739  13.446  0.00  0.00    +0.000 A 
ATOM      8  H   UNL     1      42.679   3.599  12.038  0.00  0.00    +0.000 HD
ENDROOT
BRANCH   1  10
ATOM      9  N   UNL     1      47.640   5.050  16.179  0.00  0.00    +0.000 N 
ATOM     10  C   UNL     1      47.704   5.418  14.866  0.00  0.00    +0.000 C 
ATOM     11  O   UNL     1      48.671   6.031  14.427  0.00  0.00    +0.000 OA
ATOM     12  H   UNL     1      48.457   5.247  16.744  0.00  0.00    +0.000 HD
ATOM     13  H   UNL     1      46.992   4.355  16.524  0.00  0.00    +0.000 HD
ENDBRANCH   1  10
BRANCH   5  14
ATOM     14  C   UNL     1      43.791   2.496  10.698  0.00  0.00    +0.000 C 
BRANCH  14  15
ATOM     15  C   UNL     1      44.687   2.876   9.527  0.00  0.00    +0.000 A 
ATOM     16  C   UNL     1      45.420   1.884   8.871  0.00  0.00    +0.000 A 
ATOM     17  C   UNL     1      46.248   2.232   7.797  0.00  0.00    +0.000 A 
ATOM     18  C   UNL     1      46.299   3.572   7.410  0.00  0.00    +0.000 A 
ATOM     19  C   UNL     1      45.539   4.495   8.109  0.00  0.00    +0.000 A 
ATOM     20  N   UNL     1      44.744   4.178   9.155  0.00  0.00    +0.000 NA
BRANCH  17  21
ATOM     21  C   UNL     1      47.065   1.195   7.076  0.00  0.00    +0.000 C 
ATOM     22  F   UNL     1      46.937   1.240   5.722  0.00  0.00    +0.000 F 
ATOM     23  F   UNL     1      48.397   1.315   7.331  0.00  0.00    +0.000 F 
ATOM     24  F   UNL     1      46.728  -0.074   7.439  0.00  0.00    +0.000 F 
ENDBRANCH  17  21
ENDBRANCH  14  15
ENDBRANCH   5  14
TORSDOF 4
ENDMDL
MODEL 4
REMARK VINA RESULT:    -7.336      2.028      2.547
REMARK INTER + INTRA:          -9.494
REMARK INTER:                  -9.176
REMARK INTRA:                  -0.317
REMARK UNBOUND:                -0.442
REMARK  Name = 
REMARK  4 active torsions:
REMARK  status: ('A' for Active; 'I' for Inactive)
REMARK    1  A    between atoms: C_2  and  C_4
REMARK    2  A    between atoms: N_8  and  C_9
REMARK    3  A    between atoms: C_9  and  C_10
REMARK    4  A    between atoms: C_12  and  C_13
REMARK                            x       y       z     vdW  Elec       q    Type
REMARK                         _______ _______ _______ _____ _____    ______ ____
ROOT
ATOM      1  C   UNL     1      46.500   2.584   7.506  0.00  0.00    +0.000 A 
ATOM      2  C   UNL     1      45.933   1.675   8.394  0.00  0.00    +0.000 A 
ATOM      3  C   UNL     1      45.044   2.143   9.360  0.00  0.00    +0.000 A 
ATOM      4  C   UNL     1      44.772   3.506   9.451  0.00  0.00    +0.000 A 
ATOM      5  N   UNL     1      43.900   3.916  10.461  0.00  0.00    +0.000 N 
ATOM      6  N   UNL     1      45.332   4.399   8.614  0.00  0.00    +0.000 NA
ATOM      7  C   UNL     1      46.178   3.925   7.661  0.00  0.00    +0.000 A 
ATOM      8  H   UNL     1      42.960   3.591  10.250  0.00  0.00    +0.000 HD
ENDROOT
BRANCH   1  10
ATOM      9  N   UNL     1      48.697   2.707   6.476  0.00  0.00    +0.000 N 
ATOM     10  C   UNL     1      47.436   2.184   6.436  0.00  0.00    +0.000 C 
ATOM     11  O   UNL     1      47.108   1.388   5.563  0.00  0.00    +0.000 OA
ATOM     12  H   UNL     1      49.356   2.349   5.796  0.00  0.00    +0.000 HD
ATOM     13  H   UNL     1      49.075   3.168   7.292  0.00  0.00    +0.000 HD
ENDBRANCH   1  10
BRANCH   5  14
ATOM     14  C   UNL     1      43.912   5.344  10.774  0.00  0.00    +0.000 C 
BRANCH  14  15
ATOM     15  C   UNL     1      45.182   5.663  11.550  0.00  0.00    +0.000 A 
ATOM     16  C   UNL     1      45.485   4.937  12.704  0.00  0.00    +0.000 A 
ATOM     17  C   UNL     1      46.650   5.233  13.422  0.00  0.00    +0.000 A 
ATOM     18  C   UNL     1      47.483   6.245  12.941  0.00  0.00    +0.000 A 
ATOM     19  C   UNL     1      47.113   6.916  11.787  0.00  0.00    +0.000 A 
ATOM     20  N   UNL     1      45.986   6.652  11.090  0.00  0.00    +0.000 NA
BRANCH  17  21
ATOM     21  C   UNL     1      47.003   4.484  14.677  0.00  0.00    +0.000 C 
ATOM     22  F   UNL     1      45.973   4.377  15.561  0.00  0.00    +0.000 F 
ATOM     23  F   UNL     1      47.412   3.210  14.424  0.00  0.00    +0.000 F 
ATOM     24  F   UNL     1      48.022   5.073  15.363  0.00  0.00    +0.000 F 
ENDBRANCH  17  21
ENDBRANCH  14  15
ENDBRANCH   5  14
TORSDOF 4
ENDMDL
MODEL 5
REMARK VINA RESULT:    -6.778      5.066      8.069
REMARK INTER + INTRA:          -8.805
REMARK INTER:                  -8.507
REMARK INTRA:                  -0.298
REMARK UNBOUND:                -0.442
REMARK  Name = 
REMARK  4 active torsions:
REMARK  status: ('A' for Active; 'I' for Inactive)
REMARK    1  A    between atoms: C_2  and  C_4
REMARK    2  A    between atoms: N_8  and  C_9
REMARK    3  A    between atoms: C_9  and  C_10
REMARK    4  A    between atoms: C_12  and  C_13
REMARK                            x       y       z     vdW  Elec       q    Type
REMARK                         _______ _______ _______ _____ _____    ______ ____
ROOT
ATOM      1  C   UNL     1      49.088   4.705  18.121  0.00  0.00    +0.000 A 
ATOM      2  C   UNL     1      48.366   3.516  18.102  0.00  0.00    +0.000 A 
ATOM      3  C   UNL     1      47.593   3.215  16.982  0.00  0.00    +0.000 A 
ATOM      4  C   UNL     1      47.520   4.121  15.926  0.00  0.00    +0.000 A 
ATOM      5  N   UNL     1      46.702   3.778  14.847  0.00  0.00    +0.000 N 
ATOM      6  N   UNL     1      48.194   5.285  15.942  0.00  0.00    +0.000 NA
ATOM      7  C   UNL     1      48.964   5.553  17.030  0.00  0.00    +0.000 A 
ATOM      8  H   UNL     1      47.114   2.997  14.345  0.00  0.00    +0.000 HD
ENDROOT
BRANCH   1  10
ATOM      9  N   UNL     1      49.860   4.367  20.400  0.00  0.00    +0.000 N 
ATOM     10  C   UNL     1      49.951   5.102  19.252  0.00  0.00    +0.000 C 
ATOM     11  O   UNL     1      50.743   6.032  19.157  0.00  0.00    +0.000 OA
ATOM     12  H   UNL     1      50.525   4.588  21.131  0.00  0.00    +0.000 HD
ATOM     13  H   UNL     1      49.405   3.466  20.441  0.00  0.00    +0.000 HD
ENDBRANCH   1  10
BRANCH   5  14
ATOM     14  C   UNL     1      46.350   4.869  13.941  0.00  0.00    +0.000 C 
BRANCH  14  15
ATOM     15  C   UNL     1      45.419   4.329  12.864  0.00  0.00    +0.000 A 
ATOM     16  C   UNL     1      45.729   4.536  11.518  0.00  0.00    +0.000 A 
ATOM     17  C   UNL     1      44.872   4.044  10.527  0.00  0.00    +0.000 A 
ATOM     18  C   UNL     1      43.733   3.344  10.928  0.00  0.00    +0.000 A 
ATOM     19  C   UNL     1      43.498   3.178  12.282  0.00  0.00    +0.000 A 
ATOM     20  N   UNL     1      44.308   3.657  13.252  0.00  0.00    +0.000 NA
BRANCH  17  21
ATOM     21  C   UNL     1      45.163   4.260   9.067  0.00  0.00    +0.000 C 
ATOM     22  F   UNL     1      45.803   3.216   8.475  0.00  0.00    +0.000 F 
ATOM     23  F   UNL     1      44.032   4.470   8.339  0.00  0.00    +0.000 F 
ATOM     24  F   UNL     1      45.952   5.350   8.853  0.00  0.00    +0.000 F 
ENDBRANCH  17  21
ENDBRANCH  14  15
ENDBRANCH   5  14
TORSDOF 4
ENDMDL
MODEL 6
REMARK VINA RESULT:    -6.459      5.451      7.966
REMARK INTER + INTRA:          -8.411
REMARK INTER:                  -8.056
REMARK INTRA:                  -0.355
REMARK UNBOUND:                -0.442
REMARK  Name = 
REMARK  4 active torsions:
REMARK  status: ('A' for Active; 'I' for Inactive)
REMARK    1  A    between atoms: C_2  and  C_4
REMARK    2  A    between atoms: N_8  and  C_9
REMARK    3  A    between atoms: C_9  and  C_10
REMARK    4  A    between atoms: C_12  and  C_13
REMARK                            x       y       z     vdW  Elec       q    Type
REMARK                         _______ _______ _______ _____ _____    ______ ____
ROOT
ATOM      1  C   UNL     1      51.275   2.442  17.500  0.00  0.00    +0.000 A 
ATOM      2  C   UNL     1      51.313   3.798  17.811  0.00  0.00    +0.000 A 
ATOM      3  C   UNL     1      50.202   4.587  17.520  0.00  0.00    +0.000 A 
ATOM      4  C   UNL     1      49.095   4.023  16.889  0.00  0.00    +0.000 A 
ATOM      5  N   UNL     1      48.027   4.873  16.594  0.00  0.00    +0.000 N 
ATOM      6  N   UNL     1      49.055   2.719  16.561  0.00  0.00    +0.000 NA
ATOM      7  C   UNL     1      50.136   1.956  16.872  0.00  0.00    +0.000 A 
ATOM      8  H   UNL     1      47.575   5.160  17.457  0.00  0.00    +0.000 HD
ENDROOT
BRANCH   1  10
ATOM      9  N   UNL     1      52.075   0.252  18.181  0.00  0.00    +0.000 N 
ATOM     10  C   UNL     1      52.392   1.521  17.786  0.00  0.00    +0.000 C 
ATOM     11  O   UNL     1      53.559   1.866  17.646  0.00  0.00    +0.000 OA
ATOM     12  H   UNL     1      52.846  -0.397  18.279  0.00  0.00    +0.000 HD
ATOM     13  H   UNL     1      51.148  -0.139  18.082  0.00  0.00    +0.000 HD
ENDBRANCH   1  10
BRANCH   5  14
ATOM     14  C   UNL     1      47.056   4.365  15.627  0.00  0.00    +0.000 C 
BRANCH  14  15
ATOM     15  C   UNL     1      47.171   5.181  14.346  0.00  0.00    +0.000 A 
ATOM     16  C   UNL     1      46.179   5.071  13.369  0.00  0.00    +0.000 A 
ATOM     17  C   UNL     1      46.285   5.817  12.189  0.00  0.00    +0.000 A 
ATOM     18  C   UNL     1      47.384   6.663  12.039  0.00  0.00    +0.000 A 
ATOM     19  C   UNL     1      48.323   6.718  13.056  0.00  0.00    +0.000 A 
ATOM     20  N   UNL     1      48.243   5.996  14.196  0.00  0.00    +0.000 NA
BRANCH  17  21
ATOM     21  C   UNL     1      45.245   5.714  11.107  0.00  0.00    +0.000 C 
ATOM     22  F   UNL     1      44.429   6.800  11.024  0.00  0.00    +0.000 F 
ATOM     23  F   UNL     1      45.797   5.564   9.871  0.00  0.00    +0.000 F 
ATOM     24  F   UNL     1      44.421   4.642  11.280  0.00  0.00    +0.000 F 
ENDBRANCH  17  21
ENDBRANCH  14  15
ENDBRANCH   5  14
TORSDOF 4
ENDMDL
MODEL 7
REMARK VINA RESULT:    -6.335      3.784      6.474
REMARK INTER + INTRA:          -8.258
REMARK INTER:                  -7.807
REMARK INTRA:                  -0.451
REMARK UNBOUND:                -0.442
REMARK  Name = 
REMARK  4 active torsions:
REMARK  status: ('A' for Active; 'I' for Inactive)
REMARK    1  A    between atoms: C_2  and  C_4
REMARK    2  A    between atoms: N_8  and  C_9
REMARK    3  A    between atoms: C_9  and  C_10
REMARK    4  A    between atoms: C_12  and  C_13
REMARK                            x       y       z     vdW  Elec       q    Type
REMARK                         _______ _______ _______ _____ _____    ______ ____
ROOT
ATOM      1  C   UNL     1      48.856   7.447  13.000  0.00  0.00    +0.000 A 
ATOM      2  C   UNL     1      48.268   6.784  14.073  0.00  0.00    +0.000 A 
ATOM      3  C   UNL     1      47.121   6.026  13.848  0.00  0.00    +0.000 A 
ATOM      4  C   UNL     1      46.559   5.978  12.574  0.00  0.00    +0.000 A 
ATOM      5  N   UNL     1      45.390   5.228  12.421  0.00  0.00    +0.000 N 
ATOM      6  N   UNL     1      47.103   6.634  11.533  0.00  0.00    +0.000 NA
ATOM      7  C   UNL     1      48.236   7.350  11.762  0.00  0.00    +0.000 A 
ATOM      8  H   UNL     1      45.605   4.241  12.525  0.00  0.00    +0.000 HD
ENDROOT
BRANCH   1  10
ATOM      9  N   UNL     1      51.043   7.808  13.994  0.00  0.00    +0.000 N 
ATOM     10  C   UNL     1      50.083   8.258  13.133  0.00  0.00    +0.000 C 
ATOM     11  O   UNL     1      50.251   9.277  12.473  0.00  0.00    +0.000 OA
ATOM     12  H   UNL     1      51.918   8.318  14.002  0.00  0.00    +0.000 HD
ATOM     13  H   UNL     1      51.049   6.870  14.369  0.00  0.00    +0.000 HD
ENDBRANCH   1  10
BRANCH   5  14
ATOM     14  C   UNL     1      44.626   5.481  11.201  0.00  0.00    +0.000 C 
BRANCH  14  15
ATOM     15  C   UNL     1      44.756   4.273  10.284  0.00  0.00    +0.000 A 
ATOM     16  C   UNL     1      45.609   4.335   9.180  0.00  0.00    +0.000 A 
ATOM     17  C   UNL     1      45.726   3.226   8.333  0.00  0.00    +0.000 A 
ATOM     18  C   UNL     1      44.987   2.082   8.637  0.00  0.00    +0.000 A 
ATOM     19  C   UNL     1      44.165   2.100   9.752  0.00  0.00    +0.000 A 
ATOM     20  N   UNL     1      44.031   3.165  10.573  0.00  0.00    +0.000 NA
BRANCH  17  21
ATOM     21  C   UNL     1      46.623   3.260   7.127  0.00  0.00    +0.000 C 
ATOM     22  F   UNL     1      47.641   2.358   7.174  0.00  0.00    +0.000 F 
ATOM     23  F   UNL     1      45.949   3.003   5.972  0.00  0.00    +0.000 F 
ATOM     24  F   UNL     1      47.212   4.477   6.952  0.00  0.00    +0.000 F 
ENDBRANCH  17  21
ENDBRANCH  14  15
ENDBRANCH   5  14
TORSDOF 4
ENDMDL
MODEL 8
REMARK VINA RESULT:    -6.312      4.872      7.920
REMARK INTER + INTRA:          -8.230
REMARK INTER:                  -7.909
REMARK INTRA:                  -0.321
REMARK UNBOUND:                -0.442
REMARK  Name = 
REMARK  4 active torsions:
REMARK  status: ('A' for Active; 'I' for Inactive)
REMARK    1  A    between atoms: C_2  and  C_4
REMARK    2  A    between atoms: N_8  and  C_9
REMARK    3  A    between atoms: C_9  and  C_10
REMARK    4  A    between atoms: C_12  and  C_13
REMARK                            x       y       z     vdW  Elec       q    Type
REMARK                         _______ _______ _______ _____ _____    ______ ____
ROOT
ATOM      1  C   UNL     1      48.599   4.335  17.372  0.00  0.00    +0.000 A 
ATOM      2  C   UNL     1      48.918   5.479  16.648  0.00  0.00    +0.000 A 
ATOM      3  C   UNL     1      48.121   5.832  15.560  0.00  0.00    +0.000 A 
ATOM      4  C   UNL     1      47.052   5.017  15.190  0.00  0.00    +0.000 A 
ATOM      5  N   UNL     1      46.313   5.406  14.071  0.00  0.00    +0.000 N 
ATOM      6  N   UNL     1      46.748   3.895  15.866  0.00  0.00    +0.000 NA
ATOM      7  C   UNL     1      47.519   3.577  16.940  0.00  0.00    +0.000 A 
ATOM      8  H   UNL     1      45.788   6.249  14.288  0.00  0.00    +0.000 HD
ENDROOT
BRANCH   1  10
ATOM      9  N   UNL     1      48.664   3.542  19.668  0.00  0.00    +0.000 N 
ATOM     10  C   UNL     1      49.369   3.891  18.551  0.00  0.00    +0.000 C 
ATOM     11  O   UNL     1      50.591   3.805  18.522  0.00  0.00    +0.000 OA
ATOM     12  H   UNL     1      49.196   3.147  20.433  0.00  0.00    +0.000 HD
ATOM     13  H   UNL     1      47.667   3.373  19.658  0.00  0.00    +0.000 HD
ENDBRANCH   1  10
BRANCH   5  14
ATOM     14  C   UNL     1      45.453   4.379  13.487  0.00  0.00    +0.000 C 
BRANCH  14  15
ATOM     15  C   UNL     1      45.470   4.531  11.972  0.00  0.00    +0.000 A 
ATOM     16  C   UNL     1      45.209   3.421  11.165  0.00  0.00    +0.000 A 
ATOM     17  C   UNL     1      45.230   3.558   9.772  0.00  0.00    +0.000 A 
ATOM     18  C   UNL     1      45.499   4.818   9.237  0.00  0.00    +0.000 A 
ATOM     19  C   UNL     1      45.745   5.870  10.104  0.00  0.00    +0.000 A 
ATOM     20  N   UNL     1      45.741   5.752  11.450  0.00  0.00    +0.000 NA
BRANCH  17  21
ATOM     21  C   UNL     1      44.969   2.383   8.870  0.00  0.00    +0.000 C 
ATOM     22  F   UNL     1      44.038   1.516   9.353  0.00  0.00    +0.000 F 
ATOM     23  F   UNL     1      44.525   2.763   7.640  0.00  0.00    +0.000 F 
ATOM     24  F   UNL     1      46.090   1.641   8.649  0.00  0.00    +0.000 F 
ENDBRANCH  17  21
ENDBRANCH  14  15
ENDBRANCH   5  14
TORSDOF 4
ENDMDL
MODEL 9
REMARK VINA RESULT:    -6.249      4.639      6.368
REMARK INTER + INTRA:          -8.152
REMARK INTER:                  -7.801
REMARK INTRA:                  -0.351
REMARK UNBOUND:                -0.442
REMARK  Name = 
REMARK  4 active torsions:
REMARK  status: ('A' for Active; 'I' for Inactive)
REMARK    1  A    between atoms: C_2  and  C_4
REMARK    2  A    between atoms: N_8  and  C_9
REMARK    3  A    between atoms: C_9  and  C_10
REMARK    4  A    between atoms: C_12  and  C_13
REMARK                            x       y       z     vdW  Elec       q    Type
REMARK                         _______ _______ _______ _____ _____    ______ ____
ROOT
ATOM      1  C   UNL     1      45.229   4.584  11.577  0.00  0.00    +0.000 A 
ATOM      2  C   UNL     1      45.727   5.831  11.939  0.00  0.00    +0.000 A 
ATOM      3  C   UNL     1      46.437   5.953  13.133  0.00  0.00    +0.000 A 
ATOM      4  C   UNL     1      46.599   4.843  13.960  0.00  0.00    +0.000 A 
ATOM      5  N   UNL     1      47.290   5.035  15.158  0.00  0.00    +0.000 N 
ATOM      6  N   UNL     1      46.101   3.636  13.633  0.00  0.00    +0.000 NA
ATOM      7  C   UNL     1      45.432   3.528  12.454  0.00  0.00    +0.000 A 
ATOM      8  H   UNL     1      48.270   5.216  14.958  0.00  0.00    +0.000 HD
ENDROOT
BRANCH   1  10
ATOM      9  N   UNL     1      45.028   4.836   9.169  0.00  0.00    +0.000 N 
ATOM     10  C   UNL     1      44.483   4.351  10.324  0.00  0.00    +0.000 C 
ATOM     11  O   UNL     1      43.433   3.719  10.312  0.00  0.00    +0.000 OA
ATOM     12  H   UNL     1      44.558   4.584   8.308  0.00  0.00    +0.000 HD
ATOM     13  H   UNL     1      45.987   5.146   9.102  0.00  0.00    +0.000 HD
ENDBRANCH   1  10
BRANCH   5  14
ATOM     14  C   UNL     1      47.135   3.984  16.160  0.00  0.00    +0.000 C 
BRANCH  14  15
ATOM     15  C   UNL     1      48.514   3.588  16.670  0.00  0.00    +0.000 A 
ATOM     16  C   UNL     1      49.281   4.519  17.373  0.00  0.00    +0.000 A 
ATOM     17  C   UNL     1      50.552   4.159  17.838  0.00  0.00    +0.000 A 
ATOM     18  C   UNL     1      51.001   2.861  17.591  0.00  0.00    +0.000 A 
ATOM     19  C   UNL     1      50.179   1.996  16.889  0.00  0.00    +0.000 A 
ATOM     20  N   UNL     1      48.956   2.331  16.422  0.00  0.00    +0.000 NA
BRANCH  17  21
ATOM     21  C   UNL     1      51.414   5.138  18.586  0.00  0.00    +0.000 C 
ATOM     22  F   UNL     1      51.776   4.715  19.828  0.00  0.00    +0.000 F 
ATOM     23  F   UNL     1      52.576   5.412  17.930  0.00  0.00    +0.000 F 
ATOM     24  F   UNL     1      50.797   6.339  18.767  0.00  0.00    +0.000 F 
ENDBRANCH  17  21
ENDBRANCH  14  15
ENDBRANCH   5  14
TORSDOF 4
ENDMDL
