MODEL 1
REMARK VINA RESULT:    -6.769      0.000      0.000
REMARK INTER + INTRA:          -8.416
REMARK INTER:                  -7.956
REMARK INTRA:                  -0.460
REMARK UNBOUND:                -0.460
REMARK  Name = 
REMARK  4 active torsions:
REMARK  status: ('A' for Active; 'I' for Inactive)
REMARK    1  A    between atoms: C_1  and  C_2
REMARK    2  A    between atoms: C_2  and  N_3
REMARK    3  A    between atoms: C_2  and  C_13
REMARK    4  A    between atoms: C_8  and  C_9
REMARK                            x       y       z     vdW  Elec       q    Type
REMARK                         _______ _______ _______ _____ _____    ______ ____
ROOT
ATOM      1  N   UNL     1      45.470   4.956  11.668  0.00  0.00    +0.000 N 
ATOM      2  C   UNL     1      45.564   6.320  11.980  0.00  0.00    +0.000 A 
ATOM      3  C   UNL     1      46.542   6.771  12.892  0.00  0.00    +0.000 A 
ATOM      4  N   UNL     1      46.678   8.070  13.268  0.00  0.00    +0.000 NA
ATOM      5  C   UNL     1      45.819   8.926  12.668  0.00  0.00    +0.000 A 
ATOM      6  C   UNL     1      44.880   8.506  11.728  0.00  0.00    +0.000 A 
ATOM      7  N   UNL     1      44.725   7.198  11.392  0.00  0.00    +0.000 NA
ATOM      8  H   UNL     1      46.376   4.643  11.319  0.00  0.00    +0.000 HD
ENDROOT
BRANCH   6   9
ATOM      9  C   UNL     1      44.032   9.494  11.013  0.00  0.00    +0.000 C 
ATOM     10  N   UNL     1      42.742   9.166  10.679  0.00  0.00    +0.000 N 
ATOM     11  O   UNL     1      44.475  10.610  10.702  0.00  0.00    +0.000 OA
ATOM     12  H   UNL     1      42.317   8.280  10.920  0.00  0.00    +0.000 HD
ATOM     13  H   UNL     1      42.183   9.869  10.219  0.00  0.00    +0.000 HD
ENDBRANCH   6   9
BRANCH   1  15
ATOM     14  C   UNL     1      43.402   3.580  11.332  0.00  0.00    +0.000 C 
ATOM     15  C   UNL     1      44.412   4.560  10.715  0.00  0.00    +0.000 C 
BRANCH  15  16
ATOM     16  C   UNL     1      45.004   3.838   9.496  0.00  0.00    +0.000 A 
ATOM     17  C   UNL     1      45.053   2.442   9.486  0.00  0.00    +0.000 A 
ATOM     18  C   UNL     1      45.766   1.799   8.479  0.00  0.00    +0.000 A 
ATOM     19  C   UNL     1      46.412   2.558   7.511  0.00  0.00    +0.000 A 
ATOM     20  C   UNL     1      46.300   3.936   7.579  0.00  0.00    +0.000 A 
ATOM     21  N   UNL     1      45.609   4.589   8.539  0.00  0.00    +0.000 NA
ENDBRANCH  15  16
ENDBRANCH   1  15
TORSDOF 3
ENDMDL
MODEL 2
REMARK VINA RESULT:    -6.440      2.494      2.667
REMARK INTER + INTRA:          -8.028
REMARK INTER:                  -7.562
REMARK INTRA:                  -0.467
REMARK UNBOUND:                -0.460
REMARK  Name = 
REMARK  4 active torsions:
REMARK  status: ('A' for Active; 'I' for Inactive)
REMARK    1  A    between atoms: C_1  and  C_2
REMARK    2  A    between atoms: C_2  and  N_3
REMARK    3  A    between atoms: C_2  and  C_13
REMARK    4  A    between atoms: C_8  and  C_9
REMARK                            x       y       z     vdW  Elec       q    Type
REMARK                         _______ _______ _______ _____ _____    ______ ____
ROOT
ATOM      1  N   UNL     1      45.185   4.468  12.207  0.00  0.00    +0.000 N 
ATOM      2  C   UNL     1      46.239   5.207  12.766  0.00  0.00    +0.000 A 
ATOM      3  C   UNL     1      46.843   4.778  13.968  0.00  0.00    +0.000 A 
ATOM      4  N   UNL     1      47.847   5.453  14.588  0.00  0.00    +0.000 NA
ATOM      5  C   UNL     1      48.261   6.568  13.943  0.00  0.00    +0.000 A 
ATOM      6  C   UNL     1      47.710   6.980  12.731  0.00  0.00    +0.000 A 
ATOM      7  N   UNL     1      46.678   6.320  12.142  0.00  0.00    +0.000 NA
ATOM      8  H   UNL     1      45.508   3.512  12.059  0.00  0.00    +0.000 HD
ENDROOT
BRANCH   6   9
ATOM      9  C   UNL     1      48.271   8.147  12.003  0.00  0.00    +0.000 C 
ATOM     10  N   UNL     1      47.634   9.362  12.074  0.00  0.00    +0.000 N 
ATOM     11  O   UNL     1      49.302   8.041  11.323  0.00  0.00    +0.000 OA
ATOM     12  H   UNL     1      46.800   9.516  12.626  0.00  0.00    +0.000 HD
ATOM     13  H   UNL     1      48.054  10.141  11.592  0.00  0.00    +0.000 HD
ENDBRANCH   6   9
BRANCH   1  15
ATOM     14  C   UNL     1      43.059   4.976  10.981  0.00  0.00    +0.000 C 
ATOM     15  C   UNL     1      44.595   4.989  10.955  0.00  0.00    +0.000 C 
BRANCH  15  16
ATOM     16  C   UNL     1      45.001   4.128   9.751  0.00  0.00    +0.000 A 
ATOM     17  C   UNL     1      44.893   2.739   9.836  0.00  0.00    +0.000 A 
ATOM     18  C   UNL     1      45.445   1.955   8.827  0.00  0.00    +0.000 A 
ATOM     19  C   UNL     1      46.089   2.571   7.761  0.00  0.00    +0.000 A 
ATOM     20  C   UNL     1      46.138   3.955   7.740  0.00  0.00    +0.000 A 
ATOM     21  N   UNL     1      45.606   4.743   8.700  0.00  0.00    +0.000 NA
ENDBRANCH  15  16
ENDBRANCH   1  15
TORSDOF 3
ENDMDL
MODEL 3
REMARK VINA RESULT:    -6.196      5.421      7.320
REMARK INTER + INTRA:          -7.742
REMARK INTER:                  -7.368
REMARK INTRA:                  -0.374
REMARK UNBOUND:                -0.460
REMARK  Name = 
REMARK  4 active torsions:
REMARK  status: ('A' for Active; 'I' for Inactive)
REMARK    1  A    between atoms: C_1  and  C_2
REMARK    2  A    between atoms: C_2  and  N_3
REMARK    3  A    between atoms: C_2  and  C_13
REMARK    4  A    between atoms: C_8  and  C_9
REMARK                            x       y       z     vdW  Elec       q    Type
REMARK                         _______ _______ _______ _____ _____    ______ ____
ROOT
ATOM      1  N   UNL     1      46.724   5.072  15.453  0.00  0.00    +0.000 N 
ATOM      2  C   UNL     1      47.511   4.540  16.485  0.00  0.00    +0.000 A 
ATOM      3  C   UNL     1      47.294   4.945  17.820  0.00  0.00    +0.000 A 
ATOM      4  N   UNL     1      48.033   4.499  18.871  0.00  0.00    +0.000 NA
ATOM      5  C   UNL     1      48.985   3.594  18.549  0.00  0.00    +0.000 A 
ATOM      6  C   UNL     1      49.181   3.145  17.244  0.00  0.00    +0.000 A 
ATOM      7  N   UNL     1      48.464   3.631  16.195  0.00  0.00    +0.000 NA
ATOM      8  H   UNL     1      45.744   4.889  15.669  0.00  0.00    +0.000 HD
ENDROOT
BRANCH   6   9
ATOM      9  C   UNL     1      50.163   2.069  16.954  0.00  0.00    +0.000 C 
ATOM     10  N   UNL     1      51.077   1.708  17.912  0.00  0.00    +0.000 N 
ATOM     11  O   UNL     1      50.177   1.497  15.854  0.00  0.00    +0.000 OA
ATOM     12  H   UNL     1      51.105   2.124  18.833  0.00  0.00    +0.000 HD
ATOM     13  H   UNL     1      51.712   0.955  17.695  0.00  0.00    +0.000 HD
ENDBRANCH   6   9
BRANCH   1  15
ATOM     14  C   UNL     1      47.878   5.613  13.295  0.00  0.00    +0.000 C 
ATOM     15  C   UNL     1      47.020   4.609  14.081  0.00  0.00    +0.000 C 
BRANCH  15  16
ATOM     16  C   UNL     1      45.732   4.431  13.265  0.00  0.00    +0.000 A 
ATOM     17  C   UNL     1      44.853   5.508  13.132  0.00  0.00    +0.000 A 
ATOM     18  C   UNL     1      43.600   5.291  12.566  0.00  0.00    +0.000 A 
ATOM     19  C   UNL     1      43.253   4.012  12.149  0.00  0.00    +0.000 A 
ATOM     20  C   UNL     1      44.187   3.001  12.298  0.00  0.00    +0.000 A 
ATOM     21  N   UNL     1      45.413   3.181  12.836  0.00  0.00    +0.000 NA
ENDBRANCH  15  16
ENDBRANCH   1  15
TORSDOF 3
ENDMDL
MODEL 4
REMARK VINA RESULT:    -6.000      2.378      5.911
REMARK INTER + INTRA:          -7.512
REMARK INTER:                  -7.121
REMARK INTRA:                  -0.391
REMARK UNBOUND:                -0.460
REMARK  Name = 
REMARK  4 active torsions:
REMARK  status: ('A' for Active; 'I' for Inactive)
REMARK    1  A    between atoms: C_1  and  C_2
REMARK    2  A    between atoms: C_2  and  N_3
REMARK    3  A    between atoms: C_2  and  C_13
REMARK    4  A    between atoms: C_8  and  C_9
REMARK                            x       y       z     vdW  Elec       q    Type
REMARK                         _______ _______ _______ _____ _____    ______ ____
ROOT
ATOM      1  N   UNL     1      45.875   6.142  13.289  0.00  0.00    +0.000 N 
ATOM      2  C   UNL     1      45.159   5.280  12.446  0.00  0.00    +0.000 A 
ATOM      3  C   UNL     1      44.072   4.536  12.953  0.00  0.00    +0.000 A 
ATOM      4  N   UNL     1      43.348   3.658  12.209  0.00  0.00    +0.000 NA
ATOM      5  C   UNL     1      43.724   3.572  10.912  0.00  0.00    +0.000 A 
ATOM      6  C   UNL     1      44.763   4.334  10.382  0.00  0.00    +0.000 A 
ATOM      7  N   UNL     1      45.507   5.177  11.146  0.00  0.00    +0.000 NA
ATOM      8  H   UNL     1      45.219   6.807  13.700  0.00  0.00    +0.000 HD
ENDROOT
BRANCH   6   9
ATOM      9  C   UNL     1      45.069   4.289   8.929  0.00  0.00    +0.000 C 
ATOM     10  N   UNL     1      44.357   3.447   8.111  0.00  0.00    +0.000 N 
ATOM     11  O   UNL     1      45.967   4.992   8.442  0.00  0.00    +0.000 OA
ATOM     12  H   UNL     1      43.602   2.862   8.444  0.00  0.00    +0.000 HD
ATOM     13  H   UNL     1      44.569   3.460   7.125  0.00  0.00    +0.000 HD
ENDBRANCH   6   9
BRANCH   1  15
ATOM     14  C   UNL     1      48.263   6.848  13.574  0.00  0.00    +0.000 C 
ATOM     15  C   UNL     1      47.008   6.876  12.687  0.00  0.00    +0.000 C 
BRANCH  15  16
ATOM     16  C   UNL     1      46.668   8.360  12.492  0.00  0.00    +0.000 A 
ATOM     17  C   UNL     1      45.331   8.763  12.517  0.00  0.00    +0.000 A 
ATOM     18  C   UNL     1      45.011  10.065  12.142  0.00  0.00    +0.000 A 
ATOM     19  C   UNL     1      46.026  10.931  11.753  0.00  0.00    +0.000 A 
ATOM     20  C   UNL     1      47.328  10.461  11.774  0.00  0.00    +0.000 A 
ATOM     21  N   UNL     1      47.671   9.206  12.138  0.00  0.00    +0.000 NA
ENDBRANCH  15  16
ENDBRANCH   1  15
TORSDOF 3
ENDMDL
MODEL 5
REMARK VINA RESULT:    -5.965      1.876      2.867
REMARK INTER + INTRA:          -7.471
REMARK INTER:                  -7.103
REMARK INTRA:                  -0.368
REMARK UNBOUND:                -0.460
REMARK  Name = 
REMARK  4 active torsions:
REMARK  status: ('A' for Active; 'I' for Inactive)
REMARK    1  A    between atoms: C_1  and  C_2
REMARK    2  A    between atoms: C_2  and  N_3
REMARK    3  A    between atoms: C_2  and  C_13
REMARK    4  A    between atoms: C_8  and  C_9
REMARK                            x       y       z     vdW  Elec       q    Type
REMARK                         _______ _______ _______ _____ _____    ______ ____
ROOT
ATOM      1  N   UNL     1      45.278   3.115  10.135  0.00  0.00    +0.000 N 
ATOM      2  C   UNL     1      45.408   3.889  11.297  0.00  0.00    +0.000 A 
ATOM      3  C   UNL     1      45.415   3.266  12.564  0.00  0.00    +0.000 A 
ATOM      4  N   UNL     1      45.506   3.947  13.737  0.00  0.00    +0.000 NA
ATOM      5  C   UNL     1      45.630   5.288  13.604  0.00  0.00    +0.000 A 
ATOM      6  C   UNL     1      45.675   5.916  12.360  0.00  0.00    +0.000 A 
ATOM      7  N   UNL     1      45.540   5.228  11.195  0.00  0.00    +0.000 NA
ATOM      8  H   UNL     1      46.026   2.421  10.126  0.00  0.00    +0.000 HD
ENDROOT
BRANCH   6   9
ATOM      9  C   UNL     1      45.923   7.377  12.259  0.00  0.00    +0.000 C 
ATOM     10  N   UNL     1      44.933   8.260  12.612  0.00  0.00    +0.000 N 
ATOM     11  O   UNL     1      47.009   7.814  11.851  0.00  0.00    +0.000 OA
ATOM     12  H   UNL     1      44.033   7.966  12.968  0.00  0.00    +0.000 HD
ATOM     13  H   UNL     1      45.142   9.245  12.559  0.00  0.00    +0.000 HD
ENDBRANCH   6   9
BRANCH   1  15
ATOM     14  C   UNL     1      43.844   4.051   8.305  0.00  0.00    +0.000 C 
ATOM     15  C   UNL     1      45.266   3.841   8.847  0.00  0.00    +0.000 C 
BRANCH  15  16
ATOM     16  C   UNL     1      46.017   3.057   7.761  0.00  0.00    +0.000 A 
ATOM     17  C   UNL     1      46.444   1.755   8.030  0.00  0.00    +0.000 A 
ATOM     18  C   UNL     1      47.293   1.123   7.125  0.00  0.00    +0.000 A 
ATOM     19  C   UNL     1      47.694   1.800   5.980  0.00  0.00    +0.000 A 
ATOM     20  C   UNL     1      47.211   3.081   5.776  0.00  0.00    +0.000 A 
ATOM     21  N   UNL     1      46.381   3.719   6.630  0.00  0.00    +0.000 NA
ENDBRANCH  15  16
ENDBRANCH   1  15
TORSDOF 3
ENDMDL
MODEL 6
REMARK VINA RESULT:    -5.955      2.932      5.797
REMARK INTER + INTRA:          -7.460
REMARK INTER:                  -7.029
REMARK INTRA:                  -0.431
REMARK UNBOUND:                -0.460
REMARK  Name = 
REMARK  4 active torsions:
REMARK  status: ('A' for Active; 'I' for Inactive)
REMARK    1  A    between atoms: C_1  and  C_2
REMARK    2  A    between atoms: C_2  and  N_3
REMARK    3  A    between atoms: C_2  and  C_13
REMARK    4  A    between atoms: C_8  and  C_9
REMARK                            x       y       z     vdW  Elec       q    Type
REMARK                         _______ _______ _______ _____ _____    ______ ____
ROOT
ATOM      1  N   UNL     1      45.589   5.530  13.841  0.00  0.00    +0.000 N 
ATOM      2  C   UNL     1      44.742   5.155  12.788  0.00  0.00    +0.000 A 
ATOM      3  C   UNL     1      43.381   5.530  12.809  0.00  0.00    +0.000 A 
ATOM      4  N   UNL     1      42.490   5.181  11.843  0.00  0.00    +0.000 NA
ATOM      5  C   UNL     1      43.015   4.466  10.821  0.00  0.00    +0.000 A 
ATOM      6  C   UNL     1      44.365   4.129  10.759  0.00  0.00    +0.000 A 
ATOM      7  N   UNL     1      45.238   4.448  11.752  0.00  0.00    +0.000 NA
ATOM      8  H   UNL     1      45.557   6.545  13.933  0.00  0.00    +0.000 HD
ENDROOT
BRANCH   6   9
ATOM      9  C   UNL     1      44.919   3.441   9.565  0.00  0.00    +0.000 C 
ATOM     10  N   UNL     1      45.034   2.073   9.562  0.00  0.00    +0.000 N 
ATOM     11  O   UNL     1      45.289   4.084   8.571  0.00  0.00    +0.000 OA
ATOM     12  H   UNL     1      44.733   1.492  10.334  0.00  0.00    +0.000 HD
ATOM     13  H   UNL     1      45.388   1.633   8.727  0.00  0.00    +0.000 HD
ENDBRANCH   6   9
BRANCH   1  15
ATOM     14  C   UNL     1      47.508   4.489  15.073  0.00  0.00    +0.000 C 
ATOM     15  C   UNL     1      46.998   5.089  13.754  0.00  0.00    +0.000 C 
BRANCH  15  16
ATOM     16  C   UNL     1      47.931   6.267  13.441  0.00  0.00    +0.000 A 
ATOM     17  C   UNL     1      47.890   6.853  12.174  0.00  0.00    +0.000 A 
ATOM     18  C   UNL     1      48.867   7.782  11.829  0.00  0.00    +0.000 A 
ATOM     19  C   UNL     1      49.858   8.103  12.748  0.00  0.00    +0.000 A 
ATOM     20  C   UNL     1      49.818   7.492  13.990  0.00  0.00    +0.000 A 
ATOM     21  N   UNL     1      48.880   6.593  14.358  0.00  0.00    +0.000 NA
ENDBRANCH  15  16
ENDBRANCH   1  15
TORSDOF 3
ENDMDL
MODEL 7
REMARK VINA RESULT:    -5.675      2.698      6.149
REMARK INTER + INTRA:          -7.130
REMARK INTER:                  -6.705
REMARK INTRA:                  -0.425
REMARK UNBOUND:                -0.460
REMARK  Name = 
REMARK  4 active torsions:
REMARK  status: ('A' for Active; 'I' for Inactive)
REMARK    1  A    between atoms: C_1  and  C_2
REMARK    2  A    between atoms: C_2  and  N_3
REMARK    3  A    between atoms: C_2  and  C_13
REMARK    4  A    between atoms: C_8  and  C_9
REMARK                            x       y       z     vdW  Elec       q    Type
REMARK                         _______ _______ _______ _____ _____    ______ ____
ROOT
ATOM      1  N   UNL     1      45.553   6.564  10.332  0.00  0.00    +0.000 N 
ATOM      2  C   UNL     1      45.185   5.226  10.122  0.00  0.00    +0.000 A 
ATOM      3  C   UNL     1      45.593   4.557   8.948  0.00  0.00    +0.000 A 
ATOM      4  N   UNL     1      45.254   3.273   8.658  0.00  0.00    +0.000 NA
ATOM      5  C   UNL     1      44.513   2.655   9.607  0.00  0.00    +0.000 A 
ATOM      6  C   UNL     1      44.142   3.284  10.794  0.00  0.00    +0.000 A 
ATOM      7  N   UNL     1      44.452   4.582  11.054  0.00  0.00    +0.000 NA
ATOM      8  H   UNL     1      46.570   6.628  10.285  0.00  0.00    +0.000 HD
ENDROOT
BRANCH   6   9
ATOM      9  C   UNL     1      43.425   2.533  11.855  0.00  0.00    +0.000 C 
ATOM     10  N   UNL     1      43.508   2.954  13.159  0.00  0.00    +0.000 N 
ATOM     11  O   UNL     1      42.758   1.523  11.585  0.00  0.00    +0.000 OA
ATOM     12  H   UNL     1      44.020   3.780  13.441  0.00  0.00    +0.000 HD
ATOM     13  H   UNL     1      42.986   2.440  13.853  0.00  0.00    +0.000 HD
ENDBRANCH   6   9
BRANCH   1  15
ATOM     14  C   UNL     1      44.528   8.616  11.342  0.00  0.00    +0.000 C 
ATOM     15  C   UNL     1      45.075   7.200  11.578  0.00  0.00    +0.000 C 
BRANCH  15  16
ATOM     16  C   UNL     1      46.216   7.356  12.593  0.00  0.00    +0.000 A 
ATOM     17  C   UNL     1      46.471   8.613  13.146  0.00  0.00    +0.000 A 
ATOM     18  C   UNL     1      47.623   8.795  13.907  0.00  0.00    +0.000 A 
ATOM     19  C   UNL     1      48.489   7.726  14.098  0.00  0.00    +0.000 A 
ATOM     20  C   UNL     1      48.156   6.506  13.533  0.00  0.00    +0.000 A 
ATOM     21  N   UNL     1      47.043   6.296  12.796  0.00  0.00    +0.000 NA
ENDBRANCH  15  16
ENDBRANCH   1  15
TORSDOF 3
ENDMDL
MODEL 8
REMARK VINA RESULT:    -5.527      4.990      7.158
REMARK INTER + INTRA:          -6.956
REMARK INTER:                  -6.591
REMARK INTRA:                  -0.365
REMARK UNBOUND:                -0.460
REMARK  Name = 
REMARK  4 active torsions:
REMARK  status: ('A' for Active; 'I' for Inactive)
REMARK    1  A    between atoms: C_1  and  C_2
REMARK    2  A    between atoms: C_2  and  N_3
REMARK    3  A    between atoms: C_2  and  C_13
REMARK    4  A    between atoms: C_8  and  C_9
REMARK                            x       y       z     vdW  Elec       q    Type
REMARK                         _______ _______ _______ _____ _____    ______ ____
ROOT
ATOM      1  N   UNL     1      48.123   5.285  15.670  0.00  0.00    +0.000 N 
ATOM      2  C   UNL     1      47.311   5.519  14.551  0.00  0.00    +0.000 A 
ATOM      3  C   UNL     1      47.533   6.654  13.741  0.00  0.00    +0.000 A 
ATOM      4  N   UNL     1      46.772   6.967  12.659  0.00  0.00    +0.000 NA
ATOM      5  C   UNL     1      45.790   6.079  12.383  0.00  0.00    +0.000 A 
ATOM      6  C   UNL     1      45.586   4.928  13.141  0.00  0.00    +0.000 A 
ATOM      7  N   UNL     1      46.327   4.647  14.246  0.00  0.00    +0.000 NA
ATOM      8  H   UNL     1      49.095   5.250  15.360  0.00  0.00    +0.000 HD
ENDROOT
BRANCH   6   9
ATOM      9  C   UNL     1      44.569   3.925  12.735  0.00  0.00    +0.000 C 
ATOM     10  N   UNL     1      44.956   2.636  12.465  0.00  0.00    +0.000 N 
ATOM     11  O   UNL     1      43.373   4.235  12.627  0.00  0.00    +0.000 OA
ATOM     12  H   UNL     1      45.912   2.317  12.552  0.00  0.00    +0.000 HD
ATOM     13  H   UNL     1      44.238   1.971  12.219  0.00  0.00    +0.000 HD
ENDBRANCH   6   9
BRANCH   1  15
ATOM     14  C   UNL     1      46.992   4.409  17.728  0.00  0.00    +0.000 C 
ATOM     15  C   UNL     1      47.820   4.083  16.475  0.00  0.00    +0.000 C 
BRANCH  15  16
ATOM     16  C   UNL     1      49.106   3.417  16.985  0.00  0.00    +0.000 A 
ATOM     17  C   UNL     1      50.039   4.182  17.689  0.00  0.00    +0.000 A 
ATOM     18  C   UNL     1      51.285   3.631  17.973  0.00  0.00    +0.000 A 
ATOM     19  C   UNL     1      51.572   2.339  17.552  0.00  0.00    +0.000 A 
ATOM     20  C   UNL     1      50.587   1.639  16.876  0.00  0.00    +0.000 A 
ATOM     21  N   UNL     1      49.366   2.142  16.591  0.00  0.00    +0.000 NA
ENDBRANCH  15  16
ENDBRANCH   1  15
TORSDOF 3
ENDMDL
MODEL 9
REMARK VINA RESULT:    -5.504      2.222      6.244
REMARK INTER + INTRA:          -6.928
REMARK INTER:                  -6.493
REMARK INTRA:                  -0.436
REMARK UNBOUND:                -0.460
REMARK  Name = 
REMARK  4 active torsions:
REMARK  status: ('A' for Active; 'I' for Inactive)
REMARK    1  A    between atoms: C_1  and  C_2
REMARK    2  A    between atoms: C_2  and  N_3
REMARK    3  A    between atoms: C_2  and  C_13
REMARK    4  A    between atoms: C_8  and  C_9
REMARK                            x       y       z     vdW  Elec       q    Type
REMARK                         _______ _______ _______ _____ _____    ______ ____
ROOT
ATOM      1  N   UNL     1      43.819   7.068  11.942  0.00  0.00    +0.000 N 
ATOM      2  C   UNL     1      43.902   5.802  11.344  0.00  0.00    +0.000 A 
ATOM      3  C   UNL     1      43.079   4.750  11.799  0.00  0.00    +0.000 A 
ATOM      4  N   UNL     1      43.121   3.489  11.293  0.00  0.00    +0.000 NA
ATOM      5  C   UNL     1      43.997   3.317  10.276  0.00  0.00    +0.000 A 
ATOM      6  C   UNL     1      44.782   4.355   9.780  0.00  0.00    +0.000 A 
ATOM      7  N   UNL     1      44.762   5.602  10.323  0.00  0.00    +0.000 NA
ATOM      8  H   UNL     1      42.853   7.391  11.878  0.00  0.00    +0.000 HD
ENDROOT
BRANCH   6   9
ATOM      9  C   UNL     1      45.648   4.148   8.591  0.00  0.00    +0.000 C 
ATOM     10  N   UNL     1      45.672   2.922   7.975  0.00  0.00    +0.000 N 
ATOM     11  O   UNL     1      46.358   5.064   8.151  0.00  0.00    +0.000 OA
ATOM     12  H   UNL     1      45.103   2.142   8.275  0.00  0.00    +0.000 HD
ATOM     13  H   UNL     1      46.248   2.821   7.153  0.00  0.00    +0.000 HD
ENDBRANCH   6   9
BRANCH   1  15
ATOM     14  C   UNL     1      45.766   8.561  12.454  0.00  0.00    +0.000 C 
ATOM     15  C   UNL     1      44.723   8.115  11.419  0.00  0.00    +0.000 C 
BRANCH  15  16
ATOM     16  C   UNL     1      43.944   9.381  11.037  0.00  0.00    +0.000 A 
ATOM     17  C   UNL     1      42.549   9.334  10.980  0.00  0.00    +0.000 A 
ATOM     18  C   UNL     1      41.858  10.417  10.443  0.00  0.00    +0.000 A 
ATOM     19  C   UNL     1      42.570  11.516   9.978  0.00  0.00    +0.000 A 
ATOM     20  C   UNL     1      43.950  11.494  10.087  0.00  0.00    +0.000 A 
ATOM     21  N   UNL     1      44.648  10.462  10.609  0.00  0.00    +0.000 NA
ENDBRANCH  15  16
ENDBRANCH   1  15
TORSDOF 3
ENDMDL
