MODEL 1
REMARK VINA RESULT:    -8.762      0.000      0.000
REMARK INTER + INTRA:         -12.062
REMARK INTER:                 -11.323
REMARK INTRA:                  -0.739
REMARK UNBOUND:                -0.739
REMARK  Name = 
REMARK  5 active torsions:
REMARK  status: ('A' for Active; 'I' for Inactive)
REMARK    1  A    between atoms: C_2  and  C_4
REMARK    2  A    between atoms: C_7  and  N_8
REMARK    3  A    between atoms: N_8  and  C_9
REMARK    4  A    between atoms: C_9  and  C_10
REMARK    5  A    between atoms: C_12  and  C_13
REMARK                            x       y       z     vdW  Elec       q    Type
REMARK                         _______ _______ _______ _____ _____    ______ ____
ROOT
ATOM      1  N   UNL     1      43.749   4.643  10.087  0.00  0.00    +0.000 N 
ATOM      2  H   UNL     1      43.834   5.646   9.938  0.00  0.00    +0.000 HD
ENDROOT
BRANCH   1   6
ATOM      3  C   UNL     1      46.404   2.315   7.775  0.00  0.00    +0.000 A 
ATOM      4  C   UNL     1      46.379   3.700   7.613  0.00  0.00    +0.000 A 
ATOM      5  C   UNL     1      45.481   4.475   8.352  0.00  0.00    +0.000 A 
ATOM      6  C   UNL     1      44.572   3.895   9.244  0.00  0.00    +0.000 A 
ATOM      7  C   UNL     1      44.620   2.502   9.401  0.00  0.00    +0.000 A 
ATOM      8  C   UNL     1      45.511   1.713   8.662  0.00  0.00    +0.000 A 
BRANCH   3  10
ATOM      9  N   UNL     1      48.483   2.081   6.534  0.00  0.00    +0.000 N 
ATOM     10  C   UNL     1      47.363   1.468   7.021  0.00  0.00    +0.000 C 
ATOM     11  O   UNL     1      47.180   0.267   6.873  0.00  0.00    +0.000 OA
ATOM     12  H   UNL     1      49.176   1.477   6.111  0.00  0.00    +0.000 HD
ATOM     13  H   UNL     1      48.789   2.986   6.860  0.00  0.00    +0.000 HD
ENDBRANCH   3  10
ENDBRANCH   1   6
BRANCH   1  14
ATOM     14  C   UNL     1      43.676   4.340  11.519  0.00  0.00    +0.000 C 
BRANCH  14  15
ATOM     15  C   UNL     1      44.953   4.763  12.219  0.00  0.00    +0.000 A 
ATOM     16  C   UNL     1      45.548   5.984  11.887  0.00  0.00    +0.000 A 
ATOM     17  C   UNL     1      46.699   6.419  12.558  0.00  0.00    +0.000 A 
ATOM     18  C   UNL     1      47.195   5.575  13.560  0.00  0.00    +0.000 A 
ATOM     19  C   UNL     1      46.544   4.380  13.837  0.00  0.00    +0.000 A 
ATOM     20  N   UNL     1      45.439   3.958  13.191  0.00  0.00    +0.000 NA
BRANCH  17  21
ATOM     21  C   UNL     1      47.349   7.706  12.226  0.00  0.00    +0.000 A 
ATOM     22  C   UNL     1      48.688   7.789  11.814  0.00  0.00    +0.000 A 
ATOM     23  C   UNL     1      49.268   9.019  11.503  0.00  0.00    +0.000 A 
ATOM     24  C   UNL     1      48.493  10.158  11.620  0.00  0.00    +0.000 A 
ATOM     25  N   UNL     1      47.205  10.142  12.011  0.00  0.00    +0.000 NA
ATOM     26  C   UNL     1      46.670   8.928  12.296  0.00  0.00    +0.000 A 
ENDBRANCH  17  21
ENDBRANCH  14  15
ENDBRANCH   1  14
TORSDOF 5
ENDMDL
MODEL 2
REMARK VINA RESULT:    -8.388      1.842      3.409
REMARK INTER + INTRA:         -11.579
REMARK INTER:                 -10.904
REMARK INTRA:                  -0.675
REMARK UNBOUND:                -0.739
REMARK  Name = 
REMARK  5 active torsions:
REMARK  status: ('A' for Active; 'I' for Inactive)
REMARK    1  A    between atoms: C_2  and  C_4
REMARK    2  A    between atoms: C_7  and  N_8
REMARK    3  A    between atoms: N_8  and  C_9
REMARK    4  A    between atoms: C_9  and  C_10
REMARK    5  A    between atoms: C_12  and  C_13
REMARK                            x       y       z     vdW  Elec       q    Type
REMARK                         _______ _______ _______ _____ _____    ______ ____
ROOT
ATOM      1  N   UNL     1      43.777   4.827  10.008  0.00  0.00    +0.000 N 
ATOM      2  H   UNL     1      43.799   5.802   9.720  0.00  0.00    +0.000 HD
ENDROOT
BRANCH   1   6
ATOM      3  C   UNL     1      46.367   2.282   7.856  0.00  0.00    +0.000 A 
ATOM      4  C   UNL     1      46.411   3.659   7.637  0.00  0.00    +0.000 A 
ATOM      5  C   UNL     1      45.535   4.505   8.322  0.00  0.00    +0.000 A 
ATOM      6  C   UNL     1      44.580   4.006   9.216  0.00  0.00    +0.000 A 
ATOM      7  C   UNL     1      44.560   2.620   9.432  0.00  0.00    +0.000 A 
ATOM      8  C   UNL     1      45.428   1.760   8.747  0.00  0.00    +0.000 A 
BRANCH   3  10
ATOM      9  N   UNL     1      48.325   1.929   6.458  0.00  0.00    +0.000 N 
ATOM     10  C   UNL     1      47.300   1.361   7.161  0.00  0.00    +0.000 C 
ATOM     11  O   UNL     1      47.182   0.145   7.241  0.00  0.00    +0.000 OA
ATOM     12  H   UNL     1      49.012   1.292   6.073  0.00  0.00    +0.000 HD
ATOM     13  H   UNL     1      48.603   2.891   6.589  0.00  0.00    +0.000 HD
ENDBRANCH   3  10
ENDBRANCH   1   6
BRANCH   1  14
ATOM     14  C   UNL     1      43.813   4.720  11.470  0.00  0.00    +0.000 C 
BRANCH  14  15
ATOM     15  C   UNL     1      45.007   5.470  12.028  0.00  0.00    +0.000 A 
ATOM     16  C   UNL     1      45.651   4.986  13.171  0.00  0.00    +0.000 A 
ATOM     17  C   UNL     1      46.789   5.633  13.673  0.00  0.00    +0.000 A 
ATOM     18  C   UNL     1      47.229   6.760  12.968  0.00  0.00    +0.000 A 
ATOM     19  C   UNL     1      46.539   7.175  11.836  0.00  0.00    +0.000 A 
ATOM     20  N   UNL     1      45.444   6.558  11.353  0.00  0.00    +0.000 NA
BRANCH  17  21
ATOM     21  C   UNL     1      47.489   5.142  14.881  0.00  0.00    +0.000 A 
ATOM     22  C   UNL     1      47.183   3.910  15.478  0.00  0.00    +0.000 A 
ATOM     23  C   UNL     1      47.867   3.475  16.614  0.00  0.00    +0.000 A 
ATOM     24  C   UNL     1      48.848   4.292  17.143  0.00  0.00    +0.000 A 
ATOM     25  N   UNL     1      49.184   5.485  16.616  0.00  0.00    +0.000 NA
ATOM     26  C   UNL     1      48.505   5.872  15.506  0.00  0.00    +0.000 A 
ENDBRANCH  17  21
ENDBRANCH  14  15
ENDBRANCH   1  14
TORSDOF 5
ENDMDL
MODEL 3
REMARK VINA RESULT:    -7.970      1.810      2.373
REMARK INTER + INTRA:         -11.039
REMARK INTER:                 -10.364
REMARK INTRA:                  -0.675
REMARK UNBOUND:                -0.739
REMARK  Name = 
REMARK  5 active torsions:
REMARK  status: ('A' for Active; 'I' for Inactive)
REMARK    1  A    between atoms: C_2  and  C_4
REMARK    2  A    between atoms: C_7  and  N_8
REMARK    3  A    between atoms: N_8  and  C_9
REMARK    4  A    between atoms: C_9  and  C_10
REMARK    5  A    between atoms: C_12  and  C_13
REMARK                            x       y       z     vdW  Elec       q    Type
REMARK                         _______ _______ _______ _____ _____    ______ ____
ROOT
ATOM      1  N   UNL     1      43.787   3.902  10.515  0.00  0.00    +0.000 N 
ATOM      2  H   UNL     1      43.196   4.694  10.274  0.00  0.00    +0.000 HD
ENDROOT
BRANCH   1   6
ATOM      3  C   UNL     1      46.545   2.659   7.572  0.00  0.00    +0.000 A 
ATOM      4  C   UNL     1      46.229   4.012   7.696  0.00  0.00    +0.000 A 
ATOM      5  C   UNL     1      45.293   4.428   8.647  0.00  0.00    +0.000 A 
ATOM      6  C   UNL     1      44.631   3.514   9.475  0.00  0.00    +0.000 A 
ATOM      7  C   UNL     1      44.971   2.159   9.343  0.00  0.00    +0.000 A 
ATOM      8  C   UNL     1      45.903   1.728   8.390  0.00  0.00    +0.000 A 
BRANCH   3  10
ATOM      9  N   UNL     1      47.856   3.036   5.558  0.00  0.00    +0.000 N 
ATOM     10  C   UNL     1      47.553   2.190   6.588  0.00  0.00    +0.000 C 
ATOM     11  O   UNL     1      48.116   1.110   6.710  0.00  0.00    +0.000 OA
ATOM     12  H   UNL     1      48.615   2.750   4.952  0.00  0.00    +0.000 HD
ATOM     13  H   UNL     1      47.617   4.017   5.576  0.00  0.00    +0.000 HD
ENDBRANCH   3  10
ENDBRANCH   1   6
BRANCH   1  14
ATOM     14  C   UNL     1      44.301   4.039  11.882  0.00  0.00    +0.000 C 
BRANCH  14  15
ATOM     15  C   UNL     1      44.893   5.421  12.090  0.00  0.00    +0.000 A 
ATOM     16  C   UNL     1      46.103   5.555  12.776  0.00  0.00    +0.000 A 
ATOM     17  C   UNL     1      46.694   6.816  12.934  0.00  0.00    +0.000 A 
ATOM     18  C   UNL     1      46.013   7.901  12.367  0.00  0.00    +0.000 A 
ATOM     19  C   UNL     1      44.817   7.686  11.694  0.00  0.00    +0.000 A 
ATOM     20  N   UNL     1      44.245   6.476  11.544  0.00  0.00    +0.000 NA
BRANCH  17  21
ATOM     21  C   UNL     1      47.975   6.986  13.656  0.00  0.00    +0.000 A 
ATOM     22  C   UNL     1      49.006   7.807  13.174  0.00  0.00    +0.000 A 
ATOM     23  C   UNL     1      50.199   7.950  13.883  0.00  0.00    +0.000 A 
ATOM     24  C   UNL     1      50.345   7.254  15.069  0.00  0.00    +0.000 A 
ATOM     25  N   UNL     1      49.392   6.451  15.581  0.00  0.00    +0.000 NA
ATOM     26  C   UNL     1      48.241   6.344  14.869  0.00  0.00    +0.000 A 
ENDBRANCH  17  21
ENDBRANCH  14  15
ENDBRANCH   1  14
TORSDOF 5
ENDMDL
MODEL 4
REMARK VINA RESULT:    -7.897      2.549      6.635
REMARK INTER + INTRA:         -10.945
REMARK INTER:                 -10.112
REMARK INTRA:                  -0.832
REMARK UNBOUND:                -0.739
REMARK  Name = 
REMARK  5 active torsions:
REMARK  status: ('A' for Active; 'I' for Inactive)
REMARK    1  A    between atoms: C_2  and  C_4
REMARK    2  A    between atoms: C_7  and  N_8
REMARK    3  A    between atoms: N_8  and  C_9
REMARK    4  A    between atoms: C_9  and  C_10
REMARK    5  A    between atoms: C_12  and  C_13
REMARK                            x       y       z     vdW  Elec       q    Type
REMARK                         _______ _______ _______ _____ _____    ______ ____
ROOT
ATOM      1  N   UNL     1      43.983   6.545  12.529  0.00  0.00    +0.000 N 
ATOM      2  H   UNL     1      43.618   5.922  13.245  0.00  0.00    +0.000 HD
ENDROOT
BRANCH   1   6
ATOM      3  C   UNL     1      48.146   7.237  12.639  0.00  0.00    +0.000 A 
ATOM      4  C   UNL     1      47.625   6.069  13.194  0.00  0.00    +0.000 A 
ATOM      5  C   UNL     1      46.245   5.846  13.189  0.00  0.00    +0.000 A 
ATOM      6  C   UNL     1      45.351   6.786  12.662  0.00  0.00    +0.000 A 
ATOM      7  C   UNL     1      45.895   7.950  12.098  0.00  0.00    +0.000 A 
ATOM      8  C   UNL     1      47.276   8.187  12.101  0.00  0.00    +0.000 A 
BRANCH   3  10
ATOM      9  N   UNL     1      50.282   7.386  13.791  0.00  0.00    +0.000 N 
ATOM     10  C   UNL     1      49.608   7.490  12.607  0.00  0.00    +0.000 C 
ATOM     11  O   UNL     1      50.194   7.744  11.563  0.00  0.00    +0.000 OA
ATOM     12  H   UNL     1      51.291   7.460  13.741  0.00  0.00    +0.000 HD
ATOM     13  H   UNL     1      49.887   6.927  14.600  0.00  0.00    +0.000 HD
ENDBRANCH   3  10
ENDBRANCH   1   6
BRANCH   1  14
ATOM     14  C   UNL     1      43.407   6.220  11.220  0.00  0.00    +0.000 C 
BRANCH  14  15
ATOM     15  C   UNL     1      43.651   4.762  10.879  0.00  0.00    +0.000 A 
ATOM     16  C   UNL     1      44.477   4.436   9.800  0.00  0.00    +0.000 A 
ATOM     17  C   UNL     1      44.759   3.095   9.500  0.00  0.00    +0.000 A 
ATOM     18  C   UNL     1      44.179   2.133  10.336  0.00  0.00    +0.000 A 
ATOM     19  C   UNL     1      43.375   2.536  11.394  0.00  0.00    +0.000 A 
ATOM     20  N   UNL     1      43.099   3.823  11.683  0.00  0.00    +0.000 NA
BRANCH  17  21
ATOM     21  C   UNL     1      45.629   2.723   8.363  0.00  0.00    +0.000 A 
ATOM     22  C   UNL     1      45.952   3.624   7.336  0.00  0.00    +0.000 A 
ATOM     23  C   UNL     1      46.780   3.241   6.281  0.00  0.00    +0.000 A 
ATOM     24  C   UNL     1      47.270   1.949   6.266  0.00  0.00    +0.000 A 
ATOM     25  N   UNL     1      46.995   1.040   7.221  0.00  0.00    +0.000 NA
ATOM     26  C   UNL     1      46.193   1.449   8.237  0.00  0.00    +0.000 A 
ENDBRANCH  17  21
ENDBRANCH  14  15
ENDBRANCH   1  14
TORSDOF 5
ENDMDL
MODEL 5
REMARK VINA RESULT:    -7.382      3.006      7.325
REMARK INTER + INTRA:         -10.279
REMARK INTER:                  -9.784
REMARK INTRA:                  -0.494
REMARK UNBOUND:                -0.739
REMARK  Name = 
REMARK  5 active torsions:
REMARK  status: ('A' for Active; 'I' for Inactive)
REMARK    1  A    between atoms: C_2  and  C_4
REMARK    2  A    between atoms: C_7  and  N_8
REMARK    3  A    between atoms: N_8  and  C_9
REMARK    4  A    between atoms: C_9  and  C_10
REMARK    5  A    between atoms: C_12  and  C_13
REMARK                            x       y       z     vdW  Elec       q    Type
REMARK                         _______ _______ _______ _____ _____    ______ ____
ROOT
ATOM      1  N   UNL     1      46.329   6.605  11.622  0.00  0.00    +0.000 N 
ATOM      2  H   UNL     1      46.684   7.494  11.276  0.00  0.00    +0.000 HD
ENDROOT
BRANCH   1   6
ATOM      3  C   UNL     1      47.966   5.624  15.387  0.00  0.00    +0.000 A 
ATOM      4  C   UNL     1      47.025   4.778  14.801  0.00  0.00    +0.000 A 
ATOM      5  C   UNL     1      46.455   5.111  13.569  0.00  0.00    +0.000 A 
ATOM      6  C   UNL     1      46.782   6.300  12.906  0.00  0.00    +0.000 A 
ATOM      7  C   UNL     1      47.739   7.132  13.506  0.00  0.00    +0.000 A 
ATOM      8  C   UNL     1      48.313   6.812  14.743  0.00  0.00    +0.000 A 
BRANCH   3  10
ATOM      9  N   UNL     1      47.896   5.560  17.818  0.00  0.00    +0.000 N 
ATOM     10  C   UNL     1      48.606   5.285  16.683  0.00  0.00    +0.000 C 
ATOM     11  O   UNL     1      49.705   4.748  16.735  0.00  0.00    +0.000 OA
ATOM     12  H   UNL     1      48.297   5.233  18.688  0.00  0.00    +0.000 HD
ATOM     13  H   UNL     1      46.904   5.748  17.802  0.00  0.00    +0.000 HD
ENDBRANCH   3  10
ENDBRANCH   1   6
BRANCH   1  14
ATOM     14  C   UNL     1      44.915   6.444  11.271  0.00  0.00    +0.000 C 
BRANCH  14  15
ATOM     15  C   UNL     1      44.657   5.050  10.732  0.00  0.00    +0.000 A 
ATOM     16  C   UNL     1      45.400   4.584   9.644  0.00  0.00    +0.000 A 
ATOM     17  C   UNL     1      45.216   3.280   9.163  0.00  0.00    +0.000 A 
ATOM     18  C   UNL     1      44.268   2.496   9.832  0.00  0.00    +0.000 A 
ATOM     19  C   UNL     1      43.573   3.028  10.911  0.00  0.00    +0.000 A 
ATOM     20  N   UNL     1      43.746   4.281  11.373  0.00  0.00    +0.000 NA
BRANCH  17  21
ATOM     21  C   UNL     1      45.989   2.762   8.012  0.00  0.00    +0.000 A 
ATOM     22  C   UNL     1      46.271   3.546   6.883  0.00  0.00    +0.000 A 
ATOM     23  C   UNL     1      47.008   3.028   5.817  0.00  0.00    +0.000 A 
ATOM     24  C   UNL     1      47.447   1.719   5.898  0.00  0.00    +0.000 A 
ATOM     25  N   UNL     1      47.206   0.919   6.954  0.00  0.00    +0.000 NA
ATOM     26  C   UNL     1      46.495   1.459   7.976  0.00  0.00    +0.000 A 
ENDBRANCH  17  21
ENDBRANCH  14  15
ENDBRANCH   1  14
TORSDOF 5
ENDMDL
MODEL 6
REMARK VINA RESULT:    -6.912      4.327      8.207
REMARK INTER + INTRA:          -9.672
REMARK INTER:                  -9.256
REMARK INTRA:                  -0.416
REMARK UNBOUND:                -0.739
REMARK  Name = 
REMARK  5 active torsions:
REMARK  status: ('A' for Active; 'I' for Inactive)
REMARK    1  A    between atoms: C_2  and  C_4
REMARK    2  A    between atoms: C_7  and  N_8
REMARK    3  A    between atoms: N_8  and  C_9
REMARK    4  A    between atoms: C_9  and  C_10
REMARK    5  A    between atoms: C_12  and  C_13
REMARK                            x       y       z     vdW  Elec       q    Type
REMARK                         _______ _______ _______ _____ _____    ______ ____
ROOT
ATOM      1  N   UNL     1      46.830   3.673  14.572  0.00  0.00    +0.000 N 
ATOM      2  H   UNL     1      47.430   3.165  13.926  0.00  0.00    +0.000 HD
ENDROOT
BRANCH   1   6
ATOM      3  C   UNL     1      48.474   4.580  18.353  0.00  0.00    +0.000 A 
ATOM      4  C   UNL     1      48.448   5.557  17.358  0.00  0.00    +0.000 A 
ATOM      5  C   UNL     1      47.934   5.256  16.094  0.00  0.00    +0.000 A 
ATOM      6  C   UNL     1      47.462   3.976  15.778  0.00  0.00    +0.000 A 
ATOM      7  C   UNL     1      47.486   3.010  16.796  0.00  0.00    +0.000 A 
ATOM      8  C   UNL     1      48.004   3.298  18.065  0.00  0.00    +0.000 A 
BRANCH   3  10
ATOM      9  N   UNL     1      48.715   3.968  20.695  0.00  0.00    +0.000 N 
ATOM     10  C   UNL     1      48.991   4.877  19.711  0.00  0.00    +0.000 C 
ATOM     11  O   UNL     1      49.668   5.871  19.938  0.00  0.00    +0.000 OA
ATOM     12  H   UNL     1      49.156   4.129  21.591  0.00  0.00    +0.000 HD
ATOM     13  H   UNL     1      48.400   3.031  20.491  0.00  0.00    +0.000 HD
ENDBRANCH   3  10
ENDBRANCH   1   6
BRANCH   1  14
ATOM     14  C   UNL     1      46.052   4.692  13.860  0.00  0.00    +0.000 C 
BRANCH  14  15
ATOM     15  C   UNL     1      45.220   4.055  12.764  0.00  0.00    +0.000 A 
ATOM     16  C   UNL     1      45.762   3.910  11.484  0.00  0.00    +0.000 A 
ATOM     17  C   UNL     1      45.030   3.276  10.470  0.00  0.00    +0.000 A 
ATOM     18  C   UNL     1      43.757   2.806  10.819  0.00  0.00    +0.000 A 
ATOM     19  C   UNL     1      43.291   2.982  12.114  0.00  0.00    +0.000 A 
ATOM     20  N   UNL     1      43.990   3.594  13.090  0.00  0.00    +0.000 NA
BRANCH  17  21
ATOM     21  C   UNL     1      45.580   3.109   9.107  0.00  0.00    +0.000 A 
ATOM     22  C   UNL     1      45.937   1.855   8.588  0.00  0.00    +0.000 A 
ATOM     23  C   UNL     1      46.448   1.733   7.295  0.00  0.00    +0.000 A 
ATOM     24  C   UNL     1      46.603   2.880   6.540  0.00  0.00    +0.000 A 
ATOM     25  N   UNL     1      46.280   4.110   6.983  0.00  0.00    +0.000 NA
ATOM     26  C   UNL     1      45.777   4.190   8.241  0.00  0.00    +0.000 A 
ENDBRANCH  17  21
ENDBRANCH  14  15
ENDBRANCH   1  14
TORSDOF 5
ENDMDL
MODEL 7
REMARK VINA RESULT:    -6.546      4.594      7.900
REMARK INTER + INTRA:          -9.199
REMARK INTER:                  -8.531
REMARK INTRA:                  -0.667
REMARK UNBOUND:                -0.739
REMARK  Name = 
REMARK  5 active torsions:
REMARK  status: ('A' for Active; 'I' for Inactive)
REMARK    1  A    between atoms: C_2  and  C_4
REMARK    2  A    between atoms: C_7  and  N_8
REMARK    3  A    between atoms: N_8  and  C_9
REMARK    4  A    between atoms: C_9  and  C_10
REMARK    5  A    between atoms: C_12  and  C_13
REMARK                            x       y       z     vdW  Elec       q    Type
REMARK                         _______ _______ _______ _____ _____    ______ ____
ROOT
ATOM      1  N   UNL     1      48.138   5.501  16.522  0.00  0.00    +0.000 N 
ATOM      2  H   UNL     1      47.314   5.155  16.037  0.00  0.00    +0.000 HD
ENDROOT
BRANCH   1   6
ATOM      3  C   UNL     1      50.950   2.490  17.441  0.00  0.00    +0.000 A 
ATOM      4  C   UNL     1      49.669   2.134  17.020  0.00  0.00    +0.000 A 
ATOM      5  C   UNL     1      48.722   3.125  16.744  0.00  0.00    +0.000 A 
ATOM      6  C   UNL     1      49.013   4.484  16.905  0.00  0.00    +0.000 A 
ATOM      7  C   UNL     1      50.311   4.822  17.319  0.00  0.00    +0.000 A 
ATOM      8  C   UNL     1      51.267   3.839  17.604  0.00  0.00    +0.000 A 
BRANCH   3  10
ATOM      9  N   UNL     1      51.543   0.226  18.104  0.00  0.00    +0.000 N 
ATOM     10  C   UNL     1      51.983   1.461  17.719  0.00  0.00    +0.000 C 
ATOM     11  O   UNL     1      53.176   1.694  17.575  0.00  0.00    +0.000 OA
ATOM     12  H   UNL     1      52.249  -0.494  18.192  0.00  0.00    +0.000 HD
ATOM     13  H   UNL     1      50.586  -0.071  17.976  0.00  0.00    +0.000 HD
ENDBRANCH   3  10
ENDBRANCH   1   6
BRANCH   1  14
ATOM     14  C   UNL     1      48.644   6.716  15.876  0.00  0.00    +0.000 C 
BRANCH  14  15
ATOM     15  C   UNL     1      48.276   6.727  14.404  0.00  0.00    +0.000 A 
ATOM     16  C   UNL     1      47.211   5.942  13.955  0.00  0.00    +0.000 A 
ATOM     17  C   UNL     1      46.820   5.978  12.609  0.00  0.00    +0.000 A 
ATOM     18  C   UNL     1      47.544   6.835  11.770  0.00  0.00    +0.000 A 
ATOM     19  C   UNL     1      48.587   7.589  12.293  0.00  0.00    +0.000 A 
ATOM     20  N   UNL     1      48.967   7.554  13.585  0.00  0.00    +0.000 NA
BRANCH  17  21
ATOM     21  C   UNL     1      45.696   5.157  12.107  0.00  0.00    +0.000 A 
ATOM     22  C   UNL     1      45.323   3.945  12.708  0.00  0.00    +0.000 A 
ATOM     23  C   UNL     1      44.253   3.198  12.212  0.00  0.00    +0.000 A 
ATOM     24  C   UNL     1      43.575   3.677  11.107  0.00  0.00    +0.000 A 
ATOM     25  N   UNL     1      43.887   4.831  10.487  0.00  0.00    +0.000 NA
ATOM     26  C   UNL     1      44.926   5.536  11.002  0.00  0.00    +0.000 A 
ENDBRANCH  17  21
ENDBRANCH  14  15
ENDBRANCH   1  14
TORSDOF 5
ENDMDL
MODEL 8
REMARK VINA RESULT:    -6.464      2.851      6.880
REMARK INTER + INTRA:          -9.092
REMARK INTER:                  -8.398
REMARK INTRA:                  -0.694
REMARK UNBOUND:                -0.739
REMARK  Name = 
REMARK  5 active torsions:
REMARK  status: ('A' for Active; 'I' for Inactive)
REMARK    1  A    between atoms: C_2  and  C_4
REMARK    2  A    between atoms: C_7  and  N_8
REMARK    3  A    between atoms: N_8  and  C_9
REMARK    4  A    between atoms: C_9  and  C_10
REMARK    5  A    between atoms: C_12  and  C_13
REMARK                            x       y       z     vdW  Elec       q    Type
REMARK                         _______ _______ _______ _____ _____    ______ ____
ROOT
ATOM      1  N   UNL     1      46.527   6.880  13.322  0.00  0.00    +0.000 N 
ATOM      2  H   UNL     1      46.692   5.877  13.367  0.00  0.00    +0.000 HD
ENDROOT
BRANCH   1   6
ATOM      3  C   UNL     1      49.676   9.097  11.593  0.00  0.00    +0.000 A 
ATOM      4  C   UNL     1      49.782   7.709  11.695  0.00  0.00    +0.000 A 
ATOM      5  C   UNL     1      48.757   6.971  12.295  0.00  0.00    +0.000 A 
ATOM      6  C   UNL     1      47.622   7.591  12.830  0.00  0.00    +0.000 A 
ATOM      7  C   UNL     1      47.529   8.985  12.708  0.00  0.00    +0.000 A 
ATOM      8  C   UNL     1      48.551   9.737  12.114  0.00  0.00    +0.000 A 
BRANCH   3  10
ATOM      9  N   UNL     1      50.357  11.092  10.380  0.00  0.00    +0.000 N 
ATOM     10  C   UNL     1      50.736   9.904  10.941  0.00  0.00    +0.000 C 
ATOM     11  O   UNL     1      51.906   9.545  10.935  0.00  0.00    +0.000 OA
ATOM     12  H   UNL     1      51.102  11.680  10.028  0.00  0.00    +0.000 HD
ATOM     13  H   UNL     1      49.475  11.534  10.597  0.00  0.00    +0.000 HD
ENDBRANCH   3  10
ENDBRANCH   1   6
BRANCH   1  14
ATOM     14  C   UNL     1      45.174   7.158  12.830  0.00  0.00    +0.000 C 
BRANCH  14  15
ATOM     15  C   UNL     1      44.579   5.922  12.183  0.00  0.00    +0.000 A 
ATOM     16  C   UNL     1      45.199   5.367  11.059  0.00  0.00    +0.000 A 
ATOM     17  C   UNL     1      44.697   4.195  10.477  0.00  0.00    +0.000 A 
ATOM     18  C   UNL     1      43.569   3.629  11.085  0.00  0.00    +0.000 A 
ATOM     19  C   UNL     1      43.014   4.236  12.204  0.00  0.00    +0.000 A 
ATOM     20  N   UNL     1      43.492   5.364  12.763  0.00  0.00    +0.000 NA
BRANCH  17  21
ATOM     21  C   UNL     1      45.333   3.587   9.288  0.00  0.00    +0.000 A 
ATOM     22  C   UNL     1      45.475   2.199   9.138  0.00  0.00    +0.000 A 
ATOM     23  C   UNL     1      46.076   1.658   8.000  0.00  0.00    +0.000 A 
ATOM     24  C   UNL     1      46.536   2.525   7.026  0.00  0.00    +0.000 A 
ATOM     25  N   UNL     1      46.429   3.865   7.114  0.00  0.00    +0.000 NA
ATOM     26  C   UNL     1      45.832   4.355   8.230  0.00  0.00    +0.000 A 
ENDBRANCH  17  21
ENDBRANCH  14  15
ENDBRANCH   1  14
TORSDOF 5
ENDMDL
MODEL 9
REMARK VINA RESULT:    -6.364      3.117      5.692
REMARK INTER + INTRA:          -8.963
REMARK INTER:                  -8.285
REMARK INTRA:                  -0.678
REMARK UNBOUND:                -0.739
REMARK  Name = 
REMARK  5 active torsions:
REMARK  status: ('A' for Active; 'I' for Inactive)
REMARK    1  A    between atoms: C_2  and  C_4
REMARK    2  A    between atoms: C_7  and  N_8
REMARK    3  A    between atoms: N_8  and  C_9
REMARK    4  A    between atoms: C_9  and  C_10
REMARK    5  A    between atoms: C_12  and  C_13
REMARK                            x       y       z     vdW  Elec       q    Type
REMARK                         _______ _______ _______ _____ _____    ______ ____
ROOT
ATOM      1  N   UNL     1      46.123   7.780  12.816  0.00  0.00    +0.000 N 
ATOM      2  H   UNL     1      45.570   8.624  12.690  0.00  0.00    +0.000 HD
ENDROOT
BRANCH   1   6
ATOM      3  C   UNL     1      44.462   4.181  11.365  0.00  0.00    +0.000 A 
ATOM      4  C   UNL     1      45.230   4.979  10.517  0.00  0.00    +0.000 A 
ATOM      5  C   UNL     1      45.758   6.187  10.981  0.00  0.00    +0.000 A 
ATOM      6  C   UNL     1      45.513   6.645  12.281  0.00  0.00    +0.000 A 
ATOM      7  C   UNL     1      44.748   5.822  13.122  0.00  0.00    +0.000 A 
ATOM      8  C   UNL     1      44.209   4.612  12.667  0.00  0.00    +0.000 A 
BRANCH   3  10
ATOM      9  N   UNL     1      44.590   2.230   9.918  0.00  0.00    +0.000 N 
ATOM     10  C   UNL     1      43.909   2.882  10.908  0.00  0.00    +0.000 C 
ATOM     11  O   UNL     1      42.909   2.394  11.417  0.00  0.00    +0.000 OA
ATOM     12  H   UNL     1      44.263   1.300   9.685  0.00  0.00    +0.000 HD
ATOM     13  H   UNL     1      45.541   2.465   9.670  0.00  0.00    +0.000 HD
ENDBRANCH   3  10
ENDBRANCH   1   6
BRANCH   1  14
ATOM     14  C   UNL     1      47.542   8.050  12.571  0.00  0.00    +0.000 C 
BRANCH  14  15
ATOM     15  C   UNL     1      48.373   7.672  13.783  0.00  0.00    +0.000 A 
ATOM     16  C   UNL     1      48.003   6.566  14.553  0.00  0.00    +0.000 A 
ATOM     17  C   UNL     1      48.786   6.167  15.646  0.00  0.00    +0.000 A 
ATOM     18  C   UNL     1      49.934   6.927  15.902  0.00  0.00    +0.000 A 
ATOM     19  C   UNL     1      50.238   8.009  15.087  0.00  0.00    +0.000 A 
ATOM     20  N   UNL     1      49.486   8.397  14.039  0.00  0.00    +0.000 NA
BRANCH  17  21
ATOM     21  C   UNL     1      48.418   5.000  16.477  0.00  0.00    +0.000 A 
ATOM     22  C   UNL     1      49.258   4.498  17.483  0.00  0.00    +0.000 A 
ATOM     23  C   UNL     1      48.877   3.398  18.252  0.00  0.00    +0.000 A 
ATOM     24  C   UNL     1      47.653   2.808  17.994  0.00  0.00    +0.000 A 
ATOM     25  N   UNL     1      46.806   3.244  17.042  0.00  0.00    +0.000 NA
ATOM     26  C   UNL     1      47.204   4.321  16.319  0.00  0.00    +0.000 A 
ENDBRANCH  17  21
ENDBRANCH  14  15
ENDBRANCH   1  14
TORSDOF 5
ENDMDL
