MODEL 1
REMARK VINA RESULT:    -8.321      0.000      0.000
REMARK INTER + INTRA:         -10.332
REMARK INTER:                  -9.781
REMARK INTRA:                  -0.551
REMARK UNBOUND:                -0.551
REMARK  Name = 
REMARK  3 active torsions:
REMARK  status: ('A' for Active; 'I' for Inactive)
REMARK    1  A    between atoms: C_2  and  C_4
REMARK    2  A    between atoms: N_8  and  C_9
REMARK    3  A    between atoms: C_9  and  C_10
REMARK                            x       y       z     vdW  Elec       q    Type
REMARK                         _______ _______ _______ _____ _____    ______ ____
ROOT
ATOM      1  C   UNL     1      46.562   2.660   7.512  0.00  0.00    +0.000 A 
ATOM      2  C   UNL     1      46.279   4.007   7.718  0.00  0.00    +0.000 A 
ATOM      3  C   UNL     1      45.430   4.377   8.767  0.00  0.00    +0.000 A 
ATOM      4  C   UNL     1      44.875   3.397   9.581  0.00  0.00    +0.000 A 
ATOM      5  N   UNL     1      43.947   3.666  10.591  0.00  0.00    +0.000 N 
ATOM      6  N   UNL     1      45.132   2.087   9.380  0.00  0.00    +0.000 NA
ATOM      7  C   UNL     1      45.960   1.743   8.357  0.00  0.00    +0.000 A 
ATOM      8  H   UNL     1      43.765   2.774  11.046  0.00  0.00    +0.000 HD
ENDROOT
BRANCH   1  10
ATOM      9  N   UNL     1      47.663   3.022   5.375  0.00  0.00    +0.000 N 
ATOM     10  C   UNL     1      47.431   2.169   6.423  0.00  0.00    +0.000 C 
ATOM     11  O   UNL     1      47.950   1.063   6.461  0.00  0.00    +0.000 OA
ATOM     12  H   UNL     1      48.334   2.712   4.683  0.00  0.00    +0.000 HD
ATOM     13  H   UNL     1      47.465   4.012   5.420  0.00  0.00    +0.000 HD
ENDBRANCH   1  10
BRANCH   5  14
ATOM     14  C   UNL     1      43.940   4.858  11.452  0.00  0.00    +0.000 C 
ATOM     15  C   UNL     1      42.641   5.074  12.225  0.00  0.00    +0.000 C 
ATOM     16  C   UNL     1      43.055   6.064  11.192  0.00  0.00    +0.000 C 
BRANCH  14  17
ATOM     17  C   UNL     1      45.247   5.102  12.201  0.00  0.00    +0.000 A 
ATOM     18  C   UNL     1      45.716   4.203  13.168  0.00  0.00    +0.000 A 
ATOM     19  C   UNL     1      46.938   4.431  13.780  0.00  0.00    +0.000 A 
ATOM     20  N   UNL     1      47.728   5.490  13.509  0.00  0.00    +0.000 NA
ATOM     21  C   UNL     1      47.264   6.365  12.595  0.00  0.00    +0.000 A 
ATOM     22  C   UNL     1      46.051   6.222  11.938  0.00  0.00    +0.000 A 
ENDBRANCH  14  17
ENDBRANCH   5  14
TORSDOF 3
ENDMDL
MODEL 2
REMARK VINA RESULT:    -6.155      3.002      6.183
REMARK INTER + INTRA:          -7.786
REMARK INTER:                  -7.445
REMARK INTRA:                  -0.341
REMARK UNBOUND:                -0.551
REMARK  Name = 
REMARK  3 active torsions:
REMARK  status: ('A' for Active; 'I' for Inactive)
REMARK    1  A    between atoms: C_2  and  C_4
REMARK    2  A    between atoms: N_8  and  C_9
REMARK    3  A    between atoms: C_9  and  C_10
REMARK                            x       y       z     vdW  Elec       q    Type
REMARK                         _______ _______ _______ _____ _____    ______ ____
ROOT
ATOM      1  C   UNL     1      48.459   6.649  13.662  0.00  0.00    +0.000 A 
ATOM      2  C   UNL     1      47.507   5.712  14.054  0.00  0.00    +0.000 A 
ATOM      3  C   UNL     1      46.409   5.460  13.224  0.00  0.00    +0.000 A 
ATOM      4  C   UNL     1      46.278   6.153  12.026  0.00  0.00    +0.000 A 
ATOM      5  N   UNL     1      45.172   6.035  11.181  0.00  0.00    +0.000 N 
ATOM      6  N   UNL     1      47.189   7.074  11.645  0.00  0.00    +0.000 NA
ATOM      7  C   UNL     1      48.251   7.307  12.461  0.00  0.00    +0.000 A 
ATOM      8  H   UNL     1      45.380   6.611  10.368  0.00  0.00    +0.000 HD
ENDROOT
BRANCH   1  10
ATOM      9  N   UNL     1      50.566   7.835  13.909  0.00  0.00    +0.000 N 
ATOM     10  C   UNL     1      49.642   6.996  14.476  0.00  0.00    +0.000 C 
ATOM     11  O   UNL     1      49.782   6.583  15.617  0.00  0.00    +0.000 OA
ATOM     12  H   UNL     1      51.322   8.141  14.509  0.00  0.00    +0.000 HD
ATOM     13  H   UNL     1      50.373   8.388  13.086  0.00  0.00    +0.000 HD
ENDBRANCH   1  10
BRANCH   5  14
ATOM     14  C   UNL     1      44.409   4.802  10.937  0.00  0.00    +0.000 C 
ATOM     15  C   UNL     1      42.894   4.962  11.040  0.00  0.00    +0.000 C 
ATOM     16  C   UNL     1      43.610   4.093  12.016  0.00  0.00    +0.000 C 
BRANCH  14  17
ATOM     17  C   UNL     1      44.944   3.946   9.791  0.00  0.00    +0.000 A 
ATOM     18  C   UNL     1      45.564   4.522   8.675  0.00  0.00    +0.000 A 
ATOM     19  C   UNL     1      46.091   3.706   7.686  0.00  0.00    +0.000 A 
ATOM     20  N   UNL     1      46.044   2.359   7.721  0.00  0.00    +0.000 NA
ATOM     21  C   UNL     1      45.428   1.808   8.786  0.00  0.00    +0.000 A 
ATOM     22  C   UNL     1      44.866   2.545   9.818  0.00  0.00    +0.000 A 
ENDBRANCH  14  17
ENDBRANCH   5  14
TORSDOF 3
ENDMDL
MODEL 3
REMARK VINA RESULT:    -5.915      3.176      6.303
REMARK INTER + INTRA:          -7.503
REMARK INTER:                  -7.837
REMARK INTRA:                   0.334
REMARK UNBOUND:                -0.551
REMARK  Name = 
REMARK  3 active torsions:
REMARK  status: ('A' for Active; 'I' for Inactive)
REMARK    1  A    between atoms: C_2  and  C_4
REMARK    2  A    between atoms: N_8  and  C_9
REMARK    3  A    between atoms: C_9  and  C_10
REMARK                            x       y       z     vdW  Elec       q    Type
REMARK                         _______ _______ _______ _____ _____    ______ ____
ROOT
ATOM      1  C   UNL     1      47.912   5.747  14.849  0.00  0.00    +0.000 A 
ATOM      2  C   UNL     1      47.518   6.105  13.562  0.00  0.00    +0.000 A 
ATOM      3  C   UNL     1      46.729   5.223  12.816  0.00  0.00    +0.000 A 
ATOM      4  C   UNL     1      46.357   4.000  13.363  0.00  0.00    +0.000 A 
ATOM      5  N   UNL     1      45.651   3.022  12.659  0.00  0.00    +0.000 N 
ATOM      6  N   UNL     1      46.747   3.638  14.604  0.00  0.00    +0.000 NA
ATOM      7  C   UNL     1      47.513   4.507  15.317  0.00  0.00    +0.000 A 
ATOM      8  H   UNL     1      45.478   2.271  13.325  0.00  0.00    +0.000 HD
ENDROOT
BRANCH   1  10
ATOM      9  N   UNL     1      48.276   7.845  16.021  0.00  0.00    +0.000 N 
ATOM     10  C   UNL     1      48.758   6.600  15.707  0.00  0.00    +0.000 C 
ATOM     11  O   UNL     1      49.828   6.210  16.149  0.00  0.00    +0.000 OA
ATOM     12  H   UNL     1      48.819   8.383  16.686  0.00  0.00    +0.000 HD
ATOM     13  H   UNL     1      47.309   8.107  15.890  0.00  0.00    +0.000 HD
ENDBRANCH   1  10
BRANCH   5  14
ATOM     14  C   UNL     1      44.598   3.274  11.664  0.00  0.00    +0.000 C 
ATOM     15  C   UNL     1      43.472   4.185  12.148  0.00  0.00    +0.000 C 
ATOM     16  C   UNL     1      43.176   2.764  11.813  0.00  0.00    +0.000 C 
BRANCH  14  17
ATOM     17  C   UNL     1      45.113   3.495  10.244  0.00  0.00    +0.000 A 
ATOM     18  C   UNL     1      45.235   2.434   9.336  0.00  0.00    +0.000 A 
ATOM     19  C   UNL     1      45.648   2.688   8.038  0.00  0.00    +0.000 A 
ATOM     20  N   UNL     1      45.954   3.916   7.573  0.00  0.00    +0.000 NA
ATOM     21  C   UNL     1      45.857   4.932   8.455  0.00  0.00    +0.000 A 
ATOM     22  C   UNL     1      45.460   4.771   9.774  0.00  0.00    +0.000 A 
ENDBRANCH  14  17
ENDBRANCH   5  14
TORSDOF 3
ENDMDL
MODEL 4
REMARK VINA RESULT:    -5.425      1.740      2.529
REMARK INTER + INTRA:          -6.928
REMARK INTER:                  -7.242
REMARK INTRA:                   0.314
REMARK UNBOUND:                -0.551
REMARK  Name = 
REMARK  3 active torsions:
REMARK  status: ('A' for Active; 'I' for Inactive)
REMARK    1  A    between atoms: C_2  and  C_4
REMARK    2  A    between atoms: N_8  and  C_9
REMARK    3  A    between atoms: C_9  and  C_10
REMARK                            x       y       z     vdW  Elec       q    Type
REMARK                         _______ _______ _______ _____ _____    ______ ____
ROOT
ATOM      1  C   UNL     1      46.330   3.293   7.412  0.00  0.00    +0.000 A 
ATOM      2  C   UNL     1      46.428   4.501   8.096  0.00  0.00    +0.000 A 
ATOM      3  C   UNL     1      45.584   4.744   9.185  0.00  0.00    +0.000 A 
ATOM      4  C   UNL     1      44.654   3.783   9.563  0.00  0.00    +0.000 A 
ATOM      5  N   UNL     1      43.711   3.976  10.575  0.00  0.00    +0.000 N 
ATOM      6  N   UNL     1      44.541   2.614   8.896  0.00  0.00    +0.000 NA
ATOM      7  C   UNL     1      45.369   2.392   7.841  0.00  0.00    +0.000 A 
ATOM      8  H   UNL     1      43.211   3.093  10.662  0.00  0.00    +0.000 HD
ENDROOT
BRANCH   1  10
ATOM      9  N   UNL     1      48.457   2.568   6.485  0.00  0.00    +0.000 N 
ATOM     10  C   UNL     1      47.163   2.951   6.241  0.00  0.00    +0.000 C 
ATOM     11  O   UNL     1      46.717   2.974   5.104  0.00  0.00    +0.000 OA
ATOM     12  H   UNL     1      48.988   2.245   5.686  0.00  0.00    +0.000 HD
ATOM     13  H   UNL     1      48.785   2.298   7.402  0.00  0.00    +0.000 HD
ENDBRANCH   1  10
BRANCH   5  14
ATOM     14  C   UNL     1      43.930   4.732  11.817  0.00  0.00    +0.000 C 
ATOM     15  C   UNL     1      44.825   4.033  12.838  0.00  0.00    +0.000 C 
ATOM     16  C   UNL     1      43.394   4.286  13.166  0.00  0.00    +0.000 C 
BRANCH  14  17
ATOM     17  C   UNL     1      44.142   6.230  11.614  0.00  0.00    +0.000 A 
ATOM     18  C   UNL     1      43.149   7.040  11.048  0.00  0.00    +0.000 A 
ATOM     19  C   UNL     1      43.358   8.405  10.937  0.00  0.00    +0.000 A 
ATOM     20  N   UNL     1      44.484   9.028  11.342  0.00  0.00    +0.000 NA
ATOM     21  C   UNL     1      45.447   8.243  11.866  0.00  0.00    +0.000 A 
ATOM     22  C   UNL     1      45.328   6.869  12.009  0.00  0.00    +0.000 A 
ENDBRANCH  14  17
ENDBRANCH   5  14
TORSDOF 3
ENDMDL
MODEL 5
REMARK VINA RESULT:    -5.419      3.562      6.350
REMARK INTER + INTRA:          -6.921
REMARK INTER:                  -7.024
REMARK INTRA:                   0.104
REMARK UNBOUND:                -0.551
REMARK  Name = 
REMARK  3 active torsions:
REMARK  status: ('A' for Active; 'I' for Inactive)
REMARK    1  A    between atoms: C_2  and  C_4
REMARK    2  A    between atoms: N_8  and  C_9
REMARK    3  A    between atoms: C_9  and  C_10
REMARK                            x       y       z     vdW  Elec       q    Type
REMARK                         _______ _______ _______ _____ _____    ______ ____
ROOT
ATOM      1  C   UNL     1      45.780   8.937  12.140  0.00  0.00    +0.000 A 
ATOM      2  C   UNL     1      46.239   7.778  12.761  0.00  0.00    +0.000 A 
ATOM      3  C   UNL     1      45.603   6.560  12.497  0.00  0.00    +0.000 A 
ATOM      4  C   UNL     1      44.519   6.524  11.627  0.00  0.00    +0.000 A 
ATOM      5  N   UNL     1      43.767   5.373  11.376  0.00  0.00    +0.000 N 
ATOM      6  N   UNL     1      44.058   7.645  11.031  0.00  0.00    +0.000 NA
ATOM      7  C   UNL     1      44.687   8.820  11.298  0.00  0.00    +0.000 A 
ATOM      8  H   UNL     1      43.086   5.635  10.667  0.00  0.00    +0.000 HD
ENDROOT
BRANCH   1  10
ATOM      9  N   UNL     1      45.566  11.358  12.154  0.00  0.00    +0.000 N 
ATOM     10  C   UNL     1      46.373  10.270  12.368  0.00  0.00    +0.000 C 
ATOM     11  O   UNL     1      47.522  10.406  12.760  0.00  0.00    +0.000 OA
ATOM     12  H   UNL     1      45.952  12.260  12.404  0.00  0.00    +0.000 HD
ATOM     13  H   UNL     1      44.561  11.288  12.074  0.00  0.00    +0.000 HD
ENDBRANCH   1  10
BRANCH   5  14
ATOM     14  C   UNL     1      44.297   4.003  11.305  0.00  0.00    +0.000 C 
ATOM     15  C   UNL     1      43.423   2.948  11.979  0.00  0.00    +0.000 C 
ATOM     16  C   UNL     1      44.780   3.236  12.523  0.00  0.00    +0.000 C 
BRANCH  14  17
ATOM     17  C   UNL     1      44.920   3.637   9.960  0.00  0.00    +0.000 A 
ATOM     18  C   UNL     1      45.413   4.618   9.090  0.00  0.00    +0.000 A 
ATOM     19  C   UNL     1      46.027   4.239   7.907  0.00  0.00    +0.000 A 
ATOM     20  N   UNL     1      46.183   2.957   7.518  0.00  0.00    +0.000 NA
ATOM     21  C   UNL     1      45.688   2.016   8.347  0.00  0.00    +0.000 A 
ATOM     22  C   UNL     1      45.052   2.302   9.546  0.00  0.00    +0.000 A 
ENDBRANCH  14  17
ENDBRANCH   5  14
TORSDOF 3
ENDMDL
MODEL 6
REMARK VINA RESULT:    -5.361      4.436      7.682
REMARK INTER + INTRA:          -6.852
REMARK INTER:                  -7.104
REMARK INTRA:                   0.252
REMARK UNBOUND:                -0.551
REMARK  Name = 
REMARK  3 active torsions:
REMARK  status: ('A' for Active; 'I' for Inactive)
REMARK    1  A    between atoms: C_2  and  C_4
REMARK    2  A    between atoms: N_8  and  C_9
REMARK    3  A    between atoms: C_9  and  C_10
REMARK                            x       y       z     vdW  Elec       q    Type
REMARK                         _______ _______ _______ _____ _____    ______ ____
ROOT
ATOM      1  C   UNL     1      48.323   4.465  17.508  0.00  0.00    +0.000 A 
ATOM      2  C   UNL     1      48.408   5.704  16.878  0.00  0.00    +0.000 A 
ATOM      3  C   UNL     1      47.987   5.828  15.550  0.00  0.00    +0.000 A 
ATOM      4  C   UNL     1      47.498   4.716  14.875  0.00  0.00    +0.000 A 
ATOM      5  N   UNL     1      47.142   4.726  13.524  0.00  0.00    +0.000 N 
ATOM      6  N   UNL     1      47.425   3.507  15.474  0.00  0.00    +0.000 NA
ATOM      7  C   UNL     1      47.837   3.402  16.765  0.00  0.00    +0.000 A 
ATOM      8  H   UNL     1      46.773   3.798  13.327  0.00  0.00    +0.000 HD
ENDROOT
BRANCH   1  10
ATOM      9  N   UNL     1      48.361   3.056  19.489  0.00  0.00    +0.000 N 
ATOM     10  C   UNL     1      48.758   4.228  18.900  0.00  0.00    +0.000 C 
ATOM     11  O   UNL     1      49.468   5.024  19.497  0.00  0.00    +0.000 OA
ATOM     12  H   UNL     1      48.743   2.862  20.406  0.00  0.00    +0.000 HD
ATOM     13  H   UNL     1      47.994   2.275  18.963  0.00  0.00    +0.000 HD
ENDBRANCH   1  10
BRANCH   5  14
ATOM     14  C   UNL     1      46.514   5.849  12.812  0.00  0.00    +0.000 C 
ATOM     15  C   UNL     1      47.474   6.677  11.960  0.00  0.00    +0.000 C 
ATOM     16  C   UNL     1      46.806   7.304  13.136  0.00  0.00    +0.000 C 
BRANCH  14  17
ATOM     17  C   UNL     1      45.147   5.530  12.213  0.00  0.00    +0.000 A 
ATOM     18  C   UNL     1      45.018   5.017  10.916  0.00  0.00    +0.000 A 
ATOM     19  C   UNL     1      43.762   4.683  10.433  0.00  0.00    +0.000 A 
ATOM     20  N   UNL     1      42.623   4.826  11.140  0.00  0.00    +0.000 NA
ATOM     21  C   UNL     1      42.748   5.341  12.380  0.00  0.00    +0.000 A 
ATOM     22  C   UNL     1      43.961   5.709  12.942  0.00  0.00    +0.000 A 
ENDBRANCH  14  17
ENDBRANCH   5  14
TORSDOF 3
ENDMDL
