MODEL 1
REMARK VINA RESULT:    -8.288      0.000      0.000
REMARK INTER + INTRA:         -13.737
REMARK INTER:                 -12.406
REMARK INTRA:                  -1.330
REMARK UNBOUND:                -1.330
REMARK  Name = 
REMARK  9 active torsions:
REMARK  status: ('A' for Active; 'I' for Inactive)
REMARK    1  A    between atoms: C_2  and  C_3
REMARK    2  A    between atoms: C_3  and  N_4
REMARK    3  A    between atoms: C_5  and  C_7
REMARK    4  A    between atoms: N_17  and  C_18
REMARK    5  A    between atoms: C_18  and  C_19
REMARK    6  A    between atoms: C_22  and  C_23
REMARK    7  A    between atoms: C_23  and  N_24
REMARK    8  A    between atoms: C_25  and  C_27
REMARK    9  A    between atoms: C_27  and  O_28
REMARK                            x       y       z     vdW  Elec       q    Type
REMARK                         _______ _______ _______ _____ _____    ______ ____
ROOT
ATOM      1  O   UNL     1      46.778   4.915  17.622  0.00  0.00    +0.000 OA
ATOM      2  C   UNL     1      47.366   4.047  16.987  0.00  0.00    +0.000 C 
ATOM      3  N   UNL     1      47.801   4.210  15.692  0.00  0.00    +0.000 N 
ATOM      4  H   UNL     1      48.441   3.523  15.304  0.00  0.00    +0.000 HD
ENDROOT
BRANCH   2   5
ATOM      5  C   UNL     1      47.732   2.691  17.609  0.00  0.00    +0.000 C 
BRANCH   5   6
ATOM      6  N   UNL     1      49.141   2.614  17.930  0.00  0.00    +0.000 N 
ATOM      7  C   UNL     1      50.050   2.082  17.054  0.00  0.00    +0.000 C 
ATOM      8  O   UNL     1      49.707   1.685  15.942  0.00  0.00    +0.000 OA
ATOM      9  H   UNL     1      49.424   2.877  18.869  0.00  0.00    +0.000 HD
BRANCH   7  10
ATOM     10  C   UNL     1      51.454   2.070  17.479  0.00  0.00    +0.000 A 
ATOM     11  C   UNL     1      52.102   0.859  17.669  0.00  0.00    +0.000 A 
ATOM     12  S   UNL     1      53.733   1.015  18.138  0.00  0.00    +0.000 S 
ATOM     13  C   UNL     1      53.622   2.712  18.153  0.00  0.00    +0.000 A 
ATOM     14  N   UNL     1      54.689   3.478  18.510  0.00  0.00    +0.000 NA
ATOM     15  C   UNL     1      54.457   4.747  18.513  0.00  0.00    +0.000 A 
ATOM     16  N   UNL     1      53.257   5.322  18.183  0.00  0.00    +0.000 N 
ATOM     17  C   UNL     1      52.169   4.593  17.764  0.00  0.00    +0.000 A 
ATOM     18  O   UNL     1      51.137   5.139  17.396  0.00  0.00    +0.000 OA
ATOM     19  C   UNL     1      52.365   3.153  17.777  0.00  0.00    +0.000 A 
ATOM     20  H   UNL     1      53.149   6.325  18.186  0.00  0.00    +0.000 HD
ENDBRANCH   7  10
ENDBRANCH   5   6
ENDBRANCH   2   5
BRANCH   3  21
ATOM     21  C   UNL     1      47.544   5.413  14.922  0.00  0.00    +0.000 C 
BRANCH  21  22
ATOM     22  C   UNL     1      46.527   5.159  13.831  0.00  0.00    +0.000 A 
ATOM     23  C   UNL     1      46.225   3.847  13.442  0.00  0.00    +0.000 A 
ATOM     24  C   UNL     1      45.319   3.594  12.406  0.00  0.00    +0.000 A 
ATOM     25  C   UNL     1      44.692   4.650  11.731  0.00  0.00    +0.000 A 
ATOM     26  C   UNL     1      44.949   5.961  12.159  0.00  0.00    +0.000 A 
ATOM     27  C   UNL     1      45.860   6.214  13.194  0.00  0.00    +0.000 A 
BRANCH  25  28
ATOM     28  C   UNL     1      43.768   4.377  10.569  0.00  0.00    +0.000 C 
BRANCH  28  29
ATOM     29  N   UNL     1      44.403   3.584   9.548  0.00  0.00    +0.000 N 
ATOM     30  C   UNL     1      45.389   4.081   8.715  0.00  0.00    +0.000 C 
ATOM     31  O   UNL     1      45.809   5.231   8.765  0.00  0.00    +0.000 OA
ATOM     32  H   UNL     1      44.152   2.606   9.441  0.00  0.00    +0.000 HD
BRANCH  30  33
ATOM     33  C   UNL     1      45.913   3.006   7.739  0.00  0.00    +0.000 C 
ATOM     34  C   UNL     1      47.303   3.248   7.153  0.00  0.00    +0.000 C 
ATOM     35  C   UNL     1      47.709   1.870   6.622  0.00  0.00    +0.000 C 
ATOM     36  C   UNL     1      46.957   0.851   7.480  0.00  0.00    +0.000 C 
ATOM     37  C   UNL     1      46.109   1.668   8.453  0.00  0.00    +0.000 C 
BRANCH  33  38
ATOM     38  O   UNL     1      44.971   2.825   6.673  0.00  0.00    +0.000 OA
ATOM     39  H   UNL     1      44.089   2.982   7.056  0.00  0.00    +0.000 HD
ENDBRANCH  33  38
ENDBRANCH  30  33
ENDBRANCH  28  29
ENDBRANCH  25  28
ENDBRANCH  21  22
ENDBRANCH   3  21
TORSDOF 9
ENDMDL
MODEL 2
REMARK VINA RESULT:    -7.698      2.224      3.275
REMARK INTER + INTRA:         -12.854
REMARK INTER:                 -11.918
REMARK INTRA:                  -0.936
REMARK UNBOUND:                -1.330
REMARK  Name = 
REMARK  9 active torsions:
REMARK  status: ('A' for Active; 'I' for Inactive)
REMARK    1  A    between atoms: C_2  and  C_3
REMARK    2  A    between atoms: C_3  and  N_4
REMARK    3  A    between atoms: C_5  and  C_7
REMARK    4  A    between atoms: N_17  and  C_18
REMARK    5  A    between atoms: C_18  and  C_19
REMARK    6  A    between atoms: C_22  and  C_23
REMARK    7  A    between atoms: C_23  and  N_24
REMARK    8  A    between atoms: C_25  and  C_27
REMARK    9  A    between atoms: C_27  and  O_28
REMARK                            x       y       z     vdW  Elec       q    Type
REMARK                         _______ _______ _______ _____ _____    ______ ____
ROOT
ATOM      1  O   UNL     1      49.920   8.182  14.929  0.00  0.00    +0.000 OA
ATOM      2  C   UNL     1      48.888   8.257  15.588  0.00  0.00    +0.000 C 
ATOM      3  N   UNL     1      47.672   8.630  15.063  0.00  0.00    +0.000 N 
ATOM      4  H   UNL     1      46.837   8.485  15.623  0.00  0.00    +0.000 HD
ENDROOT
BRANCH   2   5
ATOM      5  C   UNL     1      48.844   7.880  17.076  0.00  0.00    +0.000 C 
BRANCH   5   6
ATOM      6  N   UNL     1      49.891   6.942  17.420  0.00  0.00    +0.000 N 
ATOM      7  C   UNL     1      49.624   5.784  18.100  0.00  0.00    +0.000 C 
ATOM      8  O   UNL     1      48.475   5.478  18.412  0.00  0.00    +0.000 OA
ATOM      9  H   UNL     1      50.850   7.216  17.226  0.00  0.00    +0.000 HD
BRANCH   7  10
ATOM     10  C   UNL     1      50.762   4.899  18.380  0.00  0.00    +0.000 A 
ATOM     11  C   UNL     1      51.826   5.370  19.133  0.00  0.00    +0.000 A 
ATOM     12  S   UNL     1      53.054   4.217  19.389  0.00  0.00    +0.000 S 
ATOM     13  C   UNL     1      52.231   3.056  18.457  0.00  0.00    +0.000 A 
ATOM     14  N   UNL     1      52.768   1.823  18.245  0.00  0.00    +0.000 NA
ATOM     15  C   UNL     1      52.057   1.054  17.492  0.00  0.00    +0.000 A 
ATOM     16  N   UNL     1      50.852   1.401  16.939  0.00  0.00    +0.000 N 
ATOM     17  C   UNL     1      50.245   2.614  17.169  0.00  0.00    +0.000 A 
ATOM     18  O   UNL     1      49.130   2.865  16.729  0.00  0.00    +0.000 OA
ATOM     19  C   UNL     1      51.022   3.533  17.983  0.00  0.00    +0.000 A 
ATOM     20  H   UNL     1      50.336   0.743  16.375  0.00  0.00    +0.000 HD
ENDBRANCH   7  10
ENDBRANCH   5   6
ENDBRANCH   2   5
BRANCH   3  21
ATOM     21  C   UNL     1      47.504   9.037  13.681  0.00  0.00    +0.000 C 
BRANCH  21  22
ATOM     22  C   UNL     1      46.580   8.096  12.940  0.00  0.00    +0.000 A 
ATOM     23  C   UNL     1      45.537   8.606  12.156  0.00  0.00    +0.000 A 
ATOM     24  C   UNL     1      44.646   7.750  11.498  0.00  0.00    +0.000 A 
ATOM     25  C   UNL     1      44.778   6.359  11.609  0.00  0.00    +0.000 A 
ATOM     26  C   UNL     1      45.857   5.849  12.344  0.00  0.00    +0.000 A 
ATOM     27  C   UNL     1      46.746   6.706  13.007  0.00  0.00    +0.000 A 
BRANCH  25  28
ATOM     28  C   UNL     1      43.776   5.440  10.953  0.00  0.00    +0.000 C 
BRANCH  28  29
ATOM     29  N   UNL     1      44.305   4.825   9.763  0.00  0.00    +0.000 N 
ATOM     30  C   UNL     1      44.851   3.555   9.753  0.00  0.00    +0.000 C 
ATOM     31  O   UNL     1      44.938   2.840  10.744  0.00  0.00    +0.000 OA
ATOM     32  H   UNL     1      44.256   5.318   8.877  0.00  0.00    +0.000 HD
BRANCH  30  33
ATOM     33  C   UNL     1      45.310   3.137   8.339  0.00  0.00    +0.000 C 
ATOM     34  C   UNL     1      46.355   4.033   7.678  0.00  0.00    +0.000 C 
ATOM     35  C   UNL     1      46.913   3.157   6.552  0.00  0.00    +0.000 C 
ATOM     36  C   UNL     1      46.729   1.710   7.016  0.00  0.00    +0.000 C 
ATOM     37  C   UNL     1      46.035   1.791   8.375  0.00  0.00    +0.000 C 
BRANCH  33  38
ATOM     38  O   UNL     1      44.168   3.021   7.478  0.00  0.00    +0.000 OA
ATOM     39  H   UNL     1      43.711   3.881   7.511  0.00  0.00    +0.000 HD
ENDBRANCH  33  38
ENDBRANCH  30  33
ENDBRANCH  28  29
ENDBRANCH  25  28
ENDBRANCH  21  22
ENDBRANCH   3  21
TORSDOF 9
ENDMDL
MODEL 3
REMARK VINA RESULT:    -7.689      3.118      4.481
REMARK INTER + INTRA:         -12.840
REMARK INTER:                 -11.285
REMARK INTRA:                  -1.554
REMARK UNBOUND:                -1.330
REMARK  Name = 
REMARK  9 active torsions:
REMARK  status: ('A' for Active; 'I' for Inactive)
REMARK    1  A    between atoms: C_2  and  C_3
REMARK    2  A    between atoms: C_3  and  N_4
REMARK    3  A    between atoms: C_5  and  C_7
REMARK    4  A    between atoms: N_17  and  C_18
REMARK    5  A    between atoms: C_18  and  C_19
REMARK    6  A    between atoms: C_22  and  C_23
REMARK    7  A    between atoms: C_23  and  N_24
REMARK    8  A    between atoms: C_25  and  C_27
REMARK    9  A    between atoms: C_27  and  O_28
REMARK                            x       y       z     vdW  Elec       q    Type
REMARK                         _______ _______ _______ _____ _____    ______ ____
ROOT
ATOM      1  O   UNL     1      49.102  10.799  15.501  0.00  0.00    +0.000 OA
ATOM      2  C   UNL     1      48.286   9.991  15.934  0.00  0.00    +0.000 C 
ATOM      3  N   UNL     1      47.661   9.045  15.154  0.00  0.00    +0.000 N 
ATOM      4  H   UNL     1      47.150   8.298  15.615  0.00  0.00    +0.000 HD
ENDROOT
BRANCH   2   5
ATOM      5  C   UNL     1      47.924   9.921  17.425  0.00  0.00    +0.000 C 
BRANCH   5   6
ATOM      6  N   UNL     1      47.908   8.556  17.906  0.00  0.00    +0.000 N 
ATOM      7  C   UNL     1      48.959   8.030  18.609  0.00  0.00    +0.000 C 
ATOM      8  O   UNL     1      49.941   8.712  18.895  0.00  0.00    +0.000 OA
ATOM      9  H   UNL     1      47.133   7.965  17.619  0.00  0.00    +0.000 HD
BRANCH   7  10
ATOM     10  C   UNL     1      48.826   6.639  19.062  0.00  0.00    +0.000 A 
ATOM     11  C   UNL     1      48.968   6.341  20.408  0.00  0.00    +0.000 A 
ATOM     12  S   UNL     1      48.762   4.690  20.774  0.00  0.00    +0.000 S 
ATOM     13  C   UNL     1      48.525   4.301  19.136  0.00  0.00    +0.000 A 
ATOM     14  N   UNL     1      48.321   3.013  18.746  0.00  0.00    +0.000 NA
ATOM     15  C   UNL     1      48.192   2.855  17.473  0.00  0.00    +0.000 A 
ATOM     16  N   UNL     1      48.237   3.869  16.552  0.00  0.00    +0.000 N 
ATOM     17  C   UNL     1      48.385   5.191  16.902  0.00  0.00    +0.000 A 
ATOM     18  O   UNL     1      48.339   6.083  16.065  0.00  0.00    +0.000 OA
ATOM     19  C   UNL     1      48.572   5.421  18.324  0.00  0.00    +0.000 A 
ATOM     20  H   UNL     1      48.107   3.679  15.570  0.00  0.00    +0.000 HD
ENDBRANCH   7  10
ENDBRANCH   5   6
ENDBRANCH   2   5
BRANCH   3  21
ATOM     21  C   UNL     1      47.857   8.954  13.720  0.00  0.00    +0.000 C 
BRANCH  21  22
ATOM     22  C   UNL     1      46.792   8.094  13.075  0.00  0.00    +0.000 A 
ATOM     23  C   UNL     1      46.890   6.697  13.125  0.00  0.00    +0.000 A 
ATOM     24  C   UNL     1      45.938   5.886  12.497  0.00  0.00    +0.000 A 
ATOM     25  C   UNL     1      44.862   6.454  11.802  0.00  0.00    +0.000 A 
ATOM     26  C   UNL     1      44.731   7.850  11.802  0.00  0.00    +0.000 A 
ATOM     27  C   UNL     1      45.688   8.662  12.427  0.00  0.00    +0.000 A 
BRANCH  25  28
ATOM     28  C   UNL     1      43.875   5.578  11.069  0.00  0.00    +0.000 C 
BRANCH  28  29
ATOM     29  N   UNL     1      44.472   4.924   9.933  0.00  0.00    +0.000 N 
ATOM     30  C   UNL     1      44.378   3.562   9.715  0.00  0.00    +0.000 C 
ATOM     31  O   UNL     1      43.786   2.790  10.460  0.00  0.00    +0.000 OA
ATOM     32  H   UNL     1      44.960   5.476   9.235  0.00  0.00    +0.000 HD
BRANCH  30  33
ATOM     33  C   UNL     1      45.081   3.139   8.407  0.00  0.00    +0.000 C 
ATOM     34  C   UNL     1      46.226   4.035   7.938  0.00  0.00    +0.000 C 
ATOM     35  C   UNL     1      46.977   3.155   6.934  0.00  0.00    +0.000 C 
ATOM     36  C   UNL     1      46.716   1.710   7.365  0.00  0.00    +0.000 C 
ATOM     37  C   UNL     1      45.791   1.796   8.578  0.00  0.00    +0.000 C 
BRANCH  33  38
ATOM     38  O   UNL     1      44.111   3.017   7.358  0.00  0.00    +0.000 OA
ATOM     39  H   UNL     1      44.490   2.402   6.704  0.00  0.00    +0.000 HD
ENDBRANCH  33  38
ENDBRANCH  30  33
ENDBRANCH  28  29
ENDBRANCH  25  28
ENDBRANCH  21  22
ENDBRANCH   3  21
TORSDOF 9
ENDMDL
MODEL 4
REMARK VINA RESULT:    -7.156      4.249      9.644
REMARK INTER + INTRA:         -12.042
REMARK INTER:                 -10.277
REMARK INTRA:                  -1.766
REMARK UNBOUND:                -1.330
REMARK  Name = 
REMARK  9 active torsions:
REMARK  status: ('A' for Active; 'I' for Inactive)
REMARK    1  A    between atoms: C_2  and  C_3
REMARK    2  A    between atoms: C_3  and  N_4
REMARK    3  A    between atoms: C_5  and  C_7
REMARK    4  A    between atoms: N_17  and  C_18
REMARK    5  A    between atoms: C_18  and  C_19
REMARK    6  A    between atoms: C_22  and  C_23
REMARK    7  A    between atoms: C_23  and  N_24
REMARK    8  A    between atoms: C_25  and  C_27
REMARK    9  A    between atoms: C_27  and  O_28
REMARK                            x       y       z     vdW  Elec       q    Type
REMARK                         _______ _______ _______ _____ _____    ______ ____
ROOT
ATOM      1  O   UNL     1      49.997   9.657  13.444  0.00  0.00    +0.000 OA
ATOM      2  C   UNL     1      48.898  10.202  13.473  0.00  0.00    +0.000 C 
ATOM      3  N   UNL     1      48.488  11.042  14.482  0.00  0.00    +0.000 N 
ATOM      4  H   UNL     1      47.649  11.598  14.340  0.00  0.00    +0.000 HD
ENDROOT
BRANCH   2   5
ATOM      5  C   UNL     1      47.880  10.039  12.334  0.00  0.00    +0.000 C 
BRANCH   5   6
ATOM      6  N   UNL     1      47.017   8.898  12.548  0.00  0.00    +0.000 N 
ATOM      7  C   UNL     1      47.339   7.654  12.075  0.00  0.00    +0.000 C 
ATOM      8  O   UNL     1      48.398   7.451  11.483  0.00  0.00    +0.000 OA
ATOM      9  H   UNL     1      46.112   9.067  12.978  0.00  0.00    +0.000 HD
BRANCH   7  10
ATOM     10  C   UNL     1      46.397   6.567  12.367  0.00  0.00    +0.000 A 
ATOM     11  C   UNL     1      46.850   5.417  12.995  0.00  0.00    +0.000 A 
ATOM     12  S   UNL     1      45.632   4.262  13.285  0.00  0.00    +0.000 S 
ATOM     13  C   UNL     1      44.457   5.236  12.534  0.00  0.00    +0.000 A 
ATOM     14  N   UNL     1      43.170   4.809  12.414  0.00  0.00    +0.000 NA
ATOM     15  C   UNL     1      42.391   5.630  11.794  0.00  0.00    +0.000 A 
ATOM     16  N   UNL     1      42.780   6.844  11.289  0.00  0.00    +0.000 N 
ATOM     17  C   UNL     1      44.054   7.341  11.435  0.00  0.00    +0.000 A 
ATOM     18  O   UNL     1      44.351   8.464  11.047  0.00  0.00    +0.000 OA
ATOM     19  C   UNL     1      44.982   6.439  12.096  0.00  0.00    +0.000 A 
ATOM     20  H   UNL     1      42.114   7.448  10.832  0.00  0.00    +0.000 HD
ENDBRANCH   7  10
ENDBRANCH   5   6
ENDBRANCH   2   5
BRANCH   3  21
ATOM     21  C   UNL     1      49.297  11.315  15.655  0.00  0.00    +0.000 C 
BRANCH  21  22
ATOM     22  C   UNL     1      49.008  10.326  16.763  0.00  0.00    +0.000 A 
ATOM     23  C   UNL     1      49.812   9.189  16.918  0.00  0.00    +0.000 A 
ATOM     24  C   UNL     1      49.534   8.242  17.911  0.00  0.00    +0.000 A 
ATOM     25  C   UNL     1      48.442   8.408  18.773  0.00  0.00    +0.000 A 
ATOM     26  C   UNL     1      47.673   9.575  18.656  0.00  0.00    +0.000 A 
ATOM     27  C   UNL     1      47.949  10.521  17.659  0.00  0.00    +0.000 A 
BRANCH  25  28
ATOM     28  C   UNL     1      48.106   7.352  19.797  0.00  0.00    +0.000 C 
BRANCH  28  29
ATOM     29  N   UNL     1      48.509   6.037  19.369  0.00  0.00    +0.000 N 
ATOM     30  C   UNL     1      47.646   5.150  18.752  0.00  0.00    +0.000 C 
ATOM     31  O   UNL     1      46.469   5.395  18.515  0.00  0.00    +0.000 OA
ATOM     32  H   UNL     1      49.473   5.742  19.489  0.00  0.00    +0.000 HD
BRANCH  30  33
ATOM     33  C   UNL     1      48.351   3.830  18.373  0.00  0.00    +0.000 C 
ATOM     34  C   UNL     1      47.868   3.151  17.093  0.00  0.00    +0.000 C 
ATOM     35  C   UNL     1      49.001   2.176  16.759  0.00  0.00    +0.000 C 
ATOM     36  C   UNL     1      50.270   2.785  17.359  0.00  0.00    +0.000 C 
ATOM     37  C   UNL     1      49.827   4.071  18.056  0.00  0.00    +0.000 C 
BRANCH  33  38
ATOM     38  O   UNL     1      48.260   2.906  19.466  0.00  0.00    +0.000 OA
ATOM     39  H   UNL     1      47.817   2.112  19.118  0.00  0.00    +0.000 HD
ENDBRANCH  33  38
ENDBRANCH  30  33
ENDBRANCH  28  29
ENDBRANCH  25  28
ENDBRANCH  21  22
ENDBRANCH   3  21
TORSDOF 9
ENDMDL
MODEL 5
REMARK VINA RESULT:    -7.099      3.956     10.685
REMARK INTER + INTRA:         -11.957
REMARK INTER:                 -10.890
REMARK INTRA:                  -1.067
REMARK UNBOUND:                -1.330
REMARK  Name = 
REMARK  9 active torsions:
REMARK  status: ('A' for Active; 'I' for Inactive)
REMARK    1  A    between atoms: C_2  and  C_3
REMARK    2  A    between atoms: C_3  and  N_4
REMARK    3  A    between atoms: C_5  and  C_7
REMARK    4  A    between atoms: N_17  and  C_18
REMARK    5  A    between atoms: C_18  and  C_19
REMARK    6  A    between atoms: C_22  and  C_23
REMARK    7  A    between atoms: C_23  and  N_24
REMARK    8  A    between atoms: C_25  and  C_27
REMARK    9  A    between atoms: C_27  and  O_28
REMARK                            x       y       z     vdW  Elec       q    Type
REMARK                         _______ _______ _______ _____ _____    ______ ____
ROOT
ATOM      1  O   UNL     1      49.170   6.914  18.121  0.00  0.00    +0.000 OA
ATOM      2  C   UNL     1      49.091   6.459  16.985  0.00  0.00    +0.000 C 
ATOM      3  N   UNL     1      48.984   5.117  16.705  0.00  0.00    +0.000 N 
ATOM      4  H   UNL     1      48.733   4.836  15.761  0.00  0.00    +0.000 HD
ENDROOT
BRANCH   2   5
ATOM      5  C   UNL     1      49.044   7.368  15.747  0.00  0.00    +0.000 C 
BRANCH   5   6
ATOM      6  N   UNL     1      47.877   7.101  14.933  0.00  0.00    +0.000 N 
ATOM      7  C   UNL     1      47.986   6.611  13.659  0.00  0.00    +0.000 C 
ATOM      8  O   UNL     1      49.082   6.341  13.171  0.00  0.00    +0.000 OA
ATOM      9  H   UNL     1      46.973   7.382  15.302  0.00  0.00    +0.000 HD
BRANCH   7  10
ATOM     10  C   UNL     1      46.735   6.363  12.933  0.00  0.00    +0.000 A 
ATOM     11  C   UNL     1      46.045   7.427  12.374  0.00  0.00    +0.000 A 
ATOM     12  S   UNL     1      44.627   6.972  11.545  0.00  0.00    +0.000 S 
ATOM     13  C   UNL     1      44.855   5.335  11.946  0.00  0.00    +0.000 A 
ATOM     14  N   UNL     1      43.955   4.390  11.559  0.00  0.00    +0.000 NA
ATOM     15  C   UNL     1      44.231   3.195  11.960  0.00  0.00    +0.000 A 
ATOM     16  N   UNL     1      45.331   2.856  12.705  0.00  0.00    +0.000 N 
ATOM     17  C   UNL     1      46.295   3.766  13.072  0.00  0.00    +0.000 A 
ATOM     18  O   UNL     1      47.307   3.420  13.667  0.00  0.00    +0.000 OA
ATOM     19  C   UNL     1      46.014   5.136  12.677  0.00  0.00    +0.000 A 
ATOM     20  H   UNL     1      45.499   1.897  12.969  0.00  0.00    +0.000 HD
ENDBRANCH   7  10
ENDBRANCH   5   6
ENDBRANCH   2   5
BRANCH   3  21
ATOM     21  C   UNL     1      49.022   4.094  17.733  0.00  0.00    +0.000 C 
BRANCH  21  22
ATOM     22  C   UNL     1      50.357   3.382  17.748  0.00  0.00    +0.000 A 
ATOM     23  C   UNL     1      50.450   2.052  17.316  0.00  0.00    +0.000 A 
ATOM     24  C   UNL     1      51.668   1.363  17.363  0.00  0.00    +0.000 A 
ATOM     25  C   UNL     1      52.825   1.990  17.845  0.00  0.00    +0.000 A 
ATOM     26  C   UNL     1      52.745   3.338  18.222  0.00  0.00    +0.000 A 
ATOM     27  C   UNL     1      51.524   4.026  18.179  0.00  0.00    +0.000 A 
BRANCH  25  28
ATOM     28  C   UNL     1      54.121   1.224  17.958  0.00  0.00    +0.000 C 
BRANCH  28  29
ATOM     29  N   UNL     1      54.003   0.089  18.836  0.00  0.00    +0.000 N 
ATOM     30  C   UNL     1      54.410  -1.183  18.479  0.00  0.00    +0.000 C 
ATOM     31  O   UNL     1      54.901  -1.463  17.392  0.00  0.00    +0.000 OA
ATOM     32  H   UNL     1      53.637   0.215  19.775  0.00  0.00    +0.000 HD
BRANCH  30  33
ATOM     33  C   UNL     1      54.196  -2.198  19.623  0.00  0.00    +0.000 C 
ATOM     34  C   UNL     1      52.835  -2.889  19.666  0.00  0.00    +0.000 C 
ATOM     35  C   UNL     1      53.078  -4.099  20.572  0.00  0.00    +0.000 C 
ATOM     36  C   UNL     1      54.564  -4.438  20.430  0.00  0.00    +0.000 C 
ATOM     37  C   UNL     1      55.142  -3.390  19.479  0.00  0.00    +0.000 C 
BRANCH  33  38
ATOM     38  O   UNL     1      54.448  -1.561  20.883  0.00  0.00    +0.000 OA
ATOM     39  H   UNL     1      54.842  -0.694  20.679  0.00  0.00    +0.000 HD
ENDBRANCH  33  38
ENDBRANCH  30  33
ENDBRANCH  28  29
ENDBRANCH  25  28
ENDBRANCH  21  22
ENDBRANCH   3  21
TORSDOF 9
ENDMDL
MODEL 6
REMARK VINA RESULT:    -7.016      2.622      3.859
REMARK INTER + INTRA:         -11.832
REMARK INTER:                 -10.829
REMARK INTRA:                  -1.003
REMARK UNBOUND:                -1.330
REMARK  Name = 
REMARK  9 active torsions:
REMARK  status: ('A' for Active; 'I' for Inactive)
REMARK    1  A    between atoms: C_2  and  C_3
REMARK    2  A    between atoms: C_3  and  N_4
REMARK    3  A    between atoms: C_5  and  C_7
REMARK    4  A    between atoms: N_17  and  C_18
REMARK    5  A    between atoms: C_18  and  C_19
REMARK    6  A    between atoms: C_22  and  C_23
REMARK    7  A    between atoms: C_23  and  N_24
REMARK    8  A    between atoms: C_25  and  C_27
REMARK    9  A    between atoms: C_27  and  O_28
REMARK                            x       y       z     vdW  Elec       q    Type
REMARK                         _______ _______ _______ _____ _____    ______ ____
ROOT
ATOM      1  O   UNL     1      49.113  10.055  14.330  0.00  0.00    +0.000 OA
ATOM      2  C   UNL     1      48.368   9.333  14.985  0.00  0.00    +0.000 C 
ATOM      3  N   UNL     1      47.157   8.870  14.524  0.00  0.00    +0.000 N 
ATOM      4  H   UNL     1      46.692   8.130  15.044  0.00  0.00    +0.000 HD
ENDROOT
BRANCH   2   5
ATOM      5  C   UNL     1      48.750   8.823  16.382  0.00  0.00    +0.000 C 
BRANCH   5   6
ATOM      6  N   UNL     1      48.759   7.377  16.437  0.00  0.00    +0.000 N 
ATOM      7  C   UNL     1      48.518   6.700  17.603  0.00  0.00    +0.000 C 
ATOM      8  O   UNL     1      48.244   7.298  18.642  0.00  0.00    +0.000 OA
ATOM      9  H   UNL     1      49.048   6.876  15.601  0.00  0.00    +0.000 HD
BRANCH   7  10
ATOM     10  C   UNL     1      48.535   5.234  17.537  0.00  0.00    +0.000 A 
ATOM     11  C   UNL     1      47.339   4.533  17.553  0.00  0.00    +0.000 A 
ATOM     12  S   UNL     1      47.527   2.843  17.446  0.00  0.00    +0.000 S 
ATOM     13  C   UNL     1      49.222   2.980  17.424  0.00  0.00    +0.000 A 
ATOM     14  N   UNL     1      50.011   1.872  17.372  0.00  0.00    +0.000 NA
ATOM     15  C   UNL     1      51.278   2.118  17.397  0.00  0.00    +0.000 A 
ATOM     16  N   UNL     1      51.829   3.371  17.459  0.00  0.00    +0.000 N 
ATOM     17  C   UNL     1      51.073   4.521  17.458  0.00  0.00    +0.000 A 
ATOM     18  O   UNL     1      51.595   5.629  17.431  0.00  0.00    +0.000 OA
ATOM     19  C   UNL     1      49.637   4.300  17.468  0.00  0.00    +0.000 A 
ATOM     20  H   UNL     1      52.830   3.495  17.455  0.00  0.00    +0.000 HD
ENDBRANCH   7  10
ENDBRANCH   5   6
ENDBRANCH   2   5
BRANCH   3  21
ATOM     21  C   UNL     1      46.609   9.247  13.235  0.00  0.00    +0.000 C 
BRANCH  21  22
ATOM     22  C   UNL     1      46.064   8.043  12.498  0.00  0.00    +0.000 A 
ATOM     23  C   UNL     1      46.910   6.975  12.174  0.00  0.00    +0.000 A 
ATOM     24  C   UNL     1      46.433   5.872  11.454  0.00  0.00    +0.000 A 
ATOM     25  C   UNL     1      45.096   5.813  11.041  0.00  0.00    +0.000 A 
ATOM     26  C   UNL     1      44.235   6.854  11.417  0.00  0.00    +0.000 A 
ATOM     27  C   UNL     1      44.714   7.960  12.133  0.00  0.00    +0.000 A 
BRANCH  25  28
ATOM     28  C   UNL     1      44.601   4.655  10.208  0.00  0.00    +0.000 C 
BRANCH  28  29
ATOM     29  N   UNL     1      45.453   4.403   9.074  0.00  0.00    +0.000 N 
ATOM     30  C   UNL     1      45.692   3.133   8.581  0.00  0.00    +0.000 C 
ATOM     31  O   UNL     1      45.208   2.114   9.058  0.00  0.00    +0.000 OA
ATOM     32  H   UNL     1      45.881   5.182   8.584  0.00  0.00    +0.000 HD
BRANCH  30  33
ATOM     33  C   UNL     1      46.614   3.161   7.343  0.00  0.00    +0.000 C 
ATOM     34  C   UNL     1      47.671   2.061   7.266  0.00  0.00    +0.000 C 
ATOM     35  C   UNL     1      48.095   2.079   5.794  0.00  0.00    +0.000 C 
ATOM     36  C   UNL     1      46.888   2.605   5.016  0.00  0.00    +0.000 C 
ATOM     37  C   UNL     1      45.818   2.914   6.062  0.00  0.00    +0.000 C 
BRANCH  33  38
ATOM     38  O   UNL     1      47.252   4.442   7.249  0.00  0.00    +0.000 OA
ATOM     39  H   UNL     1      46.680   4.993   6.685  0.00  0.00    +0.000 HD
ENDBRANCH  33  38
ENDBRANCH  30  33
ENDBRANCH  28  29
ENDBRANCH  25  28
ENDBRANCH  21  22
ENDBRANCH   3  21
TORSDOF 9
ENDMDL
MODEL 7
REMARK VINA RESULT:    -6.958      3.104      4.676
REMARK INTER + INTRA:         -11.746
REMARK INTER:                 -10.435
REMARK INTRA:                  -1.312
REMARK UNBOUND:                -1.330
REMARK  Name = 
REMARK  9 active torsions:
REMARK  status: ('A' for Active; 'I' for Inactive)
REMARK    1  A    between atoms: C_2  and  C_3
REMARK    2  A    between atoms: C_3  and  N_4
REMARK    3  A    between atoms: C_5  and  C_7
REMARK    4  A    between atoms: N_17  and  C_18
REMARK    5  A    between atoms: C_18  and  C_19
REMARK    6  A    between atoms: C_22  and  C_23
REMARK    7  A    between atoms: C_23  and  N_24
REMARK    8  A    between atoms: C_25  and  C_27
REMARK    9  A    between atoms: C_27  and  O_28
REMARK                            x       y       z     vdW  Elec       q    Type
REMARK                         _______ _______ _______ _____ _____    ______ ____
ROOT
ATOM      1  O   UNL     1      51.431  10.647  14.584  0.00  0.00    +0.000 OA
ATOM      2  C   UNL     1      51.588   9.431  14.633  0.00  0.00    +0.000 C 
ATOM      3  N   UNL     1      51.310   8.583  13.586  0.00  0.00    +0.000 N 
ATOM      4  H   UNL     1      51.644   7.624  13.637  0.00  0.00    +0.000 HD
ENDROOT
BRANCH   2   5
ATOM      5  C   UNL     1      52.177   8.737  15.870  0.00  0.00    +0.000 C 
BRANCH   5   6
ATOM      6  N   UNL     1      51.563   7.446  16.099  0.00  0.00    +0.000 N 
ATOM      7  C   UNL     1      51.942   6.645  17.143  0.00  0.00    +0.000 C 
ATOM      8  O   UNL     1      52.793   7.011  17.952  0.00  0.00    +0.000 OA
ATOM      9  H   UNL     1      50.908   7.107  15.400  0.00  0.00    +0.000 HD
BRANCH   7  10
ATOM     10  C   UNL     1      51.240   5.365  17.287  0.00  0.00    +0.000 A 
ATOM     11  C   UNL     1      51.969   4.200  17.471  0.00  0.00    +0.000 A 
ATOM     12  S   UNL     1      51.009   2.804  17.646  0.00  0.00    +0.000 S 
ATOM     13  C   UNL     1      49.578   3.697  17.433  0.00  0.00    +0.000 A 
ATOM     14  N   UNL     1      48.363   3.082  17.440  0.00  0.00    +0.000 NA
ATOM     15  C   UNL     1      47.364   3.871  17.232  0.00  0.00    +0.000 A 
ATOM     16  N   UNL     1      47.467   5.223  17.027  0.00  0.00    +0.000 N 
ATOM     17  C   UNL     1      48.666   5.896  17.065  0.00  0.00    +0.000 A 
ATOM     18  O   UNL     1      48.718   7.115  16.961  0.00  0.00    +0.000 OA
ATOM     19  C   UNL     1      49.829   5.047  17.260  0.00  0.00    +0.000 A 
ATOM     20  H   UNL     1      46.642   5.787  16.890  0.00  0.00    +0.000 HD
ENDBRANCH   7  10
ENDBRANCH   5   6
ENDBRANCH   2   5
BRANCH   3  21
ATOM     21  C   UNL     1      50.735   9.040  12.335  0.00  0.00    +0.000 C 
BRANCH  21  22
ATOM     22  C   UNL     1      49.278   8.647  12.226  0.00  0.00    +0.000 A 
ATOM     23  C   UNL     1      48.916   7.295  12.175  0.00  0.00    +0.000 A 
ATOM     24  C   UNL     1      47.577   6.913  12.031  0.00  0.00    +0.000 A 
ATOM     25  C   UNL     1      46.566   7.878  11.933  0.00  0.00    +0.000 A 
ATOM     26  C   UNL     1      46.922   9.230  12.043  0.00  0.00    +0.000 A 
ATOM     27  C   UNL     1      48.263   9.612  12.182  0.00  0.00    +0.000 A 
BRANCH  25  28
ATOM     28  C   UNL     1      45.131   7.465  11.709  0.00  0.00    +0.000 C 
BRANCH  28  29
ATOM     29  N   UNL     1      45.008   6.480  10.666  0.00  0.00    +0.000 N 
ATOM     30  C   UNL     1      44.908   5.125  10.919  0.00  0.00    +0.000 C 
ATOM     31  O   UNL     1      44.916   4.638  12.043  0.00  0.00    +0.000 OA
ATOM     32  H   UNL     1      44.960   6.778   9.696  0.00  0.00    +0.000 HD
BRANCH  30  33
ATOM     33  C   UNL     1      44.756   4.306   9.619  0.00  0.00    +0.000 C 
ATOM     34  C   UNL     1      45.844   4.506   8.566  0.00  0.00    +0.000 C 
ATOM     35  C   UNL     1      45.677   3.291   7.648  0.00  0.00    +0.000 C 
ATOM     36  C   UNL     1      45.072   2.187   8.519  0.00  0.00    +0.000 C 
ATOM     37  C   UNL     1      44.870   2.808   9.901  0.00  0.00    +0.000 C 
BRANCH  33  38
ATOM     38  O   UNL     1      43.473   4.567   9.034  0.00  0.00    +0.000 OA
ATOM     39  H   UNL     1      43.281   5.508   9.201  0.00  0.00    +0.000 HD
ENDBRANCH  33  38
ENDBRANCH  30  33
ENDBRANCH  28  29
ENDBRANCH  25  28
ENDBRANCH  21  22
ENDBRANCH   3  21
TORSDOF 9
ENDMDL
MODEL 8
REMARK VINA RESULT:    -6.841      4.950      6.415
REMARK INTER + INTRA:         -11.571
REMARK INTER:                  -9.919
REMARK INTRA:                  -1.651
REMARK UNBOUND:                -1.330
REMARK  Name = 
REMARK  9 active torsions:
REMARK  status: ('A' for Active; 'I' for Inactive)
REMARK    1  A    between atoms: C_2  and  C_3
REMARK    2  A    between atoms: C_3  and  N_4
REMARK    3  A    between atoms: C_5  and  C_7
REMARK    4  A    between atoms: N_17  and  C_18
REMARK    5  A    between atoms: C_18  and  C_19
REMARK    6  A    between atoms: C_22  and  C_23
REMARK    7  A    between atoms: C_23  and  N_24
REMARK    8  A    between atoms: C_25  and  C_27
REMARK    9  A    between atoms: C_27  and  O_28
REMARK                            x       y       z     vdW  Elec       q    Type
REMARK                         _______ _______ _______ _____ _____    ______ ____
ROOT
ATOM      1  O   UNL     1      44.753   6.268  11.523  0.00  0.00    +0.000 OA
ATOM      2  C   UNL     1      45.353   6.084  12.577  0.00  0.00    +0.000 C 
ATOM      3  N   UNL     1      46.035   7.072  13.249  0.00  0.00    +0.000 N 
ATOM      4  H   UNL     1      46.340   6.889  14.201  0.00  0.00    +0.000 HD
ENDROOT
BRANCH   2   5
ATOM      5  C   UNL     1      45.348   4.723  13.288  0.00  0.00    +0.000 C 
BRANCH   5   6
ATOM      6  N   UNL     1      46.023   4.788  14.567  0.00  0.00    +0.000 N 
ATOM      7  C   UNL     1      47.071   3.960  14.870  0.00  0.00    +0.000 C 
ATOM      8  O   UNL     1      47.505   3.155  14.049  0.00  0.00    +0.000 OA
ATOM      9  H   UNL     1      45.630   5.402  15.275  0.00  0.00    +0.000 HD
BRANCH   7  10
ATOM     10  C   UNL     1      47.689   4.126  16.191  0.00  0.00    +0.000 A 
ATOM     11  C   UNL     1      47.608   3.099  17.119  0.00  0.00    +0.000 A 
ATOM     12  S   UNL     1      48.395   3.436  18.593  0.00  0.00    +0.000 S 
ATOM     13  C   UNL     1      48.832   4.992  18.064  0.00  0.00    +0.000 A 
ATOM     14  N   UNL     1      49.516   5.840  18.880  0.00  0.00    +0.000 NA
ATOM     15  C   UNL     1      49.752   7.000  18.367  0.00  0.00    +0.000 A 
ATOM     16  N   UNL     1      49.375   7.388  17.107  0.00  0.00    +0.000 N 
ATOM     17  C   UNL     1      48.732   6.548  16.228  0.00  0.00    +0.000 A 
ATOM     18  O   UNL     1      48.481   6.895  15.080  0.00  0.00    +0.000 OA
ATOM     19  C   UNL     1      48.409   5.239  16.769  0.00  0.00    +0.000 A 
ATOM     20  H   UNL     1      49.610   8.305  16.759  0.00  0.00    +0.000 HD
ENDBRANCH   7  10
ENDBRANCH   5   6
ENDBRANCH   2   5
BRANCH   3  21
ATOM     21  C   UNL     1      46.169   8.423  12.738  0.00  0.00    +0.000 C 
BRANCH  21  22
ATOM     22  C   UNL     1      47.576   8.686  12.247  0.00  0.00    +0.000 A 
ATOM     23  C   UNL     1      48.389   7.620  11.838  0.00  0.00    +0.000 A 
ATOM     24  C   UNL     1      49.707   7.840  11.422  0.00  0.00    +0.000 A 
ATOM     25  C   UNL     1      50.245   9.134  11.404  0.00  0.00    +0.000 A 
ATOM     26  C   UNL     1      49.413  10.206  11.756  0.00  0.00    +0.000 A 
ATOM     27  C   UNL     1      48.094   9.985  12.178  0.00  0.00    +0.000 A 
BRANCH  25  28
ATOM     28  C   UNL     1      51.687   9.360  11.019  0.00  0.00    +0.000 C 
BRANCH  28  29
ATOM     29  N   UNL     1      52.223   8.258  10.262  0.00  0.00    +0.000 N 
ATOM     30  C   UNL     1      53.338   7.544  10.659  0.00  0.00    +0.000 C 
ATOM     31  O   UNL     1      53.971   7.779  11.681  0.00  0.00    +0.000 OA
ATOM     32  H   UNL     1      51.756   7.958   9.412  0.00  0.00    +0.000 HD
BRANCH  30  33
ATOM     33  C   UNL     1      53.669   6.399   9.677  0.00  0.00    +0.000 C 
ATOM     34  C   UNL     1      52.859   6.367   8.383  0.00  0.00    +0.000 C 
ATOM     35  C   UNL     1      53.684   5.455   7.470  0.00  0.00    +0.000 C 
ATOM     36  C   UNL     1      55.133   5.584   7.947  0.00  0.00    +0.000 C 
ATOM     37  C   UNL     1      55.096   6.533   9.144  0.00  0.00    +0.000 C 
BRANCH  33  38
ATOM     38  O   UNL     1      53.545   5.139  10.349  0.00  0.00    +0.000 OA
ATOM     39  H   UNL     1      53.872   5.278  11.257  0.00  0.00    +0.000 HD
ENDBRANCH  33  38
ENDBRANCH  30  33
ENDBRANCH  28  29
ENDBRANCH  25  28
ENDBRANCH  21  22
ENDBRANCH   3  21
TORSDOF 9
ENDMDL
MODEL 9
REMARK VINA RESULT:    -6.425      4.141      9.406
REMARK INTER + INTRA:         -10.948
REMARK INTER:                  -8.984
REMARK INTRA:                  -1.963
REMARK UNBOUND:                -1.330
REMARK  Name = 
REMARK  9 active torsions:
REMARK  status: ('A' for Active; 'I' for Inactive)
REMARK    1  A    between atoms: C_2  and  C_3
REMARK    2  A    between atoms: C_3  and  N_4
REMARK    3  A    between atoms: C_5  and  C_7
REMARK    4  A    between atoms: N_17  and  C_18
REMARK    5  A    between atoms: C_18  and  C_19
REMARK    6  A    between atoms: C_22  and  C_23
REMARK    7  A    between atoms: C_23  and  N_24
REMARK    8  A    between atoms: C_25  and  C_27
REMARK    9  A    between atoms: C_27  and  O_28
REMARK                            x       y       z     vdW  Elec       q    Type
REMARK                         _______ _______ _______ _____ _____    ______ ____
ROOT
ATOM      1  O   UNL     1      46.621  11.467  11.159  0.00  0.00    +0.000 OA
ATOM      2  C   UNL     1      46.313  10.627  11.998  0.00  0.00    +0.000 C 
ATOM      3  N   UNL     1      47.195  10.101  12.912  0.00  0.00    +0.000 N 
ATOM      4  H   UNL     1      46.825   9.560  13.689  0.00  0.00    +0.000 HD
ENDROOT
BRANCH   2   5
ATOM      5  C   UNL     1      44.871  10.118  12.146  0.00  0.00    +0.000 C 
BRANCH   5   6
ATOM      6  N   UNL     1      44.830   8.687  12.355  0.00  0.00    +0.000 N 
ATOM      7  C   UNL     1      44.229   7.846  11.457  0.00  0.00    +0.000 C 
ATOM      8  O   UNL     1      43.735   8.274  10.415  0.00  0.00    +0.000 OA
ATOM      9  H   UNL     1      45.176   8.331  13.242  0.00  0.00    +0.000 HD
BRANCH   7  10
ATOM     10  C   UNL     1      44.262   6.411  11.763  0.00  0.00    +0.000 A 
ATOM     11  C   UNL     1      43.175   5.615  11.437  0.00  0.00    +0.000 A 
ATOM     12  S   UNL     1      43.377   3.971  11.835  0.00  0.00    +0.000 S 
ATOM     13  C   UNL     1      44.911   4.269  12.507  0.00  0.00    +0.000 A 
ATOM     14  N   UNL     1      45.634   3.261  13.068  0.00  0.00    +0.000 NA
ATOM     15  C   UNL     1      46.763   3.631  13.572  0.00  0.00    +0.000 A 
ATOM     16  N   UNL     1      47.241   4.916  13.556  0.00  0.00    +0.000 N 
ATOM     17  C   UNL     1      46.572   5.955  12.952  0.00  0.00    +0.000 A 
ATOM     18  O   UNL     1      47.061   7.076  12.882  0.00  0.00    +0.000 OA
ATOM     19  C   UNL     1      45.276   5.600  12.401  0.00  0.00    +0.000 A 
ATOM     20  H   UNL     1      48.144   5.135  13.950  0.00  0.00    +0.000 HD
ENDBRANCH   7  10
ENDBRANCH   5   6
ENDBRANCH   2   5
BRANCH   3  21
ATOM     21  C   UNL     1      48.605  10.442  12.930  0.00  0.00    +0.000 C 
BRANCH  21  22
ATOM     22  C   UNL     1      49.331   9.714  14.040  0.00  0.00    +0.000 A 
ATOM     23  C   UNL     1      50.572   9.112  13.793  0.00  0.00    +0.000 A 
ATOM     24  C   UNL     1      51.239   8.398  14.796  0.00  0.00    +0.000 A 
ATOM     25  C   UNL     1      50.678   8.268  16.073  0.00  0.00    +0.000 A 
ATOM     26  C   UNL     1      49.465   8.920  16.338  0.00  0.00    +0.000 A 
ATOM     27  C   UNL     1      48.796   9.631  15.332  0.00  0.00    +0.000 A 
BRANCH  25  28
ATOM     28  C   UNL     1      51.366   7.442  17.132  0.00  0.00    +0.000 C 
BRANCH  28  29
ATOM     29  N   UNL     1      50.832   6.106  17.207  0.00  0.00    +0.000 N 
ATOM     30  C   UNL     1      50.034   5.673  18.250  0.00  0.00    +0.000 C 
ATOM     31  O   UNL     1      49.711   6.375  19.200  0.00  0.00    +0.000 OA
ATOM     32  H   UNL     1      51.013   5.449  16.454  0.00  0.00    +0.000 HD
BRANCH  30  33
ATOM     33  C   UNL     1      49.578   4.211  18.056  0.00  0.00    +0.000 C 
ATOM     34  C   UNL     1      48.523   3.971  16.978  0.00  0.00    +0.000 C 
ATOM     35  C   UNL     1      48.612   2.463  16.722  0.00  0.00    +0.000 C 
ATOM     36  C   UNL     1      50.047   2.062  17.073  0.00  0.00    +0.000 C 
ATOM     37  C   UNL     1      50.732   3.340  17.559  0.00  0.00    +0.000 C 
BRANCH  33  38
ATOM     38  O   UNL     1      49.110   3.684  19.306  0.00  0.00    +0.000 OA
ATOM     39  H   UNL     1      48.303   3.177  19.105  0.00  0.00    +0.000 HD
ENDBRANCH  33  38
ENDBRANCH  30  33
ENDBRANCH  28  29
ENDBRANCH  25  28
ENDBRANCH  21  22
ENDBRANCH   3  21
TORSDOF 9
ENDMDL
