MODEL 1
REMARK VINA RESULT:    -8.341      0.000      0.000
REMARK INTER + INTRA:         -14.666
REMARK INTER:                 -13.461
REMARK INTRA:                  -1.205
REMARK UNBOUND:                -1.205
REMARK  Name = 
REMARK  11 active torsions:
REMARK  status: ('A' for Active; 'I' for Inactive)
REMARK    1  A    between atoms: N_1  and  C_2
REMARK    2  A    between atoms: C_2  and  C_3
REMARK    3  A    between atoms: C_3  and  O_4
REMARK    4  A    between atoms: O_4  and  C_5
REMARK    5  A    between atoms: C_5  and  C_6
REMARK    6  A    between atoms: C_6  and  N_7
REMARK    7  A    between atoms: C_6  and  C_20
REMARK    8  A    between atoms: C_8  and  C_10
REMARK    9  A    between atoms: C_23  and  O_24
REMARK   10  A    between atoms: O_24  and  C_25
REMARK   11  A    between atoms: C_25  and  C_26
REMARK                            x       y       z     vdW  Elec       q    Type
REMARK                         _______ _______ _______ _____ _____    ______ ____
ROOT
ATOM      1  C   UNL     1      46.590   7.903  12.719  0.00  0.00    +0.000 C 
ENDROOT
BRANCH   1   2
ATOM      2  C   UNL     1      45.984   6.734  11.957  0.00  0.00    +0.000 A 
ATOM      3  C   UNL     1      44.979   5.938  12.516  0.00  0.00    +0.000 A 
ATOM      4  C   UNL     1      44.372   4.932  11.755  0.00  0.00    +0.000 A 
ATOM      5  C   UNL     1      44.747   4.731  10.425  0.00  0.00    +0.000 A 
ATOM      6  C   UNL     1      45.802   5.462   9.890  0.00  0.00    +0.000 A 
ATOM      7  C   UNL     1      46.411   6.452  10.649  0.00  0.00    +0.000 A 
BRANCH   5   8
ATOM      8  O   UNL     1      44.024   3.811   9.714  0.00  0.00    +0.000 OA
BRANCH   8   9
ATOM      9  C   UNL     1      44.626   2.507   9.678  0.00  0.00    +0.000 C 
BRANCH   9  10
ATOM     10  C   UNL     1      45.482   2.314   8.451  0.00  0.00    +0.000 A 
ATOM     11  C   UNL     1      45.574   3.308   7.479  0.00  0.00    +0.000 A 
ATOM     12  C   UNL     1      46.433   3.117   6.402  0.00  0.00    +0.000 A 
ATOM     13  C   UNL     1      47.190   1.954   6.334  0.00  0.00    +0.000 A 
ATOM     14  C   UNL     1      47.057   1.025   7.350  0.00  0.00    +0.000 A 
ATOM     15  N   UNL     1      46.229   1.180   8.404  0.00  0.00    +0.000 NA
ENDBRANCH   9  10
ENDBRANCH   8   9
ENDBRANCH   5   8
ENDBRANCH   1   2
BRANCH   1  16
ATOM     16  N   UNL     1      47.132   7.419  13.987  0.00  0.00    +0.000 N 
ATOM     17  C   UNL     1      48.371   6.859  14.127  0.00  0.00    +0.000 C 
ATOM     18  O   UNL     1      49.194   6.820  13.218  0.00  0.00    +0.000 OA
ATOM     19  H   UNL     1      46.451   7.269  14.720  0.00  0.00    +0.000 HD
BRANCH  17  20
ATOM     20  C   UNL     1      48.682   6.342  15.470  0.00  0.00    +0.000 A 
ATOM     21  C   UNL     1      49.606   6.998  16.271  0.00  0.00    +0.000 A 
ATOM     22  S   UNL     1      49.815   6.271  17.802  0.00  0.00    +0.000 S 
ATOM     23  C   UNL     1      48.727   5.020  17.424  0.00  0.00    +0.000 A 
ATOM     24  N   UNL     1      48.477   4.016  18.307  0.00  0.00    +0.000 NA
ATOM     25  C   UNL     1      47.669   3.109  17.870  0.00  0.00    +0.000 A 
ATOM     26  N   UNL     1      47.078   3.122  16.635  0.00  0.00    +0.000 N 
ATOM     27  C   UNL     1      47.224   4.163  15.754  0.00  0.00    +0.000 A 
ATOM     28  O   UNL     1      46.548   4.219  14.734  0.00  0.00    +0.000 OA
ATOM     29  C   UNL     1      48.177   5.177  16.165  0.00  0.00    +0.000 A 
ATOM     30  H   UNL     1      46.423   2.400  16.370  0.00  0.00    +0.000 HD
ENDBRANCH  17  20
ENDBRANCH   1  16
BRANCH   1  31
ATOM     31  C   UNL     1      45.509   8.979  12.969  0.00  0.00    +0.000 C 
BRANCH  31  32
ATOM     32  O   UNL     1      45.372   9.835  11.832  0.00  0.00    +0.000 OA
BRANCH  32  33
ATOM     33  C   UNL     1      44.036  10.345  11.732  0.00  0.00    +0.000 C 
BRANCH  33  34
ATOM     34  C   UNL     1      43.342   9.704  10.530  0.00  0.00    +0.000 C 
BRANCH  34  35
ATOM     35  N   UNL     1      42.783   8.394  10.880  0.00  0.00    +0.000 NA
ATOM     36  H   UNL     1      43.497   7.681  10.748  0.00  0.00    +0.000 HD
ATOM     37  H   UNL     1      42.049   8.188  10.198  0.00  0.00    +0.000 HD
ENDBRANCH  34  35
ENDBRANCH  33  34
ENDBRANCH  32  33
ENDBRANCH  31  32
ENDBRANCH   1  31
TORSDOF 11
ENDMDL
MODEL 2
REMARK VINA RESULT:    -7.800      2.645      5.043
REMARK INTER + INTRA:         -13.793
REMARK INTER:                 -12.412
REMARK INTRA:                  -1.381
REMARK UNBOUND:                -1.205
REMARK  Name = 
REMARK  11 active torsions:
REMARK  status: ('A' for Active; 'I' for Inactive)
REMARK    1  A    between atoms: N_1  and  C_2
REMARK    2  A    between atoms: C_2  and  C_3
REMARK    3  A    between atoms: C_3  and  O_4
REMARK    4  A    between atoms: O_4  and  C_5
REMARK    5  A    between atoms: C_5  and  C_6
REMARK    6  A    between atoms: C_6  and  N_7
REMARK    7  A    between atoms: C_6  and  C_20
REMARK    8  A    between atoms: C_8  and  C_10
REMARK    9  A    between atoms: C_23  and  O_24
REMARK   10  A    between atoms: O_24  and  C_25
REMARK   11  A    between atoms: C_25  and  C_26
REMARK                            x       y       z     vdW  Elec       q    Type
REMARK                         _______ _______ _______ _____ _____    ______ ____
ROOT
ATOM      1  C   UNL     1      46.736   5.850  13.987  0.00  0.00    +0.000 C 
ENDROOT
BRANCH   1   2
ATOM      2  C   UNL     1      45.943   5.354  12.787  0.00  0.00    +0.000 A 
ATOM      3  C   UNL     1      46.059   5.960  11.531  0.00  0.00    +0.000 A 
ATOM      4  C   UNL     1      45.393   5.421  10.425  0.00  0.00    +0.000 A 
ATOM      5  C   UNL     1      44.627   4.261  10.559  0.00  0.00    +0.000 A 
ATOM      6  C   UNL     1      44.441   3.703  11.819  0.00  0.00    +0.000 A 
ATOM      7  C   UNL     1      45.093   4.244  12.918  0.00  0.00    +0.000 A 
BRANCH   5   8
ATOM      8  O   UNL     1      44.108   3.730   9.409  0.00  0.00    +0.000 OA
BRANCH   8   9
ATOM      9  C   UNL     1      44.502   2.369   9.174  0.00  0.00    +0.000 C 
BRANCH   9  10
ATOM     10  C   UNL     1      45.586   2.268   8.130  0.00  0.00    +0.000 A 
ATOM     11  C   UNL     1      45.844   3.325   7.260  0.00  0.00    +0.000 A 
ATOM     12  C   UNL     1      46.901   3.216   6.364  0.00  0.00    +0.000 A 
ATOM     13  C   UNL     1      47.683   2.068   6.372  0.00  0.00    +0.000 A 
ATOM     14  C   UNL     1      47.376   1.071   7.281  0.00  0.00    +0.000 A 
ATOM     15  N   UNL     1      46.353   1.147   8.159  0.00  0.00    +0.000 NA
ENDBRANCH   9  10
ENDBRANCH   8   9
ENDBRANCH   5   8
ENDBRANCH   1   2
BRANCH   1  16
ATOM     16  N   UNL     1      47.872   6.640  13.517  0.00  0.00    +0.000 N 
ATOM     17  C   UNL     1      47.886   8.006  13.466  0.00  0.00    +0.000 C 
ATOM     18  O   UNL     1      46.986   8.703  13.925  0.00  0.00    +0.000 OA
ATOM     19  H   UNL     1      48.560   6.132  12.978  0.00  0.00    +0.000 HD
BRANCH  17  20
ATOM     20  C   UNL     1      49.090   8.603  12.863  0.00  0.00    +0.000 A 
ATOM     21  C   UNL     1      48.983   9.369  11.710  0.00  0.00    +0.000 A 
ATOM     22  S   UNL     1      50.476  10.000  11.173  0.00  0.00    +0.000 S 
ATOM     23  C   UNL     1      51.324   9.219  12.423  0.00  0.00    +0.000 A 
ATOM     24  N   UNL     1      52.678   9.314  12.519  0.00  0.00    +0.000 NA
ATOM     25  C   UNL     1      53.195   8.632  13.487  0.00  0.00    +0.000 A 
ATOM     26  N   UNL     1      52.478   7.874  14.375  0.00  0.00    +0.000 N 
ATOM     27  C   UNL     1      51.108   7.831  14.374  0.00  0.00    +0.000 A 
ATOM     28  O   UNL     1      50.499   7.281  15.285  0.00  0.00    +0.000 OA
ATOM     29  C   UNL     1      50.477   8.522  13.266  0.00  0.00    +0.000 A 
ATOM     30  H   UNL     1      52.941   7.396  15.134  0.00  0.00    +0.000 HD
ENDBRANCH  17  20
ENDBRANCH   1  16
BRANCH   1  31
ATOM     31  C   UNL     1      47.225   4.645  14.824  0.00  0.00    +0.000 C 
BRANCH  31  32
ATOM     32  O   UNL     1      48.294   5.030  15.692  0.00  0.00    +0.000 OA
BRANCH  32  33
ATOM     33  C   UNL     1      47.978   4.730  17.058  0.00  0.00    +0.000 C 
BRANCH  33  34
ATOM     34  C   UNL     1      47.901   3.212  17.233  0.00  0.00    +0.000 C 
BRANCH  34  35
ATOM     35  N   UNL     1      46.588   2.806  17.745  0.00  0.00    +0.000 NA
ATOM     36  H   UNL     1      46.088   3.631  18.072  0.00  0.00    +0.000 HD
ATOM     37  H   UNL     1      46.753   2.229  18.575  0.00  0.00    +0.000 HD
ENDBRANCH  34  35
ENDBRANCH  33  34
ENDBRANCH  32  33
ENDBRANCH  31  32
ENDBRANCH   1  31
TORSDOF 11
ENDMDL
MODEL 3
REMARK VINA RESULT:    -7.782      2.186      3.169
REMARK INTER + INTRA:         -13.764
REMARK INTER:                 -12.154
REMARK INTRA:                  -1.610
REMARK UNBOUND:                -1.205
REMARK  Name = 
REMARK  11 active torsions:
REMARK  status: ('A' for Active; 'I' for Inactive)
REMARK    1  A    between atoms: N_1  and  C_2
REMARK    2  A    between atoms: C_2  and  C_3
REMARK    3  A    between atoms: C_3  and  O_4
REMARK    4  A    between atoms: O_4  and  C_5
REMARK    5  A    between atoms: C_5  and  C_6
REMARK    6  A    between atoms: C_6  and  N_7
REMARK    7  A    between atoms: C_6  and  C_20
REMARK    8  A    between atoms: C_8  and  C_10
REMARK    9  A    between atoms: C_23  and  O_24
REMARK   10  A    between atoms: O_24  and  C_25
REMARK   11  A    between atoms: C_25  and  C_26
REMARK                            x       y       z     vdW  Elec       q    Type
REMARK                         _______ _______ _______ _____ _____    ______ ____
ROOT
ATOM      1  C   UNL     1      47.409   6.609  13.269  0.00  0.00    +0.000 C 
ENDROOT
BRANCH   1   2
ATOM      2  C   UNL     1      46.415   5.808  12.442  0.00  0.00    +0.000 A 
ATOM      3  C   UNL     1      45.886   6.308  11.247  0.00  0.00    +0.000 A 
ATOM      4  C   UNL     1      45.050   5.509  10.458  0.00  0.00    +0.000 A 
ATOM      5  C   UNL     1      44.757   4.200  10.844  0.00  0.00    +0.000 A 
ATOM      6  C   UNL     1      45.211   3.726  12.071  0.00  0.00    +0.000 A 
ATOM      7  C   UNL     1      46.031   4.523  12.858  0.00  0.00    +0.000 A 
BRANCH   5   8
ATOM      8  O   UNL     1      44.033   3.445   9.961  0.00  0.00    +0.000 OA
BRANCH   8   9
ATOM      9  C   UNL     1      44.625   2.168   9.673  0.00  0.00    +0.000 C 
BRANCH   9  10
ATOM     10  C   UNL     1      45.523   2.222   8.463  0.00  0.00    +0.000 A 
ATOM     11  C   UNL     1      45.590   3.366   7.672  0.00  0.00    +0.000 A 
ATOM     12  C   UNL     1      46.488   3.396   6.609  0.00  0.00    +0.000 A 
ATOM     13  C   UNL     1      47.305   2.297   6.378  0.00  0.00    +0.000 A 
ATOM     14  C   UNL     1      47.193   1.207   7.222  0.00  0.00    +0.000 A 
ATOM     15  N   UNL     1      46.328   1.146   8.258  0.00  0.00    +0.000 NA
ENDBRANCH   9  10
ENDBRANCH   8   9
ENDBRANCH   5   8
ENDBRANCH   1   2
BRANCH   1  16
ATOM     16  N   UNL     1      47.455   6.065  14.623  0.00  0.00    +0.000 N 
ATOM     17  C   UNL     1      48.569   6.077  15.416  0.00  0.00    +0.000 C 
ATOM     18  O   UNL     1      49.605   6.657  15.107  0.00  0.00    +0.000 OA
ATOM     19  H   UNL     1      46.702   5.434  14.864  0.00  0.00    +0.000 HD
BRANCH  17  20
ATOM     20  C   UNL     1      48.432   5.382  16.708  0.00  0.00    +0.000 A 
ATOM     21  C   UNL     1      48.422   3.995  16.754  0.00  0.00    +0.000 A 
ATOM     22  S   UNL     1      48.284   3.369  18.336  0.00  0.00    +0.000 S 
ATOM     23  C   UNL     1      48.168   4.927  19.007  0.00  0.00    +0.000 A 
ATOM     24  N   UNL     1      47.988   5.104  20.345  0.00  0.00    +0.000 NA
ATOM     25  C   UNL     1      47.869   6.337  20.709  0.00  0.00    +0.000 A 
ATOM     26  N   UNL     1      47.925   7.410  19.859  0.00  0.00    +0.000 N 
ATOM     27  C   UNL     1      48.202   7.282  18.522  0.00  0.00    +0.000 A 
ATOM     28  O   UNL     1      48.412   8.270  17.830  0.00  0.00    +0.000 OA
ATOM     29  C   UNL     1      48.277   5.914  18.045  0.00  0.00    +0.000 A 
ATOM     30  H   UNL     1      47.863   8.352  20.215  0.00  0.00    +0.000 HD
ENDBRANCH  17  20
ENDBRANCH   1  16
BRANCH   1  31
ATOM     31  C   UNL     1      46.984   8.096  13.299  0.00  0.00    +0.000 C 
BRANCH  31  32
ATOM     32  O   UNL     1      48.086   8.946  12.972  0.00  0.00    +0.000 OA
BRANCH  32  33
ATOM     33  C   UNL     1      48.845   8.405  11.883  0.00  0.00    +0.000 C 
BRANCH  33  34
ATOM     34  C   UNL     1      50.311   8.809  12.042  0.00  0.00    +0.000 C 
BRANCH  34  35
ATOM     35  N   UNL     1      51.015   7.898  12.951  0.00  0.00    +0.000 NA
ATOM     36  H   UNL     1      51.348   7.093  12.424  0.00  0.00    +0.000 HD
ATOM     37  H   UNL     1      50.320   7.536  13.611  0.00  0.00    +0.000 HD
ENDBRANCH  34  35
ENDBRANCH  33  34
ENDBRANCH  32  33
ENDBRANCH  31  32
ENDBRANCH   1  31
TORSDOF 11
ENDMDL
MODEL 4
REMARK VINA RESULT:    -7.749      1.550      2.210
REMARK INTER + INTRA:         -13.710
REMARK INTER:                 -12.783
REMARK INTRA:                  -0.927
REMARK UNBOUND:                -1.205
REMARK  Name = 
REMARK  11 active torsions:
REMARK  status: ('A' for Active; 'I' for Inactive)
REMARK    1  A    between atoms: N_1  and  C_2
REMARK    2  A    between atoms: C_2  and  C_3
REMARK    3  A    between atoms: C_3  and  O_4
REMARK    4  A    between atoms: O_4  and  C_5
REMARK    5  A    between atoms: C_5  and  C_6
REMARK    6  A    between atoms: C_6  and  N_7
REMARK    7  A    between atoms: C_6  and  C_20
REMARK    8  A    between atoms: C_8  and  C_10
REMARK    9  A    between atoms: C_23  and  O_24
REMARK   10  A    between atoms: O_24  and  C_25
REMARK   11  A    between atoms: C_25  and  C_26
REMARK                            x       y       z     vdW  Elec       q    Type
REMARK                         _______ _______ _______ _____ _____    ______ ____
ROOT
ATOM      1  C   UNL     1      47.130   7.012  13.116  0.00  0.00    +0.000 C 
ENDROOT
BRANCH   1   2
ATOM      2  C   UNL     1      46.229   6.215  12.185  0.00  0.00    +0.000 A 
ATOM      3  C   UNL     1      46.313   6.346  10.794  0.00  0.00    +0.000 A 
ATOM      4  C   UNL     1      45.540   5.529   9.962  0.00  0.00    +0.000 A 
ATOM      5  C   UNL     1      44.697   4.561  10.510  0.00  0.00    +0.000 A 
ATOM      6  C   UNL     1      44.546   4.482  11.890  0.00  0.00    +0.000 A 
ATOM      7  C   UNL     1      45.306   5.299  12.716  0.00  0.00    +0.000 A 
BRANCH   5   8
ATOM      8  O   UNL     1      44.068   3.722   9.629  0.00  0.00    +0.000 OA
BRANCH   8   9
ATOM      9  C   UNL     1      44.661   2.416   9.553  0.00  0.00    +0.000 C 
BRANCH   9  10
ATOM     10  C   UNL     1      45.558   2.272   8.349  0.00  0.00    +0.000 A 
ATOM     11  C   UNL     1      45.665   3.295   7.410  0.00  0.00    +0.000 A 
ATOM     12  C   UNL     1      46.561   3.149   6.356  0.00  0.00    +0.000 A 
ATOM     13  C   UNL     1      47.337   1.999   6.278  0.00  0.00    +0.000 A 
ATOM     14  C   UNL     1      47.187   1.038   7.262  0.00  0.00    +0.000 A 
ATOM     15  N   UNL     1      46.323   1.150   8.294  0.00  0.00    +0.000 NA
ENDBRANCH   9  10
ENDBRANCH   8   9
ENDBRANCH   5   8
ENDBRANCH   1   2
BRANCH   1  16
ATOM     16  N   UNL     1      47.201   6.337  14.409  0.00  0.00    +0.000 N 
ATOM     17  C   UNL     1      48.360   6.136  15.106  0.00  0.00    +0.000 C 
ATOM     18  O   UNL     1      49.437   6.613  14.765  0.00  0.00    +0.000 OA
ATOM     19  H   UNL     1      46.391   5.783  14.654  0.00  0.00    +0.000 HD
BRANCH  17  20
ATOM     20  C   UNL     1      48.225   5.342  16.339  0.00  0.00    +0.000 A 
ATOM     21  C   UNL     1      47.846   4.009  16.269  0.00  0.00    +0.000 A 
ATOM     22  S   UNL     1      47.770   3.243  17.794  0.00  0.00    +0.000 S 
ATOM     23  C   UNL     1      48.178   4.682  18.603  0.00  0.00    +0.000 A 
ATOM     24  N   UNL     1      48.246   4.728  19.962  0.00  0.00    +0.000 NA
ATOM     25  C   UNL     1      48.519   5.894  20.444  0.00  0.00    +0.000 A 
ATOM     26  N   UNL     1      48.742   7.016  19.690  0.00  0.00    +0.000 N 
ATOM     27  C   UNL     1      48.781   6.992  18.320  0.00  0.00    +0.000 A 
ATOM     28  O   UNL     1      49.150   7.974  17.687  0.00  0.00    +0.000 OA
ATOM     29  C   UNL     1      48.412   5.721  17.723  0.00  0.00    +0.000 A 
ATOM     30  H   UNL     1      48.989   7.890  20.129  0.00  0.00    +0.000 HD
ENDBRANCH  17  20
ENDBRANCH   1  16
BRANCH   1  31
ATOM     31  C   UNL     1      46.571   8.444  13.283  0.00  0.00    +0.000 C 
BRANCH  31  32
ATOM     32  O   UNL     1      45.295   8.568  12.650  0.00  0.00    +0.000 OA
BRANCH  32  33
ATOM     33  C   UNL     1      45.229   9.762  11.859  0.00  0.00    +0.000 C 
BRANCH  33  34
ATOM     34  C   UNL     1      43.909   9.780  11.086  0.00  0.00    +0.000 C 
BRANCH  34  35
ATOM     35  N   UNL     1      43.372   8.425  10.926  0.00  0.00    +0.000 NA
ATOM     36  H   UNL     1      42.721   8.234  11.685  0.00  0.00    +0.000 HD
ATOM     37  H   UNL     1      44.152   7.775  11.053  0.00  0.00    +0.000 HD
ENDBRANCH  34  35
ENDBRANCH  33  34
ENDBRANCH  32  33
ENDBRANCH  31  32
ENDBRANCH   1  31
TORSDOF 11
ENDMDL
MODEL 5
REMARK VINA RESULT:    -7.622      2.268      3.097
REMARK INTER + INTRA:         -13.506
REMARK INTER:                 -11.836
REMARK INTRA:                  -1.670
REMARK UNBOUND:                -1.205
REMARK  Name = 
REMARK  11 active torsions:
REMARK  status: ('A' for Active; 'I' for Inactive)
REMARK    1  A    between atoms: N_1  and  C_2
REMARK    2  A    between atoms: C_2  and  C_3
REMARK    3  A    between atoms: C_3  and  O_4
REMARK    4  A    between atoms: O_4  and  C_5
REMARK    5  A    between atoms: C_5  and  C_6
REMARK    6  A    between atoms: C_6  and  N_7
REMARK    7  A    between atoms: C_6  and  C_20
REMARK    8  A    between atoms: C_8  and  C_10
REMARK    9  A    between atoms: C_23  and  O_24
REMARK   10  A    between atoms: O_24  and  C_25
REMARK   11  A    between atoms: C_25  and  C_26
REMARK                            x       y       z     vdW  Elec       q    Type
REMARK                         _______ _______ _______ _____ _____    ______ ____
ROOT
ATOM      1  C   UNL     1      48.024   6.901  13.291  0.00  0.00    +0.000 C 
ENDROOT
BRANCH   1   2
ATOM      2  C   UNL     1      46.995   5.900  12.787  0.00  0.00    +0.000 A 
ATOM      3  C   UNL     1      46.161   6.191  11.702  0.00  0.00    +0.000 A 
ATOM      4  C   UNL     1      45.293   5.215  11.199  0.00  0.00    +0.000 A 
ATOM      5  C   UNL     1      45.269   3.936  11.759  0.00  0.00    +0.000 A 
ATOM      6  C   UNL     1      46.034   3.667  12.889  0.00  0.00    +0.000 A 
ATOM      7  C   UNL     1      46.887   4.638  13.394  0.00  0.00    +0.000 A 
BRANCH   5   8
ATOM      8  O   UNL     1      44.484   3.005  11.135  0.00  0.00    +0.000 OA
BRANCH   8   9
ATOM      9  C   UNL     1      44.114   3.369   9.795  0.00  0.00    +0.000 C 
BRANCH   9  10
ATOM     10  C   UNL     1      45.109   2.867   8.779  0.00  0.00    +0.000 A 
ATOM     11  C   UNL     1      45.695   3.736   7.861  0.00  0.00    +0.000 A 
ATOM     12  C   UNL     1      46.662   3.244   6.992  0.00  0.00    +0.000 A 
ATOM     13  C   UNL     1      47.033   1.907   7.074  0.00  0.00    +0.000 A 
ATOM     14  C   UNL     1      46.419   1.114   8.027  0.00  0.00    +0.000 A 
ATOM     15  N   UNL     1      45.474   1.562   8.880  0.00  0.00    +0.000 NA
ENDBRANCH   9  10
ENDBRANCH   8   9
ENDBRANCH   5   8
ENDBRANCH   1   2
BRANCH   1  16
ATOM     16  N   UNL     1      47.958   6.963  14.749  0.00  0.00    +0.000 N 
ATOM     17  C   UNL     1      49.048   6.863  15.570  0.00  0.00    +0.000 C 
ATOM     18  O   UNL     1      50.201   6.832  15.151  0.00  0.00    +0.000 OA
ATOM     19  H   UNL     1      47.041   6.817  15.149  0.00  0.00    +0.000 HD
BRANCH  17  20
ATOM     20  C   UNL     1      48.751   6.844  17.012  0.00  0.00    +0.000 A 
ATOM     21  C   UNL     1      48.454   8.027  17.676  0.00  0.00    +0.000 A 
ATOM     22  S   UNL     1      48.110   7.807  19.334  0.00  0.00    +0.000 S 
ATOM     23  C   UNL     1      48.409   6.136  19.236  0.00  0.00    +0.000 A 
ATOM     24  N   UNL     1      48.329   5.343  20.339  0.00  0.00    +0.000 NA
ATOM     25  C   UNL     1      48.628   4.104  20.129  0.00  0.00    +0.000 A 
ATOM     26  N   UNL     1      48.987   3.585  18.913  0.00  0.00    +0.000 N 
ATOM     27  C   UNL     1      48.984   4.327  17.761  0.00  0.00    +0.000 A 
ATOM     28  O   UNL     1      49.145   3.790  16.671  0.00  0.00    +0.000 OA
ATOM     29  C   UNL     1      48.723   5.742  17.949  0.00  0.00    +0.000 A 
ATOM     30  H   UNL     1      49.171   2.597  18.810  0.00  0.00    +0.000 HD
ENDBRANCH  17  20
ENDBRANCH   1  16
BRANCH   1  31
ATOM     31  C   UNL     1      47.742   8.292  12.678  0.00  0.00    +0.000 C 
BRANCH  31  32
ATOM     32  O   UNL     1      48.691   8.597  11.653  0.00  0.00    +0.000 OA
BRANCH  32  33
ATOM     33  C   UNL     1      49.830   9.278  12.195  0.00  0.00    +0.000 C 
BRANCH  33  34
ATOM     34  C   UNL     1      51.101   8.522  11.804  0.00  0.00    +0.000 C 
BRANCH  34  35
ATOM     35  N   UNL     1      51.800   8.014  12.990  0.00  0.00    +0.000 NA
ATOM     36  H   UNL     1      52.711   7.656  12.712  0.00  0.00    +0.000 HD
ATOM     37  H   UNL     1      51.269   7.206  13.329  0.00  0.00    +0.000 HD
ENDBRANCH  34  35
ENDBRANCH  33  34
ENDBRANCH  32  33
ENDBRANCH  31  32
ENDBRANCH   1  31
TORSDOF 11
ENDMDL
MODEL 6
REMARK VINA RESULT:    -7.231      2.468      5.118
REMARK INTER + INTRA:         -12.874
REMARK INTER:                 -11.813
REMARK INTRA:                  -1.062
REMARK UNBOUND:                -1.205
REMARK  Name = 
REMARK  11 active torsions:
REMARK  status: ('A' for Active; 'I' for Inactive)
REMARK    1  A    between atoms: N_1  and  C_2
REMARK    2  A    between atoms: C_2  and  C_3
REMARK    3  A    between atoms: C_3  and  O_4
REMARK    4  A    between atoms: O_4  and  C_5
REMARK    5  A    between atoms: C_5  and  C_6
REMARK    6  A    between atoms: C_6  and  N_7
REMARK    7  A    between atoms: C_6  and  C_20
REMARK    8  A    between atoms: C_8  and  C_10
REMARK    9  A    between atoms: C_23  and  O_24
REMARK   10  A    between atoms: O_24  and  C_25
REMARK   11  A    between atoms: C_25  and  C_26
REMARK                            x       y       z     vdW  Elec       q    Type
REMARK                         _______ _______ _______ _____ _____    ______ ____
ROOT
ATOM      1  C   UNL     1      46.867   5.027  14.958  0.00  0.00    +0.000 C 
ENDROOT
BRANCH   1   2
ATOM      2  C   UNL     1      46.096   4.770  13.673  0.00  0.00    +0.000 A 
ATOM      3  C   UNL     1      45.594   5.822  12.898  0.00  0.00    +0.000 A 
ATOM      4  C   UNL     1      44.974   5.559  11.670  0.00  0.00    +0.000 A 
ATOM      5  C   UNL     1      44.873   4.249  11.198  0.00  0.00    +0.000 A 
ATOM      6  C   UNL     1      45.295   3.194  12.001  0.00  0.00    +0.000 A 
ATOM      7  C   UNL     1      45.900   3.455  13.222  0.00  0.00    +0.000 A 
BRANCH   5   8
ATOM      8  O   UNL     1      44.364   4.087   9.937  0.00  0.00    +0.000 OA
BRANCH   8   9
ATOM      9  C   UNL     1      44.388   2.727   9.476  0.00  0.00    +0.000 C 
BRANCH   9  10
ATOM     10  C   UNL     1      45.442   2.507   8.420  0.00  0.00    +0.000 A 
ATOM     11  C   UNL     1      45.860   3.551   7.598  0.00  0.00    +0.000 A 
ATOM     12  C   UNL     1      46.887   3.320   6.688  0.00  0.00    +0.000 A 
ATOM     13  C   UNL     1      47.480   2.065   6.637  0.00  0.00    +0.000 A 
ATOM     14  C   UNL     1      47.022   1.087   7.502  0.00  0.00    +0.000 A 
ATOM     15  N   UNL     1      46.025   1.280   8.391  0.00  0.00    +0.000 NA
ENDBRANCH   9  10
ENDBRANCH   8   9
ENDBRANCH   5   8
ENDBRANCH   1   2
BRANCH   1  16
ATOM     16  N   UNL     1      47.895   6.034  14.708  0.00  0.00    +0.000 N 
ATOM     17  C   UNL     1      48.668   6.598  15.685  0.00  0.00    +0.000 C 
ATOM     18  O   UNL     1      48.653   6.222  16.852  0.00  0.00    +0.000 OA
ATOM     19  H   UNL     1      47.838   6.500  13.812  0.00  0.00    +0.000 HD
BRANCH  17  20
ATOM     20  C   UNL     1      49.572   7.670  15.233  0.00  0.00    +0.000 A 
ATOM     21  C   UNL     1      50.124   8.549  16.155  0.00  0.00    +0.000 A 
ATOM     22  S   UNL     1      51.167   9.704  15.453  0.00  0.00    +0.000 S 
ATOM     23  C   UNL     1      50.867   9.111  13.887  0.00  0.00    +0.000 A 
ATOM     24  N   UNL     1      51.432   9.694  12.796  0.00  0.00    +0.000 NA
ATOM     25  C   UNL     1      51.080   9.172  11.668  0.00  0.00    +0.000 A 
ATOM     26  N   UNL     1      50.224   8.111  11.535  0.00  0.00    +0.000 N 
ATOM     27  C   UNL     1      49.712   7.433  12.611  0.00  0.00    +0.000 A 
ATOM     28  O   UNL     1      49.090   6.389  12.453  0.00  0.00    +0.000 OA
ATOM     29  C   UNL     1      50.019   8.019  13.902  0.00  0.00    +0.000 A 
ATOM     30  H   UNL     1      50.021   7.725  10.624  0.00  0.00    +0.000 HD
ENDBRANCH  17  20
ENDBRANCH   1  16
BRANCH   1  31
ATOM     31  C   UNL     1      47.510   3.710  15.452  0.00  0.00    +0.000 C 
BRANCH  31  32
ATOM     32  O   UNL     1      46.940   3.303  16.699  0.00  0.00    +0.000 OA
BRANCH  32  33
ATOM     33  C   UNL     1      47.957   3.117  17.692  0.00  0.00    +0.000 C 
BRANCH  33  34
ATOM     34  C   UNL     1      49.251   2.673  17.009  0.00  0.00    +0.000 C 
BRANCH  34  35
ATOM     35  N   UNL     1      50.362   3.568  17.349  0.00  0.00    +0.000 NA
ATOM     36  H   UNL     1      50.892   3.776  16.505  0.00  0.00    +0.000 HD
ATOM     37  H   UNL     1      50.995   3.043  17.959  0.00  0.00    +0.000 HD
ENDBRANCH  34  35
ENDBRANCH  33  34
ENDBRANCH  32  33
ENDBRANCH  31  32
ENDBRANCH   1  31
TORSDOF 11
ENDMDL
MODEL 7
REMARK VINA RESULT:    -6.798      2.713      3.913
REMARK INTER + INTRA:         -12.175
REMARK INTER:                 -10.712
REMARK INTRA:                  -1.464
REMARK UNBOUND:                -1.205
REMARK  Name = 
REMARK  11 active torsions:
REMARK  status: ('A' for Active; 'I' for Inactive)
REMARK    1  A    between atoms: N_1  and  C_2
REMARK    2  A    between atoms: C_2  and  C_3
REMARK    3  A    between atoms: C_3  and  O_4
REMARK    4  A    between atoms: O_4  and  C_5
REMARK    5  A    between atoms: C_5  and  C_6
REMARK    6  A    between atoms: C_6  and  N_7
REMARK    7  A    between atoms: C_6  and  C_20
REMARK    8  A    between atoms: C_8  and  C_10
REMARK    9  A    between atoms: C_23  and  O_24
REMARK   10  A    between atoms: O_24  and  C_25
REMARK   11  A    between atoms: C_25  and  C_26
REMARK                            x       y       z     vdW  Elec       q    Type
REMARK                         _______ _______ _______ _____ _____    ______ ____
ROOT
ATOM      1  C   UNL     1      48.506   6.631  13.695  0.00  0.00    +0.000 C 
ENDROOT
BRANCH   1   2
ATOM      2  C   UNL     1      47.258   6.138  12.979  0.00  0.00    +0.000 A 
ATOM      3  C   UNL     1      46.726   6.822  11.880  0.00  0.00    +0.000 A 
ATOM      4  C   UNL     1      45.635   6.291  11.181  0.00  0.00    +0.000 A 
ATOM      5  C   UNL     1      45.085   5.065  11.558  0.00  0.00    +0.000 A 
ATOM      6  C   UNL     1      45.556   4.422  12.698  0.00  0.00    +0.000 A 
ATOM      7  C   UNL     1      46.630   4.953  13.397  0.00  0.00    +0.000 A 
BRANCH   5   8
ATOM      8  O   UNL     1      44.102   4.557  10.752  0.00  0.00    +0.000 OA
BRANCH   8   9
ATOM      9  C   UNL     1      44.260   3.160  10.460  0.00  0.00    +0.000 C 
BRANCH   9  10
ATOM     10  C   UNL     1      45.052   2.932   9.196  0.00  0.00    +0.000 A 
ATOM     11  C   UNL     1      45.287   3.974   8.302  0.00  0.00    +0.000 A 
ATOM     12  C   UNL     1      46.085   3.736   7.188  0.00  0.00    +0.000 A 
ATOM     13  C   UNL     1      46.640   2.476   7.006  0.00  0.00    +0.000 A 
ATOM     14  C   UNL     1      46.375   1.500   7.951  0.00  0.00    +0.000 A 
ATOM     15  N   UNL     1      45.602   1.700   9.039  0.00  0.00    +0.000 NA
ENDBRANCH   9  10
ENDBRANCH   8   9
ENDBRANCH   5   8
ENDBRANCH   1   2
BRANCH   1  16
ATOM     16  N   UNL     1      48.213   6.785  15.118  0.00  0.00    +0.000 N 
ATOM     17  C   UNL     1      49.102   6.504  16.118  0.00  0.00    +0.000 C 
ATOM     18  O   UNL     1      50.275   6.210  15.908  0.00  0.00    +0.000 OA
ATOM     19  H   UNL     1      47.232   6.856  15.354  0.00  0.00    +0.000 HD
BRANCH  17  20
ATOM     20  C   UNL     1      48.572   6.627  17.486  0.00  0.00    +0.000 A 
ATOM     21  C   UNL     1      48.413   5.495  18.274  0.00  0.00    +0.000 A 
ATOM     22  S   UNL     1      47.814   5.834  19.837  0.00  0.00    +0.000 S 
ATOM     23  C   UNL     1      47.688   7.495  19.493  0.00  0.00    +0.000 A 
ATOM     24  N   UNL     1      47.193   8.367  20.414  0.00  0.00    +0.000 NA
ATOM     25  C   UNL     1      47.108   9.588  20.002  0.00  0.00    +0.000 A 
ATOM     26  N   UNL     1      47.486  10.018  18.757  0.00  0.00    +0.000 N 
ATOM     27  C   UNL     1      48.080   9.193  17.837  0.00  0.00    +0.000 A 
ATOM     28  O   UNL     1      48.557   9.649  16.805  0.00  0.00    +0.000 OA
ATOM     29  C   UNL     1      48.137   7.795  18.220  0.00  0.00    +0.000 A 
ATOM     30  H   UNL     1      47.430  10.996  18.512  0.00  0.00    +0.000 HD
ENDBRANCH  17  20
ENDBRANCH   1  16
BRANCH   1  31
ATOM     31  C   UNL     1      48.957   7.980  13.087  0.00  0.00    +0.000 C 
BRANCH  31  32
ATOM     32  O   UNL     1      50.338   7.933  12.718  0.00  0.00    +0.000 OA
BRANCH  32  33
ATOM     33  C   UNL     1      50.535   8.472  11.405  0.00  0.00    +0.000 C 
BRANCH  33  34
ATOM     34  C   UNL     1      50.009   9.908  11.365  0.00  0.00    +0.000 C 
BRANCH  34  35
ATOM     35  N   UNL     1      50.954  10.833  12.000  0.00  0.00    +0.000 NA
ATOM     36  H   UNL     1      50.547  11.182  12.866  0.00  0.00    +0.000 HD
ATOM     37  H   UNL     1      51.042  11.644  11.382  0.00  0.00    +0.000 HD
ENDBRANCH  34  35
ENDBRANCH  33  34
ENDBRANCH  32  33
ENDBRANCH  31  32
ENDBRANCH   1  31
TORSDOF 11
ENDMDL
MODEL 8
REMARK VINA RESULT:    -6.394      2.606      5.351
REMARK INTER + INTRA:         -11.524
REMARK INTER:                 -10.658
REMARK INTRA:                  -0.866
REMARK UNBOUND:                -1.205
REMARK  Name = 
REMARK  11 active torsions:
REMARK  status: ('A' for Active; 'I' for Inactive)
REMARK    1  A    between atoms: N_1  and  C_2
REMARK    2  A    between atoms: C_2  and  C_3
REMARK    3  A    between atoms: C_3  and  O_4
REMARK    4  A    between atoms: O_4  and  C_5
REMARK    5  A    between atoms: C_5  and  C_6
REMARK    6  A    between atoms: C_6  and  N_7
REMARK    7  A    between atoms: C_6  and  C_20
REMARK    8  A    between atoms: C_8  and  C_10
REMARK    9  A    between atoms: C_23  and  O_24
REMARK   10  A    between atoms: O_24  and  C_25
REMARK   11  A    between atoms: C_25  and  C_26
REMARK                            x       y       z     vdW  Elec       q    Type
REMARK                         _______ _______ _______ _____ _____    ______ ____
ROOT
ATOM      1  C   UNL     1      47.276   4.922  15.371  0.00  0.00    +0.000 C 
ENDROOT
BRANCH   1   2
ATOM      2  C   UNL     1      46.632   5.130  14.009  0.00  0.00    +0.000 A 
ATOM      3  C   UNL     1      46.995   6.199  13.182  0.00  0.00    +0.000 A 
ATOM      4  C   UNL     1      46.456   6.309  11.895  0.00  0.00    +0.000 A 
ATOM      5  C   UNL     1      45.570   5.342  11.417  0.00  0.00    +0.000 A 
ATOM      6  C   UNL     1      45.141   4.324  12.262  0.00  0.00    +0.000 A 
ATOM      7  C   UNL     1      45.668   4.221  13.542  0.00  0.00    +0.000 A 
BRANCH   5   8
ATOM      8  O   UNL     1      45.183   5.455  10.109  0.00  0.00    +0.000 OA
BRANCH   8   9
ATOM      9  C   UNL     1      44.529   4.283   9.597  0.00  0.00    +0.000 C 
BRANCH   9  10
ATOM     10  C   UNL     1      45.436   3.475   8.703  0.00  0.00    +0.000 A 
ATOM     11  C   UNL     1      45.534   2.093   8.843  0.00  0.00    +0.000 A 
ATOM     12  C   UNL     1      46.326   1.381   7.948  0.00  0.00    +0.000 A 
ATOM     13  C   UNL     1      46.980   2.061   6.929  0.00  0.00    +0.000 A 
ATOM     14  C   UNL     1      46.815   3.432   6.844  0.00  0.00    +0.000 A 
ATOM     15  N   UNL     1      46.057   4.150   7.701  0.00  0.00    +0.000 NA
ENDBRANCH   9  10
ENDBRANCH   8   9
ENDBRANCH   5   8
ENDBRANCH   1   2
BRANCH   1  16
ATOM     16  N   UNL     1      48.431   5.808  15.495  0.00  0.00    +0.000 N 
ATOM     17  C   UNL     1      48.762   6.480  16.639  0.00  0.00    +0.000 C 
ATOM     18  O   UNL     1      48.185   6.307  17.708  0.00  0.00    +0.000 OA
ATOM     19  H   UNL     1      48.836   6.119  14.621  0.00  0.00    +0.000 HD
BRANCH  17  20
ATOM     20  C   UNL     1      49.904   7.403  16.521  0.00  0.00    +0.000 A 
ATOM     21  C   UNL     1      51.190   6.902  16.381  0.00  0.00    +0.000 A 
ATOM     22  S   UNL     1      52.380   8.118  16.230  0.00  0.00    +0.000 S 
ATOM     23  C   UNL     1      51.226   9.353  16.411  0.00  0.00    +0.000 A 
ATOM     24  N   UNL     1      51.595  10.663  16.418  0.00  0.00    +0.000 NA
ATOM     25  C   UNL     1      50.623  11.491  16.613  0.00  0.00    +0.000 A 
ATOM     26  N   UNL     1      49.313  11.128  16.787  0.00  0.00    +0.000 N 
ATOM     27  C   UNL     1      48.885   9.829  16.689  0.00  0.00    +0.000 A 
ATOM     28  O   UNL     1      47.689   9.564  16.681  0.00  0.00    +0.000 OA
ATOM     29  C   UNL     1      49.945   8.849  16.541  0.00  0.00    +0.000 A 
ATOM     30  H   UNL     1      48.595  11.829  16.896  0.00  0.00    +0.000 HD
ENDBRANCH  17  20
ENDBRANCH   1  16
BRANCH   1  31
ATOM     31  C   UNL     1      47.710   3.445  15.522  0.00  0.00    +0.000 C 
BRANCH  31  32
ATOM     32  O   UNL     1      47.258   2.909  16.768  0.00  0.00    +0.000 OA
BRANCH  32  33
ATOM     33  C   UNL     1      48.314   2.907  17.738  0.00  0.00    +0.000 C 
BRANCH  33  34
ATOM     34  C   UNL     1      49.659   2.807  17.017  0.00  0.00    +0.000 C 
BRANCH  34  35
ATOM     35  N   UNL     1      49.749   1.567  16.238  0.00  0.00    +0.000 NA
ATOM     36  H   UNL     1      48.828   1.136  16.191  0.00  0.00    +0.000 HD
ATOM     37  H   UNL     1      50.337   0.920  16.771  0.00  0.00    +0.000 HD
ENDBRANCH  34  35
ENDBRANCH  33  34
ENDBRANCH  32  33
ENDBRANCH  31  32
ENDBRANCH   1  31
TORSDOF 11
ENDMDL
MODEL 9
REMARK VINA RESULT:    -6.157      3.441      6.414
REMARK INTER + INTRA:         -11.142
REMARK INTER:                  -9.587
REMARK INTRA:                  -1.555
REMARK UNBOUND:                -1.205
REMARK  Name = 
REMARK  11 active torsions:
REMARK  status: ('A' for Active; 'I' for Inactive)
REMARK    1  A    between atoms: N_1  and  C_2
REMARK    2  A    between atoms: C_2  and  C_3
REMARK    3  A    between atoms: C_3  and  O_4
REMARK    4  A    between atoms: O_4  and  C_5
REMARK    5  A    between atoms: C_5  and  C_6
REMARK    6  A    between atoms: C_6  and  N_7
REMARK    7  A    between atoms: C_6  and  C_20
REMARK    8  A    between atoms: C_8  and  C_10
REMARK    9  A    between atoms: C_23  and  O_24
REMARK   10  A    between atoms: O_24  and  C_25
REMARK   11  A    between atoms: C_25  and  C_26
REMARK                            x       y       z     vdW  Elec       q    Type
REMARK                         _______ _______ _______ _____ _____    ______ ____
ROOT
ATOM      1  C   UNL     1      50.199   7.223  17.326  0.00  0.00    +0.000 C 
ENDROOT
BRANCH   1   2
ATOM      2  C   UNL     1      49.525   6.880  16.006  0.00  0.00    +0.000 A 
ATOM      3  C   UNL     1      48.449   5.988  15.944  0.00  0.00    +0.000 A 
ATOM      4  C   UNL     1      47.787   5.767  14.730  0.00  0.00    +0.000 A 
ATOM      5  C   UNL     1      48.178   6.452  13.579  0.00  0.00    +0.000 A 
ATOM      6  C   UNL     1      49.298   7.275  13.616  0.00  0.00    +0.000 A 
ATOM      7  C   UNL     1      49.961   7.486  14.817  0.00  0.00    +0.000 A 
BRANCH   5   8
ATOM      8  O   UNL     1      47.405   6.272  12.463  0.00  0.00    +0.000 OA
BRANCH   8   9
ATOM      9  C   UNL     1      46.166   6.999  12.497  0.00  0.00    +0.000 C 
BRANCH   9  10
ATOM     10  C   UNL     1      44.990   6.127  12.134  0.00  0.00    +0.000 A 
ATOM     11  C   UNL     1      44.864   5.591  10.855  0.00  0.00    +0.000 A 
ATOM     12  C   UNL     1      43.803   4.732  10.588  0.00  0.00    +0.000 A 
ATOM     13  C   UNL     1      42.911   4.418  11.604  0.00  0.00    +0.000 A 
ATOM     14  C   UNL     1      43.116   4.975  12.854  0.00  0.00    +0.000 A 
ATOM     15  N   UNL     1      44.134   5.815  13.142  0.00  0.00    +0.000 NA
ENDBRANCH   9  10
ENDBRANCH   8   9
ENDBRANCH   5   8
ENDBRANCH   1   2
BRANCH   1  16
ATOM     16  N   UNL     1      51.031   6.099  17.746  0.00  0.00    +0.000 N 
ATOM     17  C   UNL     1      52.264   5.821  17.224  0.00  0.00    +0.000 C 
ATOM     18  O   UNL     1      52.840   6.564  16.435  0.00  0.00    +0.000 OA
ATOM     19  H   UNL     1      50.551   5.370  18.256  0.00  0.00    +0.000 HD
BRANCH  17  20
ATOM     20  C   UNL     1      52.892   4.581  17.712  0.00  0.00    +0.000 A 
ATOM     21  C   UNL     1      54.184   4.608  18.216  0.00  0.00    +0.000 A 
ATOM     22  S   UNL     1      54.733   3.085  18.760  0.00  0.00    +0.000 S 
ATOM     23  C   UNL     1      53.288   2.327  18.282  0.00  0.00    +0.000 A 
ATOM     24  N   UNL     1      53.116   0.985  18.431  0.00  0.00    +0.000 NA
ATOM     25  C   UNL     1      51.991   0.537  17.982  0.00  0.00    +0.000 A 
ATOM     26  N   UNL     1      51.018   1.311  17.409  0.00  0.00    +0.000 N 
ATOM     27  C   UNL     1      51.108   2.677  17.329  0.00  0.00    +0.000 A 
ATOM     28  O   UNL     1      50.149   3.347  16.967  0.00  0.00    +0.000 OA
ATOM     29  C   UNL     1      52.381   3.228  17.756  0.00  0.00    +0.000 A 
ATOM     30  H   UNL     1      50.143   0.903  17.113  0.00  0.00    +0.000 HD
ENDBRANCH  17  20
ENDBRANCH   1  16
BRANCH   1  31
ATOM     31  C   UNL     1      49.125   7.529  18.396  0.00  0.00    +0.000 C 
BRANCH  31  32
ATOM     32  O   UNL     1      49.305   6.702  19.548  0.00  0.00    +0.000 OA
BRANCH  32  33
ATOM     33  C   UNL     1      48.104   5.984  19.857  0.00  0.00    +0.000 C 
BRANCH  33  34
ATOM     34  C   UNL     1      48.385   4.999  20.992  0.00  0.00    +0.000 C 
BRANCH  34  35
ATOM     35  N   UNL     1      48.417   3.618  20.498  0.00  0.00    +0.000 NA
ATOM     36  H   UNL     1      47.784   3.050  21.056  0.00  0.00    +0.000 HD
ATOM     37  H   UNL     1      49.357   3.256  20.679  0.00  0.00    +0.000 HD
ENDBRANCH  34  35
ENDBRANCH  33  34
ENDBRANCH  32  33
ENDBRANCH  31  32
ENDBRANCH   1  31
TORSDOF 11
ENDMDL
