MODEL 1
REMARK VINA RESULT:    -8.270      0.000      0.000
REMARK INTER + INTRA:         -13.319
REMARK INTER:                 -12.137
REMARK INTRA:                  -1.182
REMARK UNBOUND:                -1.182
REMARK  Name = 
REMARK  10 active torsions:
REMARK  status: ('A' for Active; 'I' for Inactive)
REMARK    1  A    between atoms: C_1  and  O_2
REMARK    2  A    between atoms: O_2  and  C_3
REMARK    3  A    between atoms: C_10  and  C_11
REMARK    4  A    between atoms: N_13  and  C_14
REMARK    5  A    between atoms: C_14  and  C_15
REMARK    6  A    between atoms: C_18  and  C_19
REMARK    7  A    between atoms: C_19  and  C_20
REMARK    8  A    between atoms: C_19  and  N_21
REMARK    9  A    between atoms: N_21  and  C_22
REMARK   10  A    between atoms: C_22  and  C_23
REMARK                            x       y       z     vdW  Elec       q    Type
REMARK                         _______ _______ _______ _____ _____    ______ ____
ROOT
ATOM      1  C   UNL     1      47.292   6.262  13.075  0.00  0.00    +0.000 A 
ATOM      2  C   UNL     1      46.730   5.130  13.679  0.00  0.00    +0.000 A 
ATOM      3  C   UNL     1      45.639   4.478  13.094  0.00  0.00    +0.000 A 
ATOM      4  C   UNL     1      45.094   4.936  11.885  0.00  0.00    +0.000 A 
ATOM      5  C   UNL     1      45.689   6.044  11.262  0.00  0.00    +0.000 A 
ATOM      6  C   UNL     1      46.778   6.694  11.846  0.00  0.00    +0.000 A 
ENDROOT
BRANCH   4   7
ATOM      7  C   UNL     1      43.893   4.229  11.273  0.00  0.00    +0.000 C 
ATOM      8  C   UNL     1      42.639   5.104  11.403  0.00  0.00    +0.000 C 
BRANCH   7   9
ATOM      9  N   UNL     1      44.076   3.878   9.858  0.00  0.00    +0.000 NA
ATOM     10  H   UNL     1      44.729   4.530   9.425  0.00  0.00    +0.000 HD
BRANCH   9  11
ATOM     11  C   UNL     1      44.604   2.518   9.677  0.00  0.00    +0.000 C 
BRANCH  11  12
ATOM     12  C   UNL     1      45.573   2.432   8.511  0.00  0.00    +0.000 A 
ATOM     13  C   UNL     1      45.808   3.548   7.711  0.00  0.00    +0.000 A 
ATOM     14  C   UNL     1      46.707   3.441   6.654  0.00  0.00    +0.000 A 
ATOM     15  C   UNL     1      47.344   2.228   6.424  0.00  0.00    +0.000 A 
ATOM     16  C   UNL     1      47.058   1.168   7.267  0.00  0.00    +0.000 A 
ATOM     17  N   UNL     1      46.191   1.242   8.301  0.00  0.00    +0.000 NA
ENDBRANCH  11  12
ENDBRANCH   9  11
ENDBRANCH   7   9
ENDBRANCH   4   7
BRANCH   1  18
ATOM     18  C   UNL     1      48.445   6.988  13.717  0.00  0.00    +0.000 C 
BRANCH  18  21
ATOM     19  C   UNL     1      49.079   6.818  16.087  0.00  0.00    +0.000 C 
ATOM     20  O   UNL     1      50.124   6.237  15.797  0.00  0.00    +0.000 OA
ATOM     21  N   UNL     1      48.201   7.222  15.115  0.00  0.00    +0.000 N 
ATOM     22  H   UNL     1      47.330   7.668  15.369  0.00  0.00    +0.000 HD
BRANCH  19  30
ATOM     23  C   UNL     1      48.820   4.860  18.905  0.00  0.00    +0.000 A 
ATOM     24  N   UNL     1      48.680   4.346  20.142  0.00  0.00    +0.000 NA
ATOM     25  C   UNL     1      48.329   5.175  21.130  0.00  0.00    +0.000 A 
ATOM     26  N   UNL     1      48.090   6.480  21.034  0.00  0.00    +0.000 NA
ATOM     27  C   UNL     1      48.254   6.953  19.787  0.00  0.00    +0.000 A 
ATOM     28  S   UNL     1      47.982   8.600  19.472  0.00  0.00    +0.000 S 
ATOM     29  C   UNL     1      48.375   8.402  17.831  0.00  0.00    +0.000 A 
ATOM     30  C   UNL     1      48.717   7.101  17.486  0.00  0.00    +0.000 A 
ATOM     31  C   UNL     1      48.629   6.231  18.659  0.00  0.00    +0.000 A 
BRANCH  23  33
ATOM     32  C   UNL     1      48.085   3.366  17.257  0.00  0.00    +0.000 C 
ATOM     33  O   UNL     1      49.190   4.010  17.886  0.00  0.00    +0.000 OA
ENDBRANCH  23  33
ENDBRANCH  19  30
ENDBRANCH  18  21
ENDBRANCH   1  18
TORSDOF 8
ENDMDL
MODEL 2
REMARK VINA RESULT:    -8.263      2.345      2.810
REMARK INTER + INTRA:         -13.309
REMARK INTER:                 -12.118
REMARK INTRA:                  -1.191
REMARK UNBOUND:                -1.182
REMARK  Name = 
REMARK  10 active torsions:
REMARK  status: ('A' for Active; 'I' for Inactive)
REMARK    1  A    between atoms: C_1  and  O_2
REMARK    2  A    between atoms: O_2  and  C_3
REMARK    3  A    between atoms: C_10  and  C_11
REMARK    4  A    between atoms: N_13  and  C_14
REMARK    5  A    between atoms: C_14  and  C_15
REMARK    6  A    between atoms: C_18  and  C_19
REMARK    7  A    between atoms: C_19  and  C_20
REMARK    8  A    between atoms: C_19  and  N_21
REMARK    9  A    between atoms: N_21  and  C_22
REMARK   10  A    between atoms: C_22  and  C_23
REMARK                            x       y       z     vdW  Elec       q    Type
REMARK                         _______ _______ _______ _____ _____    ______ ____
ROOT
ATOM      1  C   UNL     1      47.452   6.338  13.962  0.00  0.00    +0.000 A 
ATOM      2  C   UNL     1      47.138   5.028  14.346  0.00  0.00    +0.000 A 
ATOM      3  C   UNL     1      46.230   4.267  13.603  0.00  0.00    +0.000 A 
ATOM      4  C   UNL     1      45.625   4.795  12.452  0.00  0.00    +0.000 A 
ATOM      5  C   UNL     1      45.978   6.092  12.048  0.00  0.00    +0.000 A 
ATOM      6  C   UNL     1      46.885   6.851  12.790  0.00  0.00    +0.000 A 
ENDROOT
BRANCH   4   7
ATOM      7  C   UNL     1      44.621   3.962  11.667  0.00  0.00    +0.000 C 
ATOM      8  C   UNL     1      43.865   4.845  10.666  0.00  0.00    +0.000 C 
BRANCH   7   9
ATOM      9  N   UNL     1      45.231   2.842  10.938  0.00  0.00    +0.000 NA
ATOM     10  H   UNL     1      45.186   1.997  11.506  0.00  0.00    +0.000 HD
BRANCH   9  11
ATOM     11  C   UNL     1      44.560   2.567   9.659  0.00  0.00    +0.000 C 
BRANCH  11  12
ATOM     12  C   UNL     1      45.551   2.387   8.522  0.00  0.00    +0.000 A 
ATOM     13  C   UNL     1      45.843   3.452   7.672  0.00  0.00    +0.000 A 
ATOM     14  C   UNL     1      46.760   3.258   6.643  0.00  0.00    +0.000 A 
ATOM     15  C   UNL     1      47.356   2.013   6.488  0.00  0.00    +0.000 A 
ATOM     16  C   UNL     1      47.013   1.008   7.377  0.00  0.00    +0.000 A 
ATOM     17  N   UNL     1      46.128   1.166   8.386  0.00  0.00    +0.000 NA
ENDBRANCH  11  12
ENDBRANCH   9  11
ENDBRANCH   7   9
ENDBRANCH   4   7
BRANCH   1  18
ATOM     18  C   UNL     1      48.405   7.175  14.778  0.00  0.00    +0.000 C 
BRANCH  18  21
ATOM     19  C   UNL     1      49.459   6.102  16.722  0.00  0.00    +0.000 C 
ATOM     20  O   UNL     1      48.598   6.553  17.476  0.00  0.00    +0.000 OA
ATOM     21  N   UNL     1      49.429   6.363  15.377  0.00  0.00    +0.000 N 
ATOM     22  H   UNL     1      50.162   6.014  14.774  0.00  0.00    +0.000 HD
BRANCH  19  30
ATOM     23  C   UNL     1      49.949   2.702  16.941  0.00  0.00    +0.000 A 
ATOM     24  N   UNL     1      50.408   1.446  17.108  0.00  0.00    +0.000 NA
ATOM     25  C   UNL     1      51.623   1.288  17.639  0.00  0.00    +0.000 A 
ATOM     26  N   UNL     1      52.455   2.246  18.039  0.00  0.00    +0.000 NA
ATOM     27  C   UNL     1      51.963   3.482  17.842  0.00  0.00    +0.000 A 
ATOM     28  S   UNL     1      52.885   4.833  18.301  0.00  0.00    +0.000 S 
ATOM     29  C   UNL     1      51.679   5.901  17.760  0.00  0.00    +0.000 A 
ATOM     30  C   UNL     1      50.564   5.268  17.225  0.00  0.00    +0.000 A 
ATOM     31  C   UNL     1      50.732   3.817  17.289  0.00  0.00    +0.000 A 
BRANCH  23  33
ATOM     32  C   UNL     1      47.650   2.892  17.349  0.00  0.00    +0.000 C 
ATOM     33  O   UNL     1      48.700   2.870  16.385  0.00  0.00    +0.000 OA
ENDBRANCH  23  33
ENDBRANCH  19  30
ENDBRANCH  18  21
ENDBRANCH   1  18
TORSDOF 8
ENDMDL
MODEL 3
REMARK VINA RESULT:    -7.937      2.106      2.653
REMARK INTER + INTRA:         -12.831
REMARK INTER:                 -11.518
REMARK INTRA:                  -1.313
REMARK UNBOUND:                -1.182
REMARK  Name = 
REMARK  10 active torsions:
REMARK  status: ('A' for Active; 'I' for Inactive)
REMARK    1  A    between atoms: C_1  and  O_2
REMARK    2  A    between atoms: O_2  and  C_3
REMARK    3  A    between atoms: C_10  and  C_11
REMARK    4  A    between atoms: N_13  and  C_14
REMARK    5  A    between atoms: C_14  and  C_15
REMARK    6  A    between atoms: C_18  and  C_19
REMARK    7  A    between atoms: C_19  and  C_20
REMARK    8  A    between atoms: C_19  and  N_21
REMARK    9  A    between atoms: N_21  and  C_22
REMARK   10  A    between atoms: C_22  and  C_23
REMARK                            x       y       z     vdW  Elec       q    Type
REMARK                         _______ _______ _______ _____ _____    ______ ____
ROOT
ATOM      1  C   UNL     1      47.485   6.726  12.646  0.00  0.00    +0.000 A 
ATOM      2  C   UNL     1      46.576   6.883  11.592  0.00  0.00    +0.000 A 
ATOM      3  C   UNL     1      45.590   5.920  11.352  0.00  0.00    +0.000 A 
ATOM      4  C   UNL     1      45.484   4.784  12.168  0.00  0.00    +0.000 A 
ATOM      5  C   UNL     1      46.369   4.654  13.250  0.00  0.00    +0.000 A 
ATOM      6  C   UNL     1      47.352   5.616  13.490  0.00  0.00    +0.000 A 
ENDROOT
BRANCH   4   7
ATOM      7  C   UNL     1      44.420   3.734  11.880  0.00  0.00    +0.000 C 
ATOM      8  C   UNL     1      43.247   4.363  11.117  0.00  0.00    +0.000 C 
BRANCH   7   9
ATOM      9  N   UNL     1      44.921   2.588  11.108  0.00  0.00    +0.000 NA
ATOM     10  H   UNL     1      44.703   1.722  11.600  0.00  0.00    +0.000 HD
BRANCH   9  11
ATOM     11  C   UNL     1      44.331   2.510   9.764  0.00  0.00    +0.000 C 
BRANCH  11  12
ATOM     12  C   UNL     1      45.391   2.480   8.676  0.00  0.00    +0.000 A 
ATOM     13  C   UNL     1      45.711   3.642   7.977  0.00  0.00    +0.000 A 
ATOM     14  C   UNL     1      46.691   3.585   6.990  0.00  0.00    +0.000 A 
ATOM     15  C   UNL     1      47.321   2.375   6.728  0.00  0.00    +0.000 A 
ATOM     16  C   UNL     1      46.947   1.267   7.469  0.00  0.00    +0.000 A 
ATOM     17  N   UNL     1      46.001   1.292   8.433  0.00  0.00    +0.000 NA
ENDBRANCH  11  12
ENDBRANCH   9  11
ENDBRANCH   7   9
ENDBRANCH   4   7
BRANCH   1  18
ATOM     18  C   UNL     1      48.569   7.744  12.890  0.00  0.00    +0.000 C 
BRANCH  18  21
ATOM     19  C   UNL     1      49.782   7.559  15.020  0.00  0.00    +0.000 C 
ATOM     20  O   UNL     1      49.023   8.365  15.556  0.00  0.00    +0.000 OA
ATOM     21  N   UNL     1      49.620   7.201  13.708  0.00  0.00    +0.000 N 
ATOM     22  H   UNL     1      50.271   6.562  13.270  0.00  0.00    +0.000 HD
BRANCH  19  30
ATOM     23  C   UNL     1      49.981   5.053  17.371  0.00  0.00    +0.000 A 
ATOM     24  N   UNL     1      50.344   4.104  18.255  0.00  0.00    +0.000 NA
ATOM     25  C   UNL     1      51.643   3.976  18.541  0.00  0.00    +0.000 A 
ATOM     26  N   UNL     1      52.647   4.697  18.049  0.00  0.00    +0.000 NA
ATOM     27  C   UNL     1      52.242   5.622  17.162  0.00  0.00    +0.000 A 
ATOM     28  S   UNL     1      53.388   6.644  16.435  0.00  0.00    +0.000 S 
ATOM     29  C   UNL     1      52.184   7.433  15.532  0.00  0.00    +0.000 A 
ATOM     30  C   UNL     1      50.902   6.947  15.756  0.00  0.00    +0.000 A 
ATOM     31  C   UNL     1      50.938   5.871  16.745  0.00  0.00    +0.000 A 
BRANCH  23  33
ATOM     32  C   UNL     1      47.843   5.560  18.185  0.00  0.00    +0.000 C 
ATOM     33  O   UNL     1      48.644   5.182  17.067  0.00  0.00    +0.000 OA
ENDBRANCH  23  33
ENDBRANCH  19  30
ENDBRANCH  18  21
ENDBRANCH   1  18
TORSDOF 8
ENDMDL
MODEL 4
REMARK VINA RESULT:    -7.198      1.485      1.979
REMARK INTER + INTRA:         -11.745
REMARK INTER:                 -10.342
REMARK INTRA:                  -1.403
REMARK UNBOUND:                -1.182
REMARK  Name = 
REMARK  10 active torsions:
REMARK  status: ('A' for Active; 'I' for Inactive)
REMARK    1  A    between atoms: C_1  and  O_2
REMARK    2  A    between atoms: O_2  and  C_3
REMARK    3  A    between atoms: C_10  and  C_11
REMARK    4  A    between atoms: N_13  and  C_14
REMARK    5  A    between atoms: C_14  and  C_15
REMARK    6  A    between atoms: C_18  and  C_19
REMARK    7  A    between atoms: C_19  and  C_20
REMARK    8  A    between atoms: C_19  and  N_21
REMARK    9  A    between atoms: N_21  and  C_22
REMARK   10  A    between atoms: C_22  and  C_23
REMARK                            x       y       z     vdW  Elec       q    Type
REMARK                         _______ _______ _______ _____ _____    ______ ____
ROOT
ATOM      1  C   UNL     1      46.740   4.538  13.906  0.00  0.00    +0.000 A 
ATOM      2  C   UNL     1      45.883   5.632  13.727  0.00  0.00    +0.000 A 
ATOM      3  C   UNL     1      44.741   5.518  12.926  0.00  0.00    +0.000 A 
ATOM      4  C   UNL     1      44.425   4.304  12.296  0.00  0.00    +0.000 A 
ATOM      5  C   UNL     1      45.264   3.201  12.516  0.00  0.00    +0.000 A 
ATOM      6  C   UNL     1      46.403   3.315  13.316  0.00  0.00    +0.000 A 
ENDROOT
BRANCH   4   7
ATOM      7  C   UNL     1      43.192   4.203  11.410  0.00  0.00    +0.000 C 
ATOM      8  C   UNL     1      42.562   5.588  11.218  0.00  0.00    +0.000 C 
BRANCH   7   9
ATOM      9  N   UNL     1      43.466   3.625  10.087  0.00  0.00    +0.000 NA
ATOM     10  H   UNL     1      42.607   3.599   9.539  0.00  0.00    +0.000 HD
BRANCH   9  11
ATOM     11  C   UNL     1      44.466   4.392   9.331  0.00  0.00    +0.000 C 
BRANCH  11  12
ATOM     12  C   UNL     1      45.362   3.493   8.496  0.00  0.00    +0.000 A 
ATOM     13  C   UNL     1      45.510   2.148   8.825  0.00  0.00    +0.000 A 
ATOM     14  C   UNL     1      46.333   1.348   8.038  0.00  0.00    +0.000 A 
ATOM     15  C   UNL     1      46.985   1.910   6.947  0.00  0.00    +0.000 A 
ATOM     16  C   UNL     1      46.783   3.255   6.686  0.00  0.00    +0.000 A 
ATOM     17  N   UNL     1      45.990   4.056   7.431  0.00  0.00    +0.000 NA
ENDBRANCH  11  12
ENDBRANCH   9  11
ENDBRANCH   7   9
ENDBRANCH   4   7
BRANCH   1  18
ATOM     18  C   UNL     1      47.989   4.664  14.741  0.00  0.00    +0.000 C 
BRANCH  18  21
ATOM     19  C   UNL     1      48.855   6.627  15.940  0.00  0.00    +0.000 C 
ATOM     20  O   UNL     1      49.907   6.589  15.305  0.00  0.00    +0.000 OA
ATOM     21  N   UNL     1      47.860   5.712  15.716  0.00  0.00    +0.000 N 
ATOM     22  H   UNL     1      47.013   5.735  16.270  0.00  0.00    +0.000 HD
BRANCH  19  30
ATOM     23  C   UNL     1      47.826   6.478  19.221  0.00  0.00    +0.000 A 
ATOM     24  N   UNL     1      47.484   6.701  20.505  0.00  0.00    +0.000 NA
ATOM     25  C   UNL     1      47.473   7.964  20.940  0.00  0.00    +0.000 A 
ATOM     26  N   UNL     1      47.760   9.057  20.238  0.00  0.00    +0.000 NA
ATOM     27  C   UNL     1      48.108   8.787  18.968  0.00  0.00    +0.000 A 
ATOM     28  S   UNL     1      48.501  10.063  17.918  0.00  0.00    +0.000 S 
ATOM     29  C   UNL     1      48.803   8.984  16.641  0.00  0.00    +0.000 A 
ATOM     30  C   UNL     1      48.616   7.649  16.974  0.00  0.00    +0.000 A 
ATOM     31  C   UNL     1      48.186   7.535  18.367  0.00  0.00    +0.000 A 
BRANCH  23  33
ATOM     32  C   UNL     1      48.836   4.372  19.412  0.00  0.00    +0.000 C 
ATOM     33  O   UNL     1      47.848   5.175  18.771  0.00  0.00    +0.000 OA
ENDBRANCH  23  33
ENDBRANCH  19  30
ENDBRANCH  18  21
ENDBRANCH   1  18
TORSDOF 8
ENDMDL
MODEL 5
REMARK VINA RESULT:    -6.805      2.070      2.728
REMARK INTER + INTRA:         -11.169
REMARK INTER:                 -10.320
REMARK INTRA:                  -0.848
REMARK UNBOUND:                -1.182
REMARK  Name = 
REMARK  10 active torsions:
REMARK  status: ('A' for Active; 'I' for Inactive)
REMARK    1  A    between atoms: C_1  and  O_2
REMARK    2  A    between atoms: O_2  and  C_3
REMARK    3  A    between atoms: C_10  and  C_11
REMARK    4  A    between atoms: N_13  and  C_14
REMARK    5  A    between atoms: C_14  and  C_15
REMARK    6  A    between atoms: C_18  and  C_19
REMARK    7  A    between atoms: C_19  and  C_20
REMARK    8  A    between atoms: C_19  and  N_21
REMARK    9  A    between atoms: N_21  and  C_22
REMARK   10  A    between atoms: C_22  and  C_23
REMARK                            x       y       z     vdW  Elec       q    Type
REMARK                         _______ _______ _______ _____ _____    ______ ____
ROOT
ATOM      1  C   UNL     1      47.174   6.069  13.543  0.00  0.00    +0.000 A 
ATOM      2  C   UNL     1      47.221   4.704  13.856  0.00  0.00    +0.000 A 
ATOM      3  C   UNL     1      46.286   3.817  13.311  0.00  0.00    +0.000 A 
ATOM      4  C   UNL     1      45.293   4.273  12.431  0.00  0.00    +0.000 A 
ATOM      5  C   UNL     1      45.280   5.633  12.087  0.00  0.00    +0.000 A 
ATOM      6  C   UNL     1      46.213   6.518  12.631  0.00  0.00    +0.000 A 
ENDROOT
BRANCH   4   7
ATOM      7  C   UNL     1      44.270   3.298  11.865  0.00  0.00    +0.000 C 
ATOM      8  C   UNL     1      43.025   4.054  11.385  0.00  0.00    +0.000 C 
BRANCH   7   9
ATOM      9  N   UNL     1      44.785   2.488  10.753  0.00  0.00    +0.000 NA
ATOM     10  H   UNL     1      44.332   1.574  10.755  0.00  0.00    +0.000 HD
BRANCH   9  11
ATOM     11  C   UNL     1      44.548   3.110   9.442  0.00  0.00    +0.000 C 
BRANCH  11  12
ATOM     12  C   UNL     1      45.530   2.621   8.392  0.00  0.00    +0.000 A 
ATOM     13  C   UNL     1      45.896   3.450   7.334  0.00  0.00    +0.000 A 
ATOM     14  C   UNL     1      46.803   2.977   6.391  0.00  0.00    +0.000 A 
ATOM     15  C   UNL     1      47.317   1.694   6.526  0.00  0.00    +0.000 A 
ATOM     16  C   UNL     1      46.905   0.934   7.607  0.00  0.00    +0.000 A 
ATOM     17  N   UNL     1      46.027   1.366   8.539  0.00  0.00    +0.000 NA
ENDBRANCH  11  12
ENDBRANCH   9  11
ENDBRANCH   7   9
ENDBRANCH   4   7
BRANCH   1  18
ATOM     18  C   UNL     1      48.158   7.035  14.153  0.00  0.00    +0.000 C 
BRANCH  18  21
ATOM     19  C   UNL     1      49.724   7.142  16.045  0.00  0.00    +0.000 C 
ATOM     20  O   UNL     1      50.235   8.170  15.603  0.00  0.00    +0.000 OA
ATOM     21  N   UNL     1      48.693   6.525  15.386  0.00  0.00    +0.000 N 
ATOM     22  H   UNL     1      48.305   5.662  15.743  0.00  0.00    +0.000 HD
BRANCH  19  30
ATOM     23  C   UNL     1      50.657   8.402  19.109  0.00  0.00    +0.000 A 
ATOM     24  N   UNL     1      51.032   8.618  20.384  0.00  0.00    +0.000 NA
ATOM     25  C   UNL     1      51.351   7.557  21.132  0.00  0.00    +0.000 A 
ATOM     26  N   UNL     1      51.347   6.281  20.756  0.00  0.00    +0.000 NA
ATOM     27  C   UNL     1      50.955   6.111  19.482  0.00  0.00    +0.000 A 
ATOM     28  S   UNL     1      50.897   4.546  18.824  0.00  0.00    +0.000 S 
ATOM     29  C   UNL     1      50.349   5.140  17.330  0.00  0.00    +0.000 A 
ATOM     30  C   UNL     1      50.198   6.521  17.294  0.00  0.00    +0.000 A 
ATOM     31  C   UNL     1      50.576   7.102  18.582  0.00  0.00    +0.000 A 
BRANCH  23  33
ATOM     32  C   UNL     1      51.395  10.409  18.150  0.00  0.00    +0.000 C 
ATOM     33  O   UNL     1      50.319   9.493  18.337  0.00  0.00    +0.000 OA
ENDBRANCH  23  33
ENDBRANCH  19  30
ENDBRANCH  18  21
ENDBRANCH   1  18
TORSDOF 8
ENDMDL
MODEL 6
REMARK VINA RESULT:    -6.732      3.693      4.561
REMARK INTER + INTRA:         -11.062
REMARK INTER:                  -9.966
REMARK INTRA:                  -1.097
REMARK UNBOUND:                -1.182
REMARK  Name = 
REMARK  10 active torsions:
REMARK  status: ('A' for Active; 'I' for Inactive)
REMARK    1  A    between atoms: C_1  and  O_2
REMARK    2  A    between atoms: O_2  and  C_3
REMARK    3  A    between atoms: C_10  and  C_11
REMARK    4  A    between atoms: N_13  and  C_14
REMARK    5  A    between atoms: C_14  and  C_15
REMARK    6  A    between atoms: C_18  and  C_19
REMARK    7  A    between atoms: C_19  and  C_20
REMARK    8  A    between atoms: C_19  and  N_21
REMARK    9  A    between atoms: N_21  and  C_22
REMARK   10  A    between atoms: C_22  and  C_23
REMARK                            x       y       z     vdW  Elec       q    Type
REMARK                         _______ _______ _______ _____ _____    ______ ____
ROOT
ATOM      1  C   UNL     1      46.205   7.412  12.772  0.00  0.00    +0.000 A 
ATOM      2  C   UNL     1      46.771   6.218  13.237  0.00  0.00    +0.000 A 
ATOM      3  C   UNL     1      46.276   4.982  12.809  0.00  0.00    +0.000 A 
ATOM      4  C   UNL     1      45.211   4.912  11.897  0.00  0.00    +0.000 A 
ATOM      5  C   UNL     1      44.678   6.112  11.402  0.00  0.00    +0.000 A 
ATOM      6  C   UNL     1      45.173   7.346  11.829  0.00  0.00    +0.000 A 
ENDROOT
BRANCH   4   7
ATOM      7  C   UNL     1      44.670   3.559  11.460  0.00  0.00    +0.000 C 
ATOM      8  C   UNL     1      43.431   3.190  12.287  0.00  0.00    +0.000 C 
BRANCH   7   9
ATOM      9  N   UNL     1      44.317   3.501  10.034  0.00  0.00    +0.000 NA
ATOM     10  H   UNL     1      44.877   4.177   9.515  0.00  0.00    +0.000 HD
BRANCH   9  11
ATOM     11  C   UNL     1      44.548   2.173   9.448  0.00  0.00    +0.000 C 
BRANCH  11  12
ATOM     12  C   UNL     1      45.617   2.203   8.370  0.00  0.00    +0.000 A 
ATOM     13  C   UNL     1      45.813   3.354   7.608  0.00  0.00    +0.000 A 
ATOM     14  C   UNL     1      46.805   3.353   6.632  0.00  0.00    +0.000 A 
ATOM     15  C   UNL     1      47.570   2.210   6.441  0.00  0.00    +0.000 A 
ATOM     16  C   UNL     1      47.315   1.110   7.241  0.00  0.00    +0.000 A 
ATOM     17  N   UNL     1      46.360   1.080   8.196  0.00  0.00    +0.000 NA
ENDBRANCH  11  12
ENDBRANCH   9  11
ENDBRANCH   7   9
ENDBRANCH   4   7
BRANCH   1  18
ATOM     18  C   UNL     1      46.712   8.747  13.255  0.00  0.00    +0.000 C 
BRANCH  18  21
ATOM     19  C   UNL     1      48.848   9.688  14.027  0.00  0.00    +0.000 C 
ATOM     20  O   UNL     1      48.530  10.810  13.636  0.00  0.00    +0.000 OA
ATOM     21  N   UNL     1      48.002   8.620  13.876  0.00  0.00    +0.000 N 
ATOM     22  H   UNL     1      48.291   7.697  14.172  0.00  0.00    +0.000 HD
BRANCH  19  30
ATOM     23  C   UNL     1      51.946   8.800  12.819  0.00  0.00    +0.000 A 
ATOM     24  N   UNL     1      53.243   8.498  12.618  0.00  0.00    +0.000 NA
ATOM     25  C   UNL     1      54.045   8.436  13.684  0.00  0.00    +0.000 A 
ATOM     26  N   UNL     1      53.706   8.636  14.955  0.00  0.00    +0.000 NA
ATOM     27  C   UNL     1      52.407   8.947  15.108  0.00  0.00    +0.000 A 
ATOM     28  S   UNL     1      51.791   9.229  16.666  0.00  0.00    +0.000 S 
ATOM     29  C   UNL     1      50.239   9.537  16.050  0.00  0.00    +0.000 A 
ATOM     30  C   UNL     1      50.150   9.436  14.667  0.00  0.00    +0.000 A 
ATOM     31  C   UNL     1      51.450   9.068  14.107  0.00  0.00    +0.000 A 
BRANCH  23  33
ATOM     32  C   UNL     1      50.504   7.631  11.389  0.00  0.00    +0.000 C 
ATOM     33  O   UNL     1      51.117   8.874  11.720  0.00  0.00    +0.000 OA
ENDBRANCH  23  33
ENDBRANCH  19  30
ENDBRANCH  18  21
ENDBRANCH   1  18
TORSDOF 8
ENDMDL
MODEL 7
REMARK VINA RESULT:    -6.582      2.956      4.928
REMARK INTER + INTRA:         -10.842
REMARK INTER:                  -9.567
REMARK INTRA:                  -1.276
REMARK UNBOUND:                -1.182
REMARK  Name = 
REMARK  10 active torsions:
REMARK  status: ('A' for Active; 'I' for Inactive)
REMARK    1  A    between atoms: C_1  and  O_2
REMARK    2  A    between atoms: O_2  and  C_3
REMARK    3  A    between atoms: C_10  and  C_11
REMARK    4  A    between atoms: N_13  and  C_14
REMARK    5  A    between atoms: C_14  and  C_15
REMARK    6  A    between atoms: C_18  and  C_19
REMARK    7  A    between atoms: C_19  and  C_20
REMARK    8  A    between atoms: C_19  and  N_21
REMARK    9  A    between atoms: N_21  and  C_22
REMARK   10  A    between atoms: C_22  and  C_23
REMARK                            x       y       z     vdW  Elec       q    Type
REMARK                         _______ _______ _______ _____ _____    ______ ____
ROOT
ATOM      1  C   UNL     1      47.215   5.437  14.332  0.00  0.00    +0.000 A 
ATOM      2  C   UNL     1      47.085   4.051  14.174  0.00  0.00    +0.000 A 
ATOM      3  C   UNL     1      46.159   3.521  13.269  0.00  0.00    +0.000 A 
ATOM      4  C   UNL     1      45.351   4.366  12.493  0.00  0.00    +0.000 A 
ATOM      5  C   UNL     1      45.517   5.753  12.624  0.00  0.00    +0.000 A 
ATOM      6  C   UNL     1      46.441   6.282  13.527  0.00  0.00    +0.000 A 
ENDROOT
BRANCH   4   7
ATOM      7  C   UNL     1      44.332   3.773  11.530  0.00  0.00    +0.000 C 
ATOM      8  C   UNL     1      43.663   4.885  10.713  0.00  0.00    +0.000 C 
BRANCH   7   9
ATOM      9  N   UNL     1      44.906   2.788  10.603  0.00  0.00    +0.000 NA
ATOM     10  H   UNL     1      44.598   1.852  10.863  0.00  0.00    +0.000 HD
BRANCH   9  11
ATOM     11  C   UNL     1      44.508   3.027   9.208  0.00  0.00    +0.000 C 
BRANCH  11  12
ATOM     12  C   UNL     1      45.578   2.586   8.225  0.00  0.00    +0.000 A 
ATOM     13  C   UNL     1      45.988   3.440   7.203  0.00  0.00    +0.000 A 
ATOM     14  C   UNL     1      46.975   3.010   6.322  0.00  0.00    +0.000 A 
ATOM     15  C   UNL     1      47.525   1.745   6.482  0.00  0.00    +0.000 A 
ATOM     16  C   UNL     1      47.066   0.958   7.525  0.00  0.00    +0.000 A 
ATOM     17  N   UNL     1      46.109   1.348   8.396  0.00  0.00    +0.000 NA
ENDBRANCH  11  12
ENDBRANCH   9  11
ENDBRANCH   7   9
ENDBRANCH   4   7
BRANCH   1  18
ATOM     18  C   UNL     1      48.187   6.014  15.329  0.00  0.00    +0.000 C 
BRANCH  18  21
ATOM     19  C   UNL     1      50.154   7.444  14.970  0.00  0.00    +0.000 C 
ATOM     20  O   UNL     1      50.881   6.641  15.553  0.00  0.00    +0.000 OA
ATOM     21  N   UNL     1      48.814   7.203  14.818  0.00  0.00    +0.000 N 
ATOM     22  H   UNL     1      48.222   7.887  14.366  0.00  0.00    +0.000 HD
BRANCH  19  30
ATOM     23  C   UNL     1      49.475   9.245  12.117  0.00  0.00    +0.000 A 
ATOM     24  N   UNL     1      49.383  10.146  11.120  0.00  0.00    +0.000 NA
ATOM     25  C   UNL     1      50.172  11.222  11.173  0.00  0.00    +0.000 A 
ATOM     26  N   UNL     1      51.066  11.516  12.114  0.00  0.00    +0.000 NA
ATOM     27  C   UNL     1      51.115  10.598  13.094  0.00  0.00    +0.000 A 
ATOM     28  S   UNL     1      52.207  10.803  14.380  0.00  0.00    +0.000 S 
ATOM     29  C   UNL     1      51.685   9.364  15.117  0.00  0.00    +0.000 A 
ATOM     30  C   UNL     1      50.683   8.702  14.417  0.00  0.00    +0.000 A 
ATOM     31  C   UNL     1      50.354   9.438  13.197  0.00  0.00    +0.000 A 
BRANCH  23  33
ATOM     32  C   UNL     1      49.214   7.052  11.335  0.00  0.00    +0.000 C 
ATOM     33  O   UNL     1      48.656   8.137  12.071  0.00  0.00    +0.000 OA
ENDBRANCH  23  33
ENDBRANCH  19  30
ENDBRANCH  18  21
ENDBRANCH   1  18
TORSDOF 8
ENDMDL
MODEL 8
REMARK VINA RESULT:    -5.820      5.481      7.915
REMARK INTER + INTRA:          -9.723
REMARK INTER:                  -8.464
REMARK INTRA:                  -1.259
REMARK UNBOUND:                -1.182
REMARK  Name = 
REMARK  10 active torsions:
REMARK  status: ('A' for Active; 'I' for Inactive)
REMARK    1  A    between atoms: C_1  and  O_2
REMARK    2  A    between atoms: O_2  and  C_3
REMARK    3  A    between atoms: C_10  and  C_11
REMARK    4  A    between atoms: N_13  and  C_14
REMARK    5  A    between atoms: C_14  and  C_15
REMARK    6  A    between atoms: C_18  and  C_19
REMARK    7  A    between atoms: C_19  and  C_20
REMARK    8  A    between atoms: C_19  and  N_21
REMARK    9  A    between atoms: N_21  and  C_22
REMARK   10  A    between atoms: C_22  and  C_23
REMARK                            x       y       z     vdW  Elec       q    Type
REMARK                         _______ _______ _______ _____ _____    ______ ____
ROOT
ATOM      1  C   UNL     1      49.040   8.509  12.410  0.00  0.00    +0.000 A 
ATOM      2  C   UNL     1      48.047   9.091  13.209  0.00  0.00    +0.000 A 
ATOM      3  C   UNL     1      46.753   8.559  13.236  0.00  0.00    +0.000 A 
ATOM      4  C   UNL     1      46.427   7.426  12.474  0.00  0.00    +0.000 A 
ATOM      5  C   UNL     1      47.438   6.823  11.711  0.00  0.00    +0.000 A 
ATOM      6  C   UNL     1      48.729   7.354  11.685  0.00  0.00    +0.000 A 
ENDROOT
BRANCH   4   7
ATOM      7  C   UNL     1      45.009   6.874  12.497  0.00  0.00    +0.000 C 
ATOM      8  C   UNL     1      44.146   7.582  11.445  0.00  0.00    +0.000 C 
BRANCH   7   9
ATOM      9  N   UNL     1      44.940   5.425  12.263  0.00  0.00    +0.000 NA
ATOM     10  H   UNL     1      44.691   4.949  13.129  0.00  0.00    +0.000 HD
BRANCH   9  11
ATOM     11  C   UNL     1      43.945   5.064  11.243  0.00  0.00    +0.000 C 
BRANCH  11  12
ATOM     12  C   UNL     1      44.542   4.208  10.140  0.00  0.00    +0.000 A 
ATOM     13  C   UNL     1      45.341   4.788   9.156  0.00  0.00    +0.000 A 
ATOM     14  C   UNL     1      45.880   3.976   8.163  0.00  0.00    +0.000 A 
ATOM     15  C   UNL     1      45.608   2.614   8.175  0.00  0.00    +0.000 A 
ATOM     16  C   UNL     1      44.807   2.116   9.188  0.00  0.00    +0.000 A 
ATOM     17  N   UNL     1      44.270   2.878  10.166  0.00  0.00    +0.000 NA
ENDBRANCH  11  12
ENDBRANCH   9  11
ENDBRANCH   7   9
ENDBRANCH   4   7
BRANCH   1  18
ATOM     18  C   UNL     1      50.426   9.098  12.352  0.00  0.00    +0.000 C 
BRANCH  18  21
ATOM     19  C   UNL     1      52.286   9.003  10.747  0.00  0.00    +0.000 C 
ATOM     20  O   UNL     1      53.109   8.939  11.659  0.00  0.00    +0.000 OA
ATOM     21  N   UNL     1      50.944   9.081  11.011  0.00  0.00    +0.000 N 
ATOM     22  H   UNL     1      50.280   9.167  10.252  0.00  0.00    +0.000 HD
BRANCH  19  30
ATOM     23  C   UNL     1      53.362   6.546   8.590  0.00  0.00    +0.000 A 
ATOM     24  N   UNL     1      53.765   5.793   7.548  0.00  0.00    +0.000 NA
ATOM     25  C   UNL     1      53.976   6.403   6.379  0.00  0.00    +0.000 A 
ATOM     26  N   UNL     1      53.838   7.700   6.114  0.00  0.00    +0.000 NA
ATOM     27  C   UNL     1      53.423   8.410   7.177  0.00  0.00    +0.000 A 
ATOM     28  S   UNL     1      53.199  10.087   7.028  0.00  0.00    +0.000 S 
ATOM     29  C   UNL     1      52.708  10.215   8.650  0.00  0.00    +0.000 A 
ATOM     30  C   UNL     1      52.701   9.006   9.334  0.00  0.00    +0.000 A 
ATOM     31  C   UNL     1      53.143   7.927   8.451  0.00  0.00    +0.000 A 
BRANCH  23  33
ATOM     32  C   UNL     1      54.330   5.616  10.511  0.00  0.00    +0.000 C 
ATOM     33  O   UNL     1      53.134   5.919   9.796  0.00  0.00    +0.000 OA
ENDBRANCH  23  33
ENDBRANCH  19  30
ENDBRANCH  18  21
ENDBRANCH   1  18
TORSDOF 8
ENDMDL
MODEL 9
REMARK VINA RESULT:    -5.717      6.174      9.102
REMARK INTER + INTRA:          -9.572
REMARK INTER:                  -8.233
REMARK INTRA:                  -1.339
REMARK UNBOUND:                -1.182
REMARK  Name = 
REMARK  10 active torsions:
REMARK  status: ('A' for Active; 'I' for Inactive)
REMARK    1  A    between atoms: C_1  and  O_2
REMARK    2  A    between atoms: O_2  and  C_3
REMARK    3  A    between atoms: C_10  and  C_11
REMARK    4  A    between atoms: N_13  and  C_14
REMARK    5  A    between atoms: C_14  and  C_15
REMARK    6  A    between atoms: C_18  and  C_19
REMARK    7  A    between atoms: C_19  and  C_20
REMARK    8  A    between atoms: C_19  and  N_21
REMARK    9  A    between atoms: N_21  and  C_22
REMARK   10  A    between atoms: C_22  and  C_23
REMARK                            x       y       z     vdW  Elec       q    Type
REMARK                         _______ _______ _______ _____ _____    ______ ____
ROOT
ATOM      1  C   UNL     1      50.025   9.072  11.459  0.00  0.00    +0.000 A 
ATOM      2  C   UNL     1      49.067  10.038  11.794  0.00  0.00    +0.000 A 
ATOM      3  C   UNL     1      47.767   9.659  12.145  0.00  0.00    +0.000 A 
ATOM      4  C   UNL     1      47.400   8.305  12.182  0.00  0.00    +0.000 A 
ATOM      5  C   UNL     1      48.376   7.341  11.889  0.00  0.00    +0.000 A 
ATOM      6  C   UNL     1      49.674   7.719  11.538  0.00  0.00    +0.000 A 
ENDROOT
BRANCH   4   7
ATOM      7  C   UNL     1      45.975   7.910  12.545  0.00  0.00    +0.000 C 
ATOM      8  C   UNL     1      44.972   8.757  11.751  0.00  0.00    +0.000 C 
BRANCH   7   9
ATOM      9  N   UNL     1      45.682   6.490  12.310  0.00  0.00    +0.000 NA
ATOM     10  H   UNL     1      45.491   6.028  13.199  0.00  0.00    +0.000 HD
BRANCH   9  11
ATOM     11  C   UNL     1      44.518   6.291  11.435  0.00  0.00    +0.000 C 
BRANCH  11  12
ATOM     12  C   UNL     1      44.683   5.079  10.533  0.00  0.00    +0.000 A 
ATOM     13  C   UNL     1      45.453   5.165   9.376  0.00  0.00    +0.000 A 
ATOM     14  C   UNL     1      45.591   4.036   8.574  0.00  0.00    +0.000 A 
ATOM     15  C   UNL     1      44.958   2.857   8.945  0.00  0.00    +0.000 A 
ATOM     16  C   UNL     1      44.213   2.854  10.112  0.00  0.00    +0.000 A 
ATOM     17  N   UNL     1      44.061   3.933  10.911  0.00  0.00    +0.000 NA
ENDBRANCH  11  12
ENDBRANCH   9  11
ENDBRANCH   7   9
ENDBRANCH   4   7
BRANCH   1  18
ATOM     18  C   UNL     1      51.417   9.476  11.047  0.00  0.00    +0.000 C 
BRANCH  18  21
ATOM     19  C   UNL     1      52.925   7.846   9.991  0.00  0.00    +0.000 C 
ATOM     20  O   UNL     1      53.534   7.681  11.047  0.00  0.00    +0.000 OA
ATOM     21  N   UNL     1      51.868   8.714   9.914  0.00  0.00    +0.000 N 
ATOM     22  H   UNL     1      51.397   8.866   9.031  0.00  0.00    +0.000 HD
BRANCH  19  30
ATOM     23  C   UNL     1      53.426   8.837   6.733  0.00  0.00    +0.000 A 
ATOM     24  N   UNL     1      53.714   8.954   5.423  0.00  0.00    +0.000 NA
ATOM     25  C   UNL     1      54.067   7.850   4.758  0.00  0.00    +0.000 A 
ATOM     26  N   UNL     1      54.165   6.616   5.245  0.00  0.00    +0.000 NA
ATOM     27  C   UNL     1      53.881   6.548   6.558  0.00  0.00    +0.000 A 
ATOM     28  S   UNL     1      53.946   5.047   7.352  0.00  0.00    +0.000 S 
ATOM     29  C   UNL     1      53.508   5.757   8.832  0.00  0.00    +0.000 A 
ATOM     30  C   UNL     1      53.305   7.129   8.762  0.00  0.00    +0.000 A 
ATOM     31  C   UNL     1      53.516   7.599   7.393  0.00  0.00    +0.000 A 
BRANCH  23  33
ATOM     32  C   UNL     1      52.136  10.792   6.726  0.00  0.00    +0.000 C 
ATOM     33  O   UNL     1      53.070   9.974   7.425  0.00  0.00    +0.000 OA
ENDBRANCH  23  33
ENDBRANCH  19  30
ENDBRANCH  18  21
ENDBRANCH   1  18
TORSDOF 8
ENDMDL
