MODEL 1
REMARK VINA RESULT:    -8.684      0.000      0.000
REMARK INTER + INTRA:         -14.168
REMARK INTER:                 -12.745
REMARK INTRA:                  -1.423
REMARK UNBOUND:                -1.423
REMARK  Name = 
REMARK  9 active torsions:
REMARK  status: ('A' for Active; 'I' for Inactive)
REMARK    1  A    between atoms: C_1  and  C_2
REMARK    2  A    between atoms: C_2  and  C_3
REMARK    3  A    between atoms: C_3  and  N_4
REMARK    4  A    between atoms: C_3  and  C_17
REMARK    5  A    between atoms: C_5  and  C_7
REMARK    6  A    between atoms: C_20  and  C_21
REMARK    7  A    between atoms: C_21  and  N_22
REMARK    8  A    between atoms: N_22  and  C_23
REMARK    9  A    between atoms: C_23  and  C_24
REMARK                            x       y       z     vdW  Elec       q    Type
REMARK                         _______ _______ _______ _____ _____    ______ ____
ROOT
ATOM      1  C   UNL     1      46.686   7.951  12.866  0.00  0.00    +0.000 C 
ENDROOT
BRANCH   1   2
ATOM      2  C   UNL     1      45.852   6.795  12.327  0.00  0.00    +0.000 A 
ATOM      3  C   UNL     1      46.135   6.253  11.065  0.00  0.00    +0.000 A 
ATOM      4  C   UNL     1      45.373   5.197  10.555  0.00  0.00    +0.000 A 
ATOM      5  C   UNL     1      44.321   4.644  11.299  0.00  0.00    +0.000 A 
ATOM      6  C   UNL     1      44.040   5.177  12.563  0.00  0.00    +0.000 A 
ATOM      7  C   UNL     1      44.797   6.240  13.069  0.00  0.00    +0.000 A 
BRANCH   5   8
ATOM      8  C   UNL     1      43.497   3.500  10.751  0.00  0.00    +0.000 C 
BRANCH   8   9
ATOM      9  N   UNL     1      43.865   3.212   9.368  0.00  0.00    +0.000 NA
ATOM     10  H   UNL     1      44.432   3.982   9.011  0.00  0.00    +0.000 HD
BRANCH   9  11
ATOM     11  C   UNL     1      44.652   1.978   9.269  0.00  0.00    +0.000 C 
BRANCH  11  12
ATOM     12  C   UNL     1      45.756   2.099   8.236  0.00  0.00    +0.000 A 
ATOM     13  C   UNL     1      45.902   3.283   7.513  0.00  0.00    +0.000 A 
ATOM     14  C   UNL     1      46.900   3.368   6.548  0.00  0.00    +0.000 A 
ATOM     15  C   UNL     1      47.725   2.273   6.328  0.00  0.00    +0.000 A 
ATOM     16  C   UNL     1      47.525   1.139   7.097  0.00  0.00    +0.000 A 
ATOM     17  N   UNL     1      46.564   1.025   8.043  0.00  0.00    +0.000 NA
ENDBRANCH  11  12
ENDBRANCH   9  11
ENDBRANCH   8   9
ENDBRANCH   5   8
ENDBRANCH   1   2
BRANCH   1  18
ATOM     18  N   UNL     1      47.242   7.582  14.159  0.00  0.00    +0.000 N 
ATOM     19  C   UNL     1      48.309   6.736  14.312  0.00  0.00    +0.000 C 
ATOM     20  O   UNL     1      48.900   6.244  13.355  0.00  0.00    +0.000 OA
ATOM     21  H   UNL     1      46.728   7.893  14.978  0.00  0.00    +0.000 HD
BRANCH  19  22
ATOM     22  C   UNL     1      48.729   6.460  15.694  0.00  0.00    +0.000 A 
ATOM     23  C   UNL     1      49.582   7.335  16.352  0.00  0.00    +0.000 A 
ATOM     24  S   UNL     1      50.025   6.812  17.916  0.00  0.00    +0.000 S 
ATOM     25  C   UNL     1      49.117   5.379  17.755  0.00  0.00    +0.000 A 
ATOM     26  N   UNL     1      49.120   4.430  18.725  0.00  0.00    +0.000 NA
ATOM     27  C   UNL     1      48.424   3.377  18.445  0.00  0.00    +0.000 A 
ATOM     28  N   UNL     1      47.699   3.207  17.301  0.00  0.00    +0.000 N 
ATOM     29  C   UNL     1      47.585   4.179  16.338  0.00  0.00    +0.000 A 
ATOM     30  O   UNL     1      46.779   4.079  15.421  0.00  0.00    +0.000 OA
ATOM     31  C   UNL     1      48.429   5.342  16.556  0.00  0.00    +0.000 A 
ATOM     32  H   UNL     1      47.124   2.389  17.164  0.00  0.00    +0.000 HD
ENDBRANCH  19  22
ENDBRANCH   1  18
BRANCH   1  34
ATOM     33  C   UNL     1      45.215   9.686  11.678  0.00  0.00    +0.000 C 
ATOM     34  C   UNL     1      45.879   9.261  12.982  0.00  0.00    +0.000 C 
ENDBRANCH   1  34
TORSDOF 8
ENDMDL
MODEL 2
REMARK VINA RESULT:    -8.630      1.461      1.697
REMARK INTER + INTRA:         -14.089
REMARK INTER:                 -12.641
REMARK INTRA:                  -1.448
REMARK UNBOUND:                -1.423
REMARK  Name = 
REMARK  9 active torsions:
REMARK  status: ('A' for Active; 'I' for Inactive)
REMARK    1  A    between atoms: C_1  and  C_2
REMARK    2  A    between atoms: C_2  and  C_3
REMARK    3  A    between atoms: C_3  and  N_4
REMARK    4  A    between atoms: C_3  and  C_17
REMARK    5  A    between atoms: C_5  and  C_7
REMARK    6  A    between atoms: C_20  and  C_21
REMARK    7  A    between atoms: C_21  and  N_22
REMARK    8  A    between atoms: N_22  and  C_23
REMARK    9  A    between atoms: C_23  and  C_24
REMARK                            x       y       z     vdW  Elec       q    Type
REMARK                         _______ _______ _______ _____ _____    ______ ____
ROOT
ATOM      1  C   UNL     1      48.065   6.757  13.225  0.00  0.00    +0.000 C 
ENDROOT
BRANCH   1   2
ATOM      2  C   UNL     1      46.891   5.961  12.667  0.00  0.00    +0.000 A 
ATOM      3  C   UNL     1      46.374   6.267  11.401  0.00  0.00    +0.000 A 
ATOM      4  C   UNL     1      45.293   5.550  10.878  0.00  0.00    +0.000 A 
ATOM      5  C   UNL     1      44.711   4.498  11.601  0.00  0.00    +0.000 A 
ATOM      6  C   UNL     1      45.229   4.185  12.864  0.00  0.00    +0.000 A 
ATOM      7  C   UNL     1      46.306   4.908  13.389  0.00  0.00    +0.000 A 
BRANCH   5   8
ATOM      8  C   UNL     1      43.543   3.720  11.039  0.00  0.00    +0.000 C 
BRANCH   8   9
ATOM      9  N   UNL     1      43.764   3.396   9.632  0.00  0.00    +0.000 NA
ATOM     10  H   UNL     1      44.318   4.140   9.207  0.00  0.00    +0.000 HD
BRANCH   9  11
ATOM     11  C   UNL     1      44.497   2.134   9.482  0.00  0.00    +0.000 C 
BRANCH  11  12
ATOM     12  C   UNL     1      45.600   2.247   8.447  0.00  0.00    +0.000 A 
ATOM     13  C   UNL     1      45.813   3.458   7.789  0.00  0.00    +0.000 A 
ATOM     14  C   UNL     1      46.807   3.538   6.821  0.00  0.00    +0.000 A 
ATOM     15  C   UNL     1      47.564   2.410   6.533  0.00  0.00    +0.000 A 
ATOM     16  C   UNL     1      47.301   1.248   7.240  0.00  0.00    +0.000 A 
ATOM     17  N   UNL     1      46.342   1.139   8.187  0.00  0.00    +0.000 NA
ENDBRANCH  11  12
ENDBRANCH   9  11
ENDBRANCH   8   9
ENDBRANCH   5   8
ENDBRANCH   1   2
BRANCH   1  18
ATOM     18  N   UNL     1      47.948   6.835  14.674  0.00  0.00    +0.000 N 
ATOM     19  C   UNL     1      49.020   6.783  15.525  0.00  0.00    +0.000 C 
ATOM     20  O   UNL     1      50.176   6.693  15.121  0.00  0.00    +0.000 OA
ATOM     21  H   UNL     1      47.006   6.817  15.054  0.00  0.00    +0.000 HD
BRANCH  19  22
ATOM     22  C   UNL     1      48.716   6.859  16.962  0.00  0.00    +0.000 A 
ATOM     23  C   UNL     1      48.429   8.084  17.549  0.00  0.00    +0.000 A 
ATOM     24  S   UNL     1      48.182   7.992  19.236  0.00  0.00    +0.000 S 
ATOM     25  C   UNL     1      48.482   6.315  19.246  0.00  0.00    +0.000 A 
ATOM     26  N   UNL     1      48.504   5.609  20.404  0.00  0.00    +0.000 NA
ATOM     27  C   UNL     1      48.791   4.356  20.262  0.00  0.00    +0.000 A 
ATOM     28  N   UNL     1      49.023   3.744  19.064  0.00  0.00    +0.000 N 
ATOM     29  C   UNL     1      48.915   4.394  17.860  0.00  0.00    +0.000 A 
ATOM     30  O   UNL     1      48.936   3.782  16.799  0.00  0.00    +0.000 OA
ATOM     31  C   UNL     1      48.693   5.826  17.969  0.00  0.00    +0.000 A 
ATOM     32  H   UNL     1      49.182   2.749  19.009  0.00  0.00    +0.000 HD
ENDBRANCH  19  22
ENDBRANCH   1  18
BRANCH   1  34
ATOM     33  C   UNL     1      49.309   8.327  11.622  0.00  0.00    +0.000 C 
ATOM     34  C   UNL     1      48.166   8.171  12.618  0.00  0.00    +0.000 C 
ENDBRANCH   1  34
TORSDOF 8
ENDMDL
MODEL 3
REMARK VINA RESULT:    -8.161      2.334      3.148
REMARK INTER + INTRA:         -13.401
REMARK INTER:                 -11.872
REMARK INTRA:                  -1.530
REMARK UNBOUND:                -1.423
REMARK  Name = 
REMARK  9 active torsions:
REMARK  status: ('A' for Active; 'I' for Inactive)
REMARK    1  A    between atoms: C_1  and  C_2
REMARK    2  A    between atoms: C_2  and  C_3
REMARK    3  A    between atoms: C_3  and  N_4
REMARK    4  A    between atoms: C_3  and  C_17
REMARK    5  A    between atoms: C_5  and  C_7
REMARK    6  A    between atoms: C_20  and  C_21
REMARK    7  A    between atoms: C_21  and  N_22
REMARK    8  A    between atoms: N_22  and  C_23
REMARK    9  A    between atoms: C_23  and  C_24
REMARK                            x       y       z     vdW  Elec       q    Type
REMARK                         _______ _______ _______ _____ _____    ______ ____
ROOT
ATOM      1  C   UNL     1      48.199   6.617  13.425  0.00  0.00    +0.000 C 
ENDROOT
BRANCH   1   2
ATOM      2  C   UNL     1      46.946   6.009  12.806  0.00  0.00    +0.000 A 
ATOM      3  C   UNL     1      46.540   6.392  11.520  0.00  0.00    +0.000 A 
ATOM      4  C   UNL     1      45.389   5.847  10.943  0.00  0.00    +0.000 A 
ATOM      5  C   UNL     1      44.623   4.893  11.629  0.00  0.00    +0.000 A 
ATOM      6  C   UNL     1      45.029   4.502  12.911  0.00  0.00    +0.000 A 
ATOM      7  C   UNL     1      46.176   5.054  13.491  0.00  0.00    +0.000 A 
BRANCH   5   8
ATOM      8  C   UNL     1      43.379   4.300  11.006  0.00  0.00    +0.000 C 
BRANCH   8   9
ATOM      9  N   UNL     1      43.662   3.783   9.670  0.00  0.00    +0.000 NA
ATOM     10  H   UNL     1      44.192   4.485   9.152  0.00  0.00    +0.000 HD
BRANCH   9  11
ATOM     11  C   UNL     1      44.462   2.555   9.729  0.00  0.00    +0.000 C 
BRANCH  11  12
ATOM     12  C   UNL     1      45.486   2.499   8.612  0.00  0.00    +0.000 A 
ATOM     13  C   UNL     1      45.766   3.646   7.870  0.00  0.00    +0.000 A 
ATOM     14  C   UNL     1      46.684   3.572   6.828  0.00  0.00    +0.000 A 
ATOM     15  C   UNL     1      47.300   2.358   6.554  0.00  0.00    +0.000 A 
ATOM     16  C   UNL     1      46.978   1.268   7.346  0.00  0.00    +0.000 A 
ATOM     17  N   UNL     1      46.090   1.308   8.365  0.00  0.00    +0.000 NA
ENDBRANCH  11  12
ENDBRANCH   9  11
ENDBRANCH   8   9
ENDBRANCH   5   8
ENDBRANCH   1   2
BRANCH   1  18
ATOM     18  N   UNL     1      47.950   6.906  14.830  0.00  0.00    +0.000 N 
ATOM     19  C   UNL     1      48.888   6.741  15.815  0.00  0.00    +0.000 C 
ATOM     20  O   UNL     1      50.030   6.360  15.577  0.00  0.00    +0.000 OA
ATOM     21  H   UNL     1      46.994   7.136  15.082  0.00  0.00    +0.000 HD
BRANCH  19  22
ATOM     22  C   UNL     1      48.459   7.066  17.183  0.00  0.00    +0.000 A 
ATOM     23  C   UNL     1      48.314   6.058  18.127  0.00  0.00    +0.000 A 
ATOM     24  S   UNL     1      47.732   6.610  19.634  0.00  0.00    +0.000 S 
ATOM     25  C   UNL     1      47.621   8.213  19.068  0.00  0.00    +0.000 A 
ATOM     26  N   UNL     1      47.114   9.202  19.846  0.00  0.00    +0.000 NA
ATOM     27  C   UNL     1      47.047  10.357  19.267  0.00  0.00    +0.000 A 
ATOM     28  N   UNL     1      47.474  10.614  17.996  0.00  0.00    +0.000 N 
ATOM     29  C   UNL     1      48.084   9.671  17.209  0.00  0.00    +0.000 A 
ATOM     30  O   UNL     1      48.631   9.974  16.154  0.00  0.00    +0.000 OA
ATOM     31  C   UNL     1      48.093   8.331  17.773  0.00  0.00    +0.000 A 
ATOM     32  H   UNL     1      47.454  11.550  17.618  0.00  0.00    +0.000 HD
ENDBRANCH  19  22
ENDBRANCH   1  18
BRANCH   1  34
ATOM     33  C   UNL     1      49.970   7.708  11.923  0.00  0.00    +0.000 C 
ATOM     34  C   UNL     1      48.665   7.890  12.689  0.00  0.00    +0.000 C 
ENDBRANCH   1  34
TORSDOF 8
ENDMDL
MODEL 4
REMARK VINA RESULT:    -7.318      2.731      8.135
REMARK INTER + INTRA:         -12.163
REMARK INTER:                 -10.344
REMARK INTRA:                  -1.819
REMARK UNBOUND:                -1.423
REMARK  Name = 
REMARK  9 active torsions:
REMARK  status: ('A' for Active; 'I' for Inactive)
REMARK    1  A    between atoms: C_1  and  C_2
REMARK    2  A    between atoms: C_2  and  C_3
REMARK    3  A    between atoms: C_3  and  N_4
REMARK    4  A    between atoms: C_3  and  C_17
REMARK    5  A    between atoms: C_5  and  C_7
REMARK    6  A    between atoms: C_20  and  C_21
REMARK    7  A    between atoms: C_21  and  N_22
REMARK    8  A    between atoms: N_22  and  C_23
REMARK    9  A    between atoms: C_23  and  C_24
REMARK                            x       y       z     vdW  Elec       q    Type
REMARK                         _______ _______ _______ _____ _____    ______ ____
ROOT
ATOM      1  C   UNL     1      47.836   7.666  12.134  0.00  0.00    +0.000 C 
ENDROOT
BRANCH   1   2
ATOM      2  C   UNL     1      48.093   7.756  13.633  0.00  0.00    +0.000 A 
ATOM      3  C   UNL     1      48.595   6.648  14.328  0.00  0.00    +0.000 A 
ATOM      4  C   UNL     1      48.829   6.714  15.705  0.00  0.00    +0.000 A 
ATOM      5  C   UNL     1      48.582   7.895  16.420  0.00  0.00    +0.000 A 
ATOM      6  C   UNL     1      48.087   9.007  15.729  0.00  0.00    +0.000 A 
ATOM      7  C   UNL     1      47.846   8.937  14.352  0.00  0.00    +0.000 A 
BRANCH   5   8
ATOM      8  C   UNL     1      48.836   7.970  17.909  0.00  0.00    +0.000 C 
BRANCH   8   9
ATOM      9  N   UNL     1      47.697   7.444  18.657  0.00  0.00    +0.000 NA
ATOM     10  H   UNL     1      46.973   7.161  17.996  0.00  0.00    +0.000 HD
BRANCH   9  11
ATOM     11  C   UNL     1      48.076   6.272  19.453  0.00  0.00    +0.000 C 
BRANCH  11  12
ATOM     12  C   UNL     1      48.133   5.014  18.607  0.00  0.00    +0.000 A 
ATOM     13  C   UNL     1      49.325   4.295  18.515  0.00  0.00    +0.000 A 
ATOM     14  C   UNL     1      49.371   3.161  17.711  0.00  0.00    +0.000 A 
ATOM     15  C   UNL     1      48.230   2.773  17.022  0.00  0.00    +0.000 A 
ATOM     16  C   UNL     1      47.082   3.533  17.177  0.00  0.00    +0.000 A 
ATOM     17  N   UNL     1      47.006   4.639  17.950  0.00  0.00    +0.000 NA
ENDBRANCH  11  12
ENDBRANCH   9  11
ENDBRANCH   8   9
ENDBRANCH   5   8
ENDBRANCH   1   2
BRANCH   1  18
ATOM     18  N   UNL     1      46.984   6.518  11.860  0.00  0.00    +0.000 N 
ATOM     19  C   UNL     1      45.616   6.584  11.812  0.00  0.00    +0.000 C 
ATOM     20  O   UNL     1      45.003   7.635  11.971  0.00  0.00    +0.000 OA
ATOM     21  H   UNL     1      47.444   5.614  11.812  0.00  0.00    +0.000 HD
BRANCH  19  22
ATOM     22  C   UNL     1      44.913   5.322  11.538  0.00  0.00    +0.000 A 
ATOM     23  C   UNL     1      44.092   4.757  12.505  0.00  0.00    +0.000 A 
ATOM     24  S   UNL     1      43.424   3.255  12.043  0.00  0.00    +0.000 S 
ATOM     25  C   UNL     1      44.236   3.291  10.546  0.00  0.00    +0.000 A 
ATOM     26  N   UNL     1      44.158   2.252   9.677  0.00  0.00    +0.000 NA
ATOM     27  C   UNL     1      44.864   2.399   8.603  0.00  0.00    +0.000 A 
ATOM     28  N   UNL     1      45.609   3.504   8.308  0.00  0.00    +0.000 N 
ATOM     29  C   UNL     1      45.638   4.619   9.109  0.00  0.00    +0.000 A 
ATOM     30  O   UNL     1      46.154   5.664   8.730  0.00  0.00    +0.000 OA
ATOM     31  C   UNL     1      44.943   4.467  10.376  0.00  0.00    +0.000 A 
ATOM     32  H   UNL     1      46.090   3.589   7.425  0.00  0.00    +0.000 HD
ENDBRANCH  19  22
ENDBRANCH   1  18
BRANCH   1  34
ATOM     33  C   UNL     1      50.065   8.771  11.505  0.00  0.00    +0.000 C 
ATOM     34  C   UNL     1      49.139   7.576  11.313  0.00  0.00    +0.000 C 
ENDBRANCH   1  34
TORSDOF 8
ENDMDL
MODEL 5
REMARK VINA RESULT:    -7.201      3.087      7.671
REMARK INTER + INTRA:         -11.992
REMARK INTER:                 -10.162
REMARK INTRA:                  -1.829
REMARK UNBOUND:                -1.423
REMARK  Name = 
REMARK  9 active torsions:
REMARK  status: ('A' for Active; 'I' for Inactive)
REMARK    1  A    between atoms: C_1  and  C_2
REMARK    2  A    between atoms: C_2  and  C_3
REMARK    3  A    between atoms: C_3  and  N_4
REMARK    4  A    between atoms: C_3  and  C_17
REMARK    5  A    between atoms: C_5  and  C_7
REMARK    6  A    between atoms: C_20  and  C_21
REMARK    7  A    between atoms: C_21  and  N_22
REMARK    8  A    between atoms: N_22  and  C_23
REMARK    9  A    between atoms: C_23  and  C_24
REMARK                            x       y       z     vdW  Elec       q    Type
REMARK                         _______ _______ _______ _____ _____    ______ ____
ROOT
ATOM      1  C   UNL     1      48.380   8.151  12.052  0.00  0.00    +0.000 C 
ENDROOT
BRANCH   1   2
ATOM      2  C   UNL     1      48.456   8.006  13.567  0.00  0.00    +0.000 A 
ATOM      3  C   UNL     1      48.898   6.803  14.136  0.00  0.00    +0.000 A 
ATOM      4  C   UNL     1      48.968   6.653  15.525  0.00  0.00    +0.000 A 
ATOM      5  C   UNL     1      48.612   7.706  16.380  0.00  0.00    +0.000 A 
ATOM      6  C   UNL     1      48.176   8.912  15.816  0.00  0.00    +0.000 A 
ATOM      7  C   UNL     1      48.100   9.058  14.427  0.00  0.00    +0.000 A 
BRANCH   5   8
ATOM      8  C   UNL     1      48.687   7.548  17.882  0.00  0.00    +0.000 C 
BRANCH   8   9
ATOM      9  N   UNL     1      47.451   6.973  18.406  0.00  0.00    +0.000 NA
ATOM     10  H   UNL     1      46.856   6.702  17.622  0.00  0.00    +0.000 HD
BRANCH   9  11
ATOM     11  C   UNL     1      47.717   5.779  19.215  0.00  0.00    +0.000 C 
BRANCH  11  12
ATOM     12  C   UNL     1      48.193   4.619  18.362  0.00  0.00    +0.000 A 
ATOM     13  C   UNL     1      47.319   4.019  17.456  0.00  0.00    +0.000 A 
ATOM     14  C   UNL     1      47.761   2.937  16.703  0.00  0.00    +0.000 A 
ATOM     15  C   UNL     1      49.062   2.482  16.870  0.00  0.00    +0.000 A 
ATOM     16  C   UNL     1      49.873   3.140  17.780  0.00  0.00    +0.000 A 
ATOM     17  N   UNL     1      49.472   4.194  18.527  0.00  0.00    +0.000 NA
ENDBRANCH  11  12
ENDBRANCH   9  11
ENDBRANCH   8   9
ENDBRANCH   5   8
ENDBRANCH   1   2
BRANCH   1  18
ATOM     18  N   UNL     1      47.646   7.023  11.497  0.00  0.00    +0.000 N 
ATOM     19  C   UNL     1      46.278   6.964  11.439  0.00  0.00    +0.000 C 
ATOM     20  O   UNL     1      45.563   7.882  11.830  0.00  0.00    +0.000 OA
ATOM     21  H   UNL     1      48.193   6.206  11.247  0.00  0.00    +0.000 HD
BRANCH  19  22
ATOM     22  C   UNL     1      45.704   5.740  10.860  0.00  0.00    +0.000 A 
ATOM     23  C   UNL     1      45.780   5.513   9.492  0.00  0.00    +0.000 A 
ATOM     24  S   UNL     1      44.990   4.085   8.991  0.00  0.00    +0.000 S 
ATOM     25  C   UNL     1      44.488   3.737  10.582  0.00  0.00    +0.000 A 
ATOM     26  N   UNL     1      43.694   2.671  10.853  0.00  0.00    +0.000 NA
ATOM     27  C   UNL     1      43.355   2.559  12.096  0.00  0.00    +0.000 A 
ATOM     28  N   UNL     1      43.768   3.396  13.092  0.00  0.00    +0.000 N 
ATOM     29  C   UNL     1      44.650   4.427  12.882  0.00  0.00    +0.000 A 
ATOM     30  O   UNL     1      45.153   5.039  13.818  0.00  0.00    +0.000 OA
ATOM     31  C   UNL     1      44.983   4.658  11.486  0.00  0.00    +0.000 A 
ATOM     32  H   UNL     1      43.521   3.224  14.055  0.00  0.00    +0.000 HD
ENDBRANCH  19  22
ENDBRANCH   1  18
BRANCH   1  34
ATOM     33  C   UNL     1      50.409   9.638  11.547  0.00  0.00    +0.000 C 
ATOM     34  C   UNL     1      49.771   8.262  11.395  0.00  0.00    +0.000 C 
ENDBRANCH   1  34
TORSDOF 8
ENDMDL
MODEL 6
REMARK VINA RESULT:    -6.972      3.635      4.983
REMARK INTER + INTRA:         -11.656
REMARK INTER:                 -10.444
REMARK INTRA:                  -1.212
REMARK UNBOUND:                -1.423
REMARK  Name = 
REMARK  9 active torsions:
REMARK  status: ('A' for Active; 'I' for Inactive)
REMARK    1  A    between atoms: C_1  and  C_2
REMARK    2  A    between atoms: C_2  and  C_3
REMARK    3  A    between atoms: C_3  and  N_4
REMARK    4  A    between atoms: C_3  and  C_17
REMARK    5  A    between atoms: C_5  and  C_7
REMARK    6  A    between atoms: C_20  and  C_21
REMARK    7  A    between atoms: C_21  and  N_22
REMARK    8  A    between atoms: N_22  and  C_23
REMARK    9  A    between atoms: C_23  and  C_24
REMARK                            x       y       z     vdW  Elec       q    Type
REMARK                         _______ _______ _______ _____ _____    ______ ____
ROOT
ATOM      1  C   UNL     1      48.011   6.861  13.943  0.00  0.00    +0.000 C 
ENDROOT
BRANCH   1   2
ATOM      2  C   UNL     1      46.883   6.308  13.082  0.00  0.00    +0.000 A 
ATOM      3  C   UNL     1      46.633   6.855  11.815  0.00  0.00    +0.000 A 
ATOM      4  C   UNL     1      45.596   6.361  11.016  0.00  0.00    +0.000 A 
ATOM      5  C   UNL     1      44.793   5.299  11.455  0.00  0.00    +0.000 A 
ATOM      6  C   UNL     1      45.044   4.745  12.717  0.00  0.00    +0.000 A 
ATOM      7  C   UNL     1      46.076   5.245  13.519  0.00  0.00    +0.000 A 
BRANCH   5   8
ATOM      8  C   UNL     1      43.673   4.762  10.593  0.00  0.00    +0.000 C 
BRANCH   8   9
ATOM      9  N   UNL     1      44.186   4.287   9.311  0.00  0.00    +0.000 NA
ATOM     10  H   UNL     1      45.016   4.829   9.069  0.00  0.00    +0.000 HD
BRANCH   9  11
ATOM     11  C   UNL     1      44.565   2.872   9.377  0.00  0.00    +0.000 C 
BRANCH  11  12
ATOM     12  C   UNL     1      45.631   2.528   8.354  0.00  0.00    +0.000 A 
ATOM     13  C   UNL     1      46.056   3.496   7.444  0.00  0.00    +0.000 A 
ATOM     14  C   UNL     1      47.011   3.159   6.492  0.00  0.00    +0.000 A 
ATOM     15  C   UNL     1      47.518   1.866   6.471  0.00  0.00    +0.000 A 
ATOM     16  C   UNL     1      47.055   0.966   7.417  0.00  0.00    +0.000 A 
ATOM     17  N   UNL     1      46.127   1.265   8.355  0.00  0.00    +0.000 NA
ENDBRANCH  11  12
ENDBRANCH   9  11
ENDBRANCH   8   9
ENDBRANCH   5   8
ENDBRANCH   1   2
BRANCH   1  18
ATOM     18  N   UNL     1      49.222   6.963  13.143  0.00  0.00    +0.000 N 
ATOM     19  C   UNL     1      49.783   8.155  12.767  0.00  0.00    +0.000 C 
ATOM     20  O   UNL     1      49.315   9.238  13.105  0.00  0.00    +0.000 OA
ATOM     21  H   UNL     1      49.590   6.095  12.765  0.00  0.00    +0.000 HD
BRANCH  19  22
ATOM     22  C   UNL     1      50.999   8.071  11.944  0.00  0.00    +0.000 A 
ATOM     23  C   UNL     1      50.945   7.514  10.673  0.00  0.00    +0.000 A 
ATOM     24  S   UNL     1      52.464   7.426   9.899  0.00  0.00    +0.000 S 
ATOM     25  C   UNL     1      53.254   8.101  11.249  0.00  0.00    +0.000 A 
ATOM     26  N   UNL     1      54.604   8.238  11.280  0.00  0.00    +0.000 NA
ATOM     27  C   UNL     1      55.067   8.721  12.386  0.00  0.00    +0.000 A 
ATOM     28  N   UNL     1      54.299   9.109  13.446  0.00  0.00    +0.000 N 
ATOM     29  C   UNL     1      52.927   9.082  13.423  0.00  0.00    +0.000 A 
ATOM     30  O   UNL     1      52.262   9.614  14.304  0.00  0.00    +0.000 OA
ATOM     31  C   UNL     1      52.359   8.454  12.241  0.00  0.00    +0.000 A 
ATOM     32  H   UNL     1      54.712   9.537  14.262  0.00  0.00    +0.000 HD
ENDBRANCH  19  22
ENDBRANCH   1  18
BRANCH   1  34
ATOM     33  C   UNL     1      49.275   6.630  16.165  0.00  0.00    +0.000 C 
ATOM     34  C   UNL     1      48.269   6.008  15.202  0.00  0.00    +0.000 C 
ENDBRANCH   1  34
TORSDOF 8
ENDMDL
MODEL 7
REMARK VINA RESULT:    -6.544      1.863      2.294
REMARK INTER + INTRA:         -11.027
REMARK INTER:                  -9.670
REMARK INTRA:                  -1.357
REMARK UNBOUND:                -1.423
REMARK  Name = 
REMARK  9 active torsions:
REMARK  status: ('A' for Active; 'I' for Inactive)
REMARK    1  A    between atoms: C_1  and  C_2
REMARK    2  A    between atoms: C_2  and  C_3
REMARK    3  A    between atoms: C_3  and  N_4
REMARK    4  A    between atoms: C_3  and  C_17
REMARK    5  A    between atoms: C_5  and  C_7
REMARK    6  A    between atoms: C_20  and  C_21
REMARK    7  A    between atoms: C_21  and  N_22
REMARK    8  A    between atoms: N_22  and  C_23
REMARK    9  A    between atoms: C_23  and  C_24
REMARK                            x       y       z     vdW  Elec       q    Type
REMARK                         _______ _______ _______ _____ _____    ______ ____
ROOT
ATOM      1  C   UNL     1      48.414   8.386  12.322  0.00  0.00    +0.000 C 
ENDROOT
BRANCH   1   2
ATOM      2  C   UNL     1      47.350   7.299  12.220  0.00  0.00    +0.000 A 
ATOM      3  C   UNL     1      46.186   7.523  11.472  0.00  0.00    +0.000 A 
ATOM      4  C   UNL     1      45.198   6.537  11.375  0.00  0.00    +0.000 A 
ATOM      5  C   UNL     1      45.356   5.297  12.010  0.00  0.00    +0.000 A 
ATOM      6  C   UNL     1      46.520   5.067  12.754  0.00  0.00    +0.000 A 
ATOM      7  C   UNL     1      47.504   6.056  12.856  0.00  0.00    +0.000 A 
BRANCH   5   8
ATOM      8  C   UNL     1      44.291   4.229  11.906  0.00  0.00    +0.000 C 
BRANCH   8   9
ATOM      9  N   UNL     1      43.896   4.023  10.515  0.00  0.00    +0.000 NA
ATOM     10  H   UNL     1      44.401   4.688   9.929  0.00  0.00    +0.000 HD
BRANCH   9  11
ATOM     11  C   UNL     1      44.225   2.668  10.061  0.00  0.00    +0.000 C 
BRANCH  11  12
ATOM     12  C   UNL     1      45.261   2.684   8.954  0.00  0.00    +0.000 A 
ATOM     13  C   UNL     1      45.556   3.879   8.298  0.00  0.00    +0.000 A 
ATOM     14  C   UNL     1      46.487   3.872   7.265  0.00  0.00    +0.000 A 
ATOM     15  C   UNL     1      47.099   2.677   6.912  0.00  0.00    +0.000 A 
ATOM     16  C   UNL     1      46.762   1.536   7.621  0.00  0.00    +0.000 A 
ATOM     17  N   UNL     1      45.862   1.510   8.630  0.00  0.00    +0.000 NA
ENDBRANCH  11  12
ENDBRANCH   9  11
ENDBRANCH   8   9
ENDBRANCH   5   8
ENDBRANCH   1   2
BRANCH   1  18
ATOM     18  N   UNL     1      48.877   8.478  13.699  0.00  0.00    +0.000 N 
ATOM     19  C   UNL     1      50.189   8.343  14.067  0.00  0.00    +0.000 C 
ATOM     20  O   UNL     1      51.087   8.160  13.250  0.00  0.00    +0.000 OA
ATOM     21  H   UNL     1      48.159   8.537  14.415  0.00  0.00    +0.000 HD
BRANCH  19  22
ATOM     22  C   UNL     1      50.476   8.449  15.506  0.00  0.00    +0.000 A 
ATOM     23  C   UNL     1      51.162   9.551  16.001  0.00  0.00    +0.000 A 
ATOM     24  S   UNL     1      51.475   9.464  17.677  0.00  0.00    +0.000 S 
ATOM     25  C   UNL     1      50.734   7.935  17.795  0.00  0.00    +0.000 A 
ATOM     26  N   UNL     1      50.720   7.245  18.963  0.00  0.00    +0.000 NA
ATOM     27  C   UNL     1      50.164   6.080  18.890  0.00  0.00    +0.000 A 
ATOM     28  N   UNL     1      49.592   5.562  17.764  0.00  0.00    +0.000 N 
ATOM     29  C   UNL     1      49.493   6.261  16.588  0.00  0.00    +0.000 A 
ATOM     30  O   UNL     1      48.808   5.853  15.657  0.00  0.00    +0.000 OA
ATOM     31  C   UNL     1      50.191   7.536  16.586  0.00  0.00    +0.000 A 
ATOM     32  H   UNL     1      49.117   4.671  17.782  0.00  0.00    +0.000 HD
ENDBRANCH  19  22
ENDBRANCH   1  18
BRANCH   1  34
ATOM     33  C   UNL     1      48.819  10.917  12.220  0.00  0.00    +0.000 C 
ATOM     34  C   UNL     1      47.909   9.758  11.832  0.00  0.00    +0.000 C 
ENDBRANCH   1  34
TORSDOF 8
ENDMDL
MODEL 8
REMARK VINA RESULT:    -6.373      3.316      4.269
REMARK INTER + INTRA:         -10.777
REMARK INTER:                  -9.498
REMARK INTRA:                  -1.278
REMARK UNBOUND:                -1.423
REMARK  Name = 
REMARK  9 active torsions:
REMARK  status: ('A' for Active; 'I' for Inactive)
REMARK    1  A    between atoms: C_1  and  C_2
REMARK    2  A    between atoms: C_2  and  C_3
REMARK    3  A    between atoms: C_3  and  N_4
REMARK    4  A    between atoms: C_3  and  C_17
REMARK    5  A    between atoms: C_5  and  C_7
REMARK    6  A    between atoms: C_20  and  C_21
REMARK    7  A    between atoms: C_21  and  N_22
REMARK    8  A    between atoms: N_22  and  C_23
REMARK    9  A    between atoms: C_23  and  C_24
REMARK                            x       y       z     vdW  Elec       q    Type
REMARK                         _______ _______ _______ _____ _____    ______ ____
ROOT
ATOM      1  C   UNL     1      47.182   8.351  11.907  0.00  0.00    +0.000 C 
ENDROOT
BRANCH   1   2
ATOM      2  C   UNL     1      46.512   6.988  11.788  0.00  0.00    +0.000 A 
ATOM      3  C   UNL     1      45.902   6.608  10.584  0.00  0.00    +0.000 A 
ATOM      4  C   UNL     1      45.277   5.362  10.463  0.00  0.00    +0.000 A 
ATOM      5  C   UNL     1      45.261   4.458  11.535  0.00  0.00    +0.000 A 
ATOM      6  C   UNL     1      45.876   4.831  12.737  0.00  0.00    +0.000 A 
ATOM      7  C   UNL     1      46.493   6.081  12.860  0.00  0.00    +0.000 A 
BRANCH   5   8
ATOM      8  C   UNL     1      44.589   3.110  11.406  0.00  0.00    +0.000 C 
BRANCH   8   9
ATOM      9  N   UNL     1      44.014   2.942  10.074  0.00  0.00    +0.000 NA
ATOM     10  H   UNL     1      44.287   3.737   9.496  0.00  0.00    +0.000 HD
BRANCH   9  11
ATOM     11  C   UNL     1      44.502   1.717   9.431  0.00  0.00    +0.000 C 
BRANCH  11  12
ATOM     12  C   UNL     1      45.580   2.013   8.407  0.00  0.00    +0.000 A 
ATOM     13  C   UNL     1      45.657   3.279   7.827  0.00  0.00    +0.000 A 
ATOM     14  C   UNL     1      46.632   3.527   6.867  0.00  0.00    +0.000 A 
ATOM     15  C   UNL     1      47.505   2.508   6.510  0.00  0.00    +0.000 A 
ATOM     16  C   UNL     1      47.372   1.282   7.142  0.00  0.00    +0.000 A 
ATOM     17  N   UNL     1      46.436   1.011   8.079  0.00  0.00    +0.000 NA
ENDBRANCH  11  12
ENDBRANCH   9  11
ENDBRANCH   8   9
ENDBRANCH   5   8
ENDBRANCH   1   2
BRANCH   1  18
ATOM     18  N   UNL     1      48.490   8.193  12.526  0.00  0.00    +0.000 N 
ATOM     19  C   UNL     1      49.536   9.052  12.317  0.00  0.00    +0.000 C 
ATOM     20  O   UNL     1      49.437  10.048  11.605  0.00  0.00    +0.000 OA
ATOM     21  H   UNL     1      48.643   7.335  13.047  0.00  0.00    +0.000 HD
BRANCH  19  22
ATOM     22  C   UNL     1      50.792   8.730  13.010  0.00  0.00    +0.000 A 
ATOM     23  C   UNL     1      50.895   8.905  14.384  0.00  0.00    +0.000 A 
ATOM     24  S   UNL     1      52.448   8.558  15.003  0.00  0.00    +0.000 S 
ATOM     25  C   UNL     1      53.048   8.193  13.451  0.00  0.00    +0.000 A 
ATOM     26  N   UNL     1      54.354   7.885  13.254  0.00  0.00    +0.000 NA
ATOM     27  C   UNL     1      54.675   7.678  12.018  0.00  0.00    +0.000 A 
ATOM     28  N   UNL     1      53.798   7.717  10.972  0.00  0.00    +0.000 N 
ATOM     29  C   UNL     1      52.452   7.925  11.134  0.00  0.00    +0.000 A 
ATOM     30  O   UNL     1      51.664   7.763  10.208  0.00  0.00    +0.000 OA
ATOM     31  C   UNL     1      52.055   8.264  12.490  0.00  0.00    +0.000 A 
ATOM     32  H   UNL     1      54.094   7.485  10.034  0.00  0.00    +0.000 HD
ENDBRANCH  19  22
ENDBRANCH   1  18
BRANCH   1  34
ATOM     33  C   UNL     1      45.730  10.466  11.838  0.00  0.00    +0.000 C 
ATOM     34  C   UNL     1      46.331   9.363  12.702  0.00  0.00    +0.000 C 
ENDBRANCH   1  34
TORSDOF 8
ENDMDL
MODEL 9
REMARK VINA RESULT:    -6.343      3.972      5.654
REMARK INTER + INTRA:         -10.732
REMARK INTER:                  -9.252
REMARK INTRA:                  -1.479
REMARK UNBOUND:                -1.423
REMARK  Name = 
REMARK  9 active torsions:
REMARK  status: ('A' for Active; 'I' for Inactive)
REMARK    1  A    between atoms: C_1  and  C_2
REMARK    2  A    between atoms: C_2  and  C_3
REMARK    3  A    between atoms: C_3  and  N_4
REMARK    4  A    between atoms: C_3  and  C_17
REMARK    5  A    between atoms: C_5  and  C_7
REMARK    6  A    between atoms: C_20  and  C_21
REMARK    7  A    between atoms: C_21  and  N_22
REMARK    8  A    between atoms: N_22  and  C_23
REMARK    9  A    between atoms: C_23  and  C_24
REMARK                            x       y       z     vdW  Elec       q    Type
REMARK                         _______ _______ _______ _____ _____    ______ ____
ROOT
ATOM      1  C   UNL     1      49.491   8.081  14.768  0.00  0.00    +0.000 C 
ENDROOT
BRANCH   1   2
ATOM      2  C   UNL     1      48.281   7.675  13.936  0.00  0.00    +0.000 A 
ATOM      3  C   UNL     1      47.279   8.613  13.649  0.00  0.00    +0.000 A 
ATOM      4  C   UNL     1      46.159   8.253  12.893  0.00  0.00    +0.000 A 
ATOM      5  C   UNL     1      46.020   6.951  12.390  0.00  0.00    +0.000 A 
ATOM      6  C   UNL     1      47.022   6.013  12.669  0.00  0.00    +0.000 A 
ATOM      7  C   UNL     1      48.138   6.372  13.432  0.00  0.00    +0.000 A 
BRANCH   5   8
ATOM      8  C   UNL     1      44.812   6.558  11.570  0.00  0.00    +0.000 C 
BRANCH   8   9
ATOM      9  N   UNL     1      45.217   5.967  10.298  0.00  0.00    +0.000 NA
ATOM     10  H   UNL     1      46.221   5.783  10.326  0.00  0.00    +0.000 HD
BRANCH   9  11
ATOM     11  C   UNL     1      44.525   4.697  10.053  0.00  0.00    +0.000 C 
BRANCH  11  12
ATOM     12  C   UNL     1      45.280   3.828   9.066  0.00  0.00    +0.000 A 
ATOM     13  C   UNL     1      45.263   2.441   9.209  0.00  0.00    +0.000 A 
ATOM     14  C   UNL     1      45.985   1.658   8.315  0.00  0.00    +0.000 A 
ATOM     15  C   UNL     1      46.705   2.278   7.301  0.00  0.00    +0.000 A 
ATOM     16  C   UNL     1      46.660   3.659   7.218  0.00  0.00    +0.000 A 
ATOM     17  N   UNL     1      45.967   4.447   8.072  0.00  0.00    +0.000 NA
ENDBRANCH  11  12
ENDBRANCH   9  11
ENDBRANCH   8   9
ENDBRANCH   5   8
ENDBRANCH   1   2
BRANCH   1  18
ATOM     18  N   UNL     1      50.701   7.898  13.980  0.00  0.00    +0.000 N 
ATOM     19  C   UNL     1      51.515   8.928  13.590  0.00  0.00    +0.000 C 
ATOM     20  O   UNL     1      51.296  10.094  13.905  0.00  0.00    +0.000 OA
ATOM     21  H   UNL     1      50.870   6.963  13.621  0.00  0.00    +0.000 HD
BRANCH  19  22
ATOM     22  C   UNL     1      52.688   8.562  12.782  0.00  0.00    +0.000 A 
ATOM     23  C   UNL     1      53.968   8.815  13.257  0.00  0.00    +0.000 A 
ATOM     24  S   UNL     1      55.201   8.398  12.152  0.00  0.00    +0.000 S 
ATOM     25  C   UNL     1      54.066   7.895  10.986  0.00  0.00    +0.000 A 
ATOM     26  N   UNL     1      54.456   7.483   9.754  0.00  0.00    +0.000 NA
ATOM     27  C   UNL     1      53.483   7.175   8.960  0.00  0.00    +0.000 A 
ATOM     28  N   UNL     1      52.161   7.211   9.301  0.00  0.00    +0.000 N 
ATOM     29  C   UNL     1      51.725   7.524  10.564  0.00  0.00    +0.000 A 
ATOM     30  O   UNL     1      50.556   7.360  10.896  0.00  0.00    +0.000 OA
ATOM     31  C   UNL     1      52.771   7.975  11.467  0.00  0.00    +0.000 A 
ATOM     32  H   UNL     1      51.447   6.900   8.658  0.00  0.00    +0.000 HD
ENDBRANCH  19  22
ENDBRANCH   1  18
BRANCH   1  34
ATOM     33  C   UNL     1      50.923   6.585  16.283  0.00  0.00    +0.000 C 
ATOM     34  C   UNL     1      49.590   7.298  16.094  0.00  0.00    +0.000 C 
ENDBRANCH   1  34
TORSDOF 8
ENDMDL
