MODEL 1
REMARK VINA RESULT:    -8.453      0.000      0.000
REMARK INTER + INTRA:         -12.775
REMARK INTER:                 -11.912
REMARK INTRA:                  -0.863
REMARK UNBOUND:                -0.863
REMARK  Name = 
REMARK  8 active torsions:
REMARK  status: ('A' for Active; 'I' for Inactive)
REMARK    1  A    between atoms: C_1  and  C_2
REMARK    2  A    between atoms: C_2  and  C_3
REMARK    3  A    between atoms: C_2  and  C_5
REMARK    4  A    between atoms: C_2  and  C_16
REMARK    5  A    between atoms: C_5  and  O_6
REMARK    6  A    between atoms: O_6  and  C_7
REMARK    7  A    between atoms: C_10  and  C_11
REMARK    8  A    between atoms: C_20  and  C_21
REMARK                            x       y       z     vdW  Elec       q    Type
REMARK                         _______ _______ _______ _____ _____    ______ ____
ROOT
ATOM      1  C   UNL     1      42.807   5.602  12.887  0.00  0.00    +0.000 C 
ATOM      2  C   UNL     1      43.873   4.789  12.123  0.00  0.00    +0.000 C 
ENDROOT
BRANCH   2   3
ATOM      3  C   UNL     1      45.283   5.158  12.638  0.00  0.00    +0.000 A 
ATOM      4  C   UNL     1      46.093   6.048  11.904  0.00  0.00    +0.000 A 
ATOM      5  C   UNL     1      47.357   6.423  12.363  0.00  0.00    +0.000 A 
ATOM      6  C   UNL     1      47.837   5.927  13.576  0.00  0.00    +0.000 A 
ATOM      7  C   UNL     1      47.058   5.049  14.335  0.00  0.00    +0.000 A 
ATOM      8  C   UNL     1      45.799   4.663  13.854  0.00  0.00    +0.000 A 
BRANCH   7   9
ATOM      9  C   UNL     1      47.600   4.586  15.648  0.00  0.00    +0.000 C 
ATOM     10  N   UNL     1      46.852   3.735  16.412  0.00  0.00    +0.000 N 
ATOM     11  O   UNL     1      48.695   4.965  16.053  0.00  0.00    +0.000 OA
ATOM     12  H   UNL     1      45.945   3.367  16.180  0.00  0.00    +0.000 HD
ATOM     13  H   UNL     1      47.242   3.475  17.310  0.00  0.00    +0.000 HD
ENDBRANCH   7   9
ENDBRANCH   2   3
BRANCH   2  14
ATOM     14  C   UNL     1      43.632   3.309  12.369  0.00  0.00    +0.000 C 
ATOM     15  N   UNL     1      43.431   2.081  12.573  0.00  0.00    +0.000 NA
ENDBRANCH   2  14
BRANCH   2  16
ATOM     16  C   UNL     1      43.664   5.000  10.596  0.00  0.00    +0.000 C 
BRANCH  16  17
ATOM     17  O   UNL     1      43.515   3.740   9.924  0.00  0.00    +0.000 OA
BRANCH  17  18
ATOM     18  C   UNL     1      44.555   3.323   9.140  0.00  0.00    +0.000 A 
ATOM     19  C   UNL     1      44.975   2.004   8.980  0.00  0.00    +0.000 A 
ATOM     20  C   UNL     1      46.035   1.706   8.119  0.00  0.00    +0.000 A 
ATOM     21  C   UNL     1      46.679   2.721   7.404  0.00  0.00    +0.000 A 
ATOM     22  C   UNL     1      46.279   4.048   7.583  0.00  0.00    +0.000 A 
ATOM     23  C   UNL     1      45.222   4.343   8.453  0.00  0.00    +0.000 A 
BRANCH  21  24
ATOM     24  C   UNL     1      47.783   2.334   6.489  0.00  0.00    +0.000 C 
ATOM     25  N   UNL     1      47.810   2.907   5.250  0.00  0.00    +0.000 N 
ATOM     26  O   UNL     1      48.618   1.499   6.814  0.00  0.00    +0.000 OA
ATOM     27  H   UNL     1      47.036   3.429   4.864  0.00  0.00    +0.000 HD
ATOM     28  H   UNL     1      48.502   2.546   4.605  0.00  0.00    +0.000 HD
ENDBRANCH  21  24
ENDBRANCH  17  18
ENDBRANCH  16  17
ENDBRANCH   2  16
TORSDOF 7
ENDMDL
MODEL 2
REMARK VINA RESULT:    -8.185      2.744      3.201
REMARK INTER + INTRA:         -12.397
REMARK INTER:                 -11.790
REMARK INTRA:                  -0.608
REMARK UNBOUND:                -0.863
REMARK  Name = 
REMARK  8 active torsions:
REMARK  status: ('A' for Active; 'I' for Inactive)
REMARK    1  A    between atoms: C_1  and  C_2
REMARK    2  A    between atoms: C_2  and  C_3
REMARK    3  A    between atoms: C_2  and  C_5
REMARK    4  A    between atoms: C_2  and  C_16
REMARK    5  A    between atoms: C_5  and  O_6
REMARK    6  A    between atoms: O_6  and  C_7
REMARK    7  A    between atoms: C_10  and  C_11
REMARK    8  A    between atoms: C_20  and  C_21
REMARK                            x       y       z     vdW  Elec       q    Type
REMARK                         _______ _______ _______ _____ _____    ______ ____
ROOT
ATOM      1  C   UNL     1      43.010   5.356  12.995  0.00  0.00    +0.000 C 
ATOM      2  C   UNL     1      44.189   5.140  12.023  0.00  0.00    +0.000 C 
ENDROOT
BRANCH   2   3
ATOM      3  C   UNL     1      45.135   6.363  12.064  0.00  0.00    +0.000 A 
ATOM      4  C   UNL     1      46.531   6.176  12.051  0.00  0.00    +0.000 A 
ATOM      5  C   UNL     1      47.407   7.264  12.054  0.00  0.00    +0.000 A 
ATOM      6  C   UNL     1      46.906   8.566  12.056  0.00  0.00    +0.000 A 
ATOM      7  C   UNL     1      45.527   8.789  12.059  0.00  0.00    +0.000 A 
ATOM      8  C   UNL     1      44.656   7.689  12.077  0.00  0.00    +0.000 A 
BRANCH   7   9
ATOM      9  C   UNL     1      45.044  10.202  12.013  0.00  0.00    +0.000 C 
ATOM     10  N   UNL     1      43.709  10.454  12.165  0.00  0.00    +0.000 N 
ATOM     11  O   UNL     1      45.822  11.134  11.829  0.00  0.00    +0.000 OA
ATOM     12  H   UNL     1      42.987   9.769  12.315  0.00  0.00    +0.000 HD
ATOM     13  H   UNL     1      43.422  11.422  12.090  0.00  0.00    +0.000 HD
ENDBRANCH   7   9
ENDBRANCH   2   3
BRANCH   2  14
ATOM     14  C   UNL     1      44.963   3.906  12.457  0.00  0.00    +0.000 C 
ATOM     15  N   UNL     1      45.604   2.881  12.816  0.00  0.00    +0.000 NA
ENDBRANCH   2  14
BRANCH   2  16
ATOM     16  C   UNL     1      43.622   4.805  10.613  0.00  0.00    +0.000 C 
BRANCH  16  17
ATOM     17  O   UNL     1      43.774   3.407  10.323  0.00  0.00    +0.000 OA
BRANCH  17  18
ATOM     18  C   UNL     1      44.700   3.062   9.378  0.00  0.00    +0.000 A 
ATOM     19  C   UNL     1      45.107   1.764   9.074  0.00  0.00    +0.000 A 
ATOM     20  C   UNL     1      46.041   1.542   8.058  0.00  0.00    +0.000 A 
ATOM     21  C   UNL     1      46.570   2.614   7.332  0.00  0.00    +0.000 A 
ATOM     22  C   UNL     1      46.186   3.919   7.652  0.00  0.00    +0.000 A 
ATOM     23  C   UNL     1      45.256   4.137   8.676  0.00  0.00    +0.000 A 
BRANCH  21  24
ATOM     24  C   UNL     1      47.542   2.308   6.250  0.00  0.00    +0.000 C 
ATOM     25  N   UNL     1      47.384   2.951   5.056  0.00  0.00    +0.000 N 
ATOM     26  O   UNL     1      48.429   1.478   6.405  0.00  0.00    +0.000 OA
ATOM     27  H   UNL     1      46.554   3.474   4.813  0.00  0.00    +0.000 HD
ATOM     28  H   UNL     1      47.985   2.645   4.300  0.00  0.00    +0.000 HD
ENDBRANCH  21  24
ENDBRANCH  17  18
ENDBRANCH  16  17
ENDBRANCH   2  16
TORSDOF 7
ENDMDL
MODEL 3
REMARK VINA RESULT:    -8.095      1.780      2.091
REMARK INTER + INTRA:         -12.271
REMARK INTER:                 -11.624
REMARK INTRA:                  -0.647
REMARK UNBOUND:                -0.863
REMARK  Name = 
REMARK  8 active torsions:
REMARK  status: ('A' for Active; 'I' for Inactive)
REMARK    1  A    between atoms: C_1  and  C_2
REMARK    2  A    between atoms: C_2  and  C_3
REMARK    3  A    between atoms: C_2  and  C_5
REMARK    4  A    between atoms: C_2  and  C_16
REMARK    5  A    between atoms: C_5  and  O_6
REMARK    6  A    between atoms: O_6  and  C_7
REMARK    7  A    between atoms: C_10  and  C_11
REMARK    8  A    between atoms: C_20  and  C_21
REMARK                            x       y       z     vdW  Elec       q    Type
REMARK                         _______ _______ _______ _____ _____    ______ ____
ROOT
ATOM      1  C   UNL     1      43.027   5.476  12.915  0.00  0.00    +0.000 C 
ATOM      2  C   UNL     1      44.252   5.198  12.018  0.00  0.00    +0.000 C 
ENDROOT
BRANCH   2   3
ATOM      3  C   UNL     1      45.268   6.356  12.143  0.00  0.00    +0.000 A 
ATOM      4  C   UNL     1      44.846   7.689  11.960  0.00  0.00    +0.000 A 
ATOM      5  C   UNL     1      45.737   8.755  12.099  0.00  0.00    +0.000 A 
ATOM      6  C   UNL     1      47.069   8.516  12.439  0.00  0.00    +0.000 A 
ATOM      7  C   UNL     1      47.520   7.208  12.637  0.00  0.00    +0.000 A 
ATOM      8  C   UNL     1      46.622   6.143  12.474  0.00  0.00    +0.000 A 
BRANCH   7   9
ATOM      9  C   UNL     1      48.944   7.011  13.045  0.00  0.00    +0.000 C 
ATOM     10  N   UNL     1      49.939   7.366  12.178  0.00  0.00    +0.000 N 
ATOM     11  O   UNL     1      49.231   6.528  14.136  0.00  0.00    +0.000 OA
ATOM     12  H   UNL     1      49.817   7.764  11.262  0.00  0.00    +0.000 HD
ATOM     13  H   UNL     1      50.887   7.181  12.481  0.00  0.00    +0.000 HD
ENDBRANCH   7   9
ENDBRANCH   2   3
BRANCH   2  14
ATOM     14  C   UNL     1      44.915   3.911  12.478  0.00  0.00    +0.000 C 
ATOM     15  N   UNL     1      45.465   2.842  12.861  0.00  0.00    +0.000 NA
ENDBRANCH   2  14
BRANCH   2  16
ATOM     16  C   UNL     1      43.758   4.920  10.569  0.00  0.00    +0.000 C 
BRANCH  16  17
ATOM     17  O   UNL     1      43.853   3.521  10.259  0.00  0.00    +0.000 OA
BRANCH  17  18
ATOM     18  C   UNL     1      44.784   3.149   9.330  0.00  0.00    +0.000 A 
ATOM     19  C   UNL     1      45.156   1.839   9.031  0.00  0.00    +0.000 A 
ATOM     20  C   UNL     1      46.100   1.589   8.032  0.00  0.00    +0.000 A 
ATOM     21  C   UNL     1      46.675   2.644   7.316  0.00  0.00    +0.000 A 
ATOM     22  C   UNL     1      46.326   3.960   7.632  0.00  0.00    +0.000 A 
ATOM     23  C   UNL     1      45.386   4.206   8.639  0.00  0.00    +0.000 A 
BRANCH  21  24
ATOM     24  C   UNL     1      47.656   2.309   6.252  0.00  0.00    +0.000 C 
ATOM     25  N   UNL     1      47.658   3.082   5.125  0.00  0.00    +0.000 N 
ATOM     26  O   UNL     1      48.409   1.349   6.356  0.00  0.00    +0.000 OA
ATOM     27  H   UNL     1      46.924   3.740   4.904  0.00  0.00    +0.000 HD
ATOM     28  H   UNL     1      48.253   2.769   4.368  0.00  0.00    +0.000 HD
ENDBRANCH  21  24
ENDBRANCH  17  18
ENDBRANCH  16  17
ENDBRANCH   2  16
TORSDOF 7
ENDMDL
MODEL 4
REMARK VINA RESULT:    -7.350      2.574      6.179
REMARK INTER + INTRA:         -11.222
REMARK INTER:                 -10.075
REMARK INTRA:                  -1.147
REMARK UNBOUND:                -0.863
REMARK  Name = 
REMARK  8 active torsions:
REMARK  status: ('A' for Active; 'I' for Inactive)
REMARK    1  A    between atoms: C_1  and  C_2
REMARK    2  A    between atoms: C_2  and  C_3
REMARK    3  A    between atoms: C_2  and  C_5
REMARK    4  A    between atoms: C_2  and  C_16
REMARK    5  A    between atoms: C_5  and  O_6
REMARK    6  A    between atoms: O_6  and  C_7
REMARK    7  A    between atoms: C_10  and  C_11
REMARK    8  A    between atoms: C_20  and  C_21
REMARK                            x       y       z     vdW  Elec       q    Type
REMARK                         _______ _______ _______ _____ _____    ______ ____
ROOT
ATOM      1  C   UNL     1      43.321   2.152  11.476  0.00  0.00    +0.000 C 
ATOM      2  C   UNL     1      44.097   3.481  11.361  0.00  0.00    +0.000 C 
ENDROOT
BRANCH   2   3
ATOM      3  C   UNL     1      44.892   3.512  10.036  0.00  0.00    +0.000 A 
ATOM      4  C   UNL     1      45.153   4.741   9.397  0.00  0.00    +0.000 A 
ATOM      5  C   UNL     1      45.896   4.800   8.216  0.00  0.00    +0.000 A 
ATOM      6  C   UNL     1      46.411   3.631   7.654  0.00  0.00    +0.000 A 
ATOM      7  C   UNL     1      46.181   2.396   8.265  0.00  0.00    +0.000 A 
ATOM      8  C   UNL     1      45.415   2.346   9.439  0.00  0.00    +0.000 A 
BRANCH   7   9
ATOM      9  C   UNL     1      46.795   1.182   7.647  0.00  0.00    +0.000 C 
ATOM     10  N   UNL     1      47.745   1.338   6.677  0.00  0.00    +0.000 N 
ATOM     11  O   UNL     1      46.452   0.053   7.987  0.00  0.00    +0.000 OA
ATOM     12  H   UNL     1      48.095   2.212   6.321  0.00  0.00    +0.000 HD
ATOM     13  H   UNL     1      48.108   0.489   6.261  0.00  0.00    +0.000 HD
ENDBRANCH   7   9
ENDBRANCH   2   3
BRANCH   2  14
ATOM     14  C   UNL     1      43.104   4.631  11.365  0.00  0.00    +0.000 C 
ATOM     15  N   UNL     1      42.281   5.587  11.369  0.00  0.00    +0.000 NA
ENDBRANCH   2  14
BRANCH   2  16
ATOM     16  C   UNL     1      44.961   3.668  12.641  0.00  0.00    +0.000 C 
BRANCH  16  17
ATOM     17  O   UNL     1      44.947   5.040  13.067  0.00  0.00    +0.000 OA
BRANCH  17  18
ATOM     18  C   UNL     1      46.076   5.776  12.839  0.00  0.00    +0.000 A 
ATOM     19  C   UNL     1      47.364   5.440  13.253  0.00  0.00    +0.000 A 
ATOM     20  C   UNL     1      48.443   6.265  12.925  0.00  0.00    +0.000 A 
ATOM     21  C   UNL     1      48.247   7.429  12.174  0.00  0.00    +0.000 A 
ATOM     22  C   UNL     1      46.954   7.785  11.781  0.00  0.00    +0.000 A 
ATOM     23  C   UNL     1      45.875   6.959  12.119  0.00  0.00    +0.000 A 
BRANCH  21  24
ATOM     24  C   UNL     1      49.439   8.251  11.841  0.00  0.00    +0.000 C 
ATOM     25  N   UNL     1      50.668   7.736  12.140  0.00  0.00    +0.000 N 
ATOM     26  O   UNL     1      49.327   9.370  11.355  0.00  0.00    +0.000 OA
ATOM     27  H   UNL     1      50.801   6.925  12.727  0.00  0.00    +0.000 HD
ATOM     28  H   UNL     1      51.457   8.357  12.010  0.00  0.00    +0.000 HD
ENDBRANCH  21  24
ENDBRANCH  17  18
ENDBRANCH  16  17
ENDBRANCH   2  16
TORSDOF 7
ENDMDL
MODEL 5
REMARK VINA RESULT:    -6.572      1.872      2.644
REMARK INTER + INTRA:         -10.124
REMARK INTER:                  -9.684
REMARK INTRA:                  -0.441
REMARK UNBOUND:                -0.863
REMARK  Name = 
REMARK  8 active torsions:
REMARK  status: ('A' for Active; 'I' for Inactive)
REMARK    1  A    between atoms: C_1  and  C_2
REMARK    2  A    between atoms: C_2  and  C_3
REMARK    3  A    between atoms: C_2  and  C_5
REMARK    4  A    between atoms: C_2  and  C_16
REMARK    5  A    between atoms: C_5  and  O_6
REMARK    6  A    between atoms: O_6  and  C_7
REMARK    7  A    between atoms: C_10  and  C_11
REMARK    8  A    between atoms: C_20  and  C_21
REMARK                            x       y       z     vdW  Elec       q    Type
REMARK                         _______ _______ _______ _____ _____    ______ ____
ROOT
ATOM      1  C   UNL     1      45.488   6.058  11.460  0.00  0.00    +0.000 C 
ATOM      2  C   UNL     1      45.306   4.958  12.526  0.00  0.00    +0.000 C 
ENDROOT
BRANCH   2   3
ATOM      3  C   UNL     1      46.334   5.152  13.664  0.00  0.00    +0.000 A 
ATOM      4  C   UNL     1      46.361   4.257  14.752  0.00  0.00    +0.000 A 
ATOM      5  C   UNL     1      47.301   4.391  15.776  0.00  0.00    +0.000 A 
ATOM      6  C   UNL     1      48.247   5.415  15.729  0.00  0.00    +0.000 A 
ATOM      7  C   UNL     1      48.257   6.315  14.660  0.00  0.00    +0.000 A 
ATOM      8  C   UNL     1      47.295   6.184  13.647  0.00  0.00    +0.000 A 
BRANCH   7   9
ATOM      9  C   UNL     1      49.321   7.364  14.634  0.00  0.00    +0.000 C 
ATOM     10  N   UNL     1      50.178   7.415  13.570  0.00  0.00    +0.000 N 
ATOM     11  O   UNL     1      49.444   8.167  15.554  0.00  0.00    +0.000 OA
ATOM     12  H   UNL     1      50.170   6.806  12.769  0.00  0.00    +0.000 HD
ATOM     13  H   UNL     1      50.905   8.118  13.612  0.00  0.00    +0.000 HD
ENDBRANCH   7   9
ENDBRANCH   2   3
BRANCH   2  14
ATOM     14  C   UNL     1      43.905   5.064  13.107  0.00  0.00    +0.000 C 
ATOM     15  N   UNL     1      42.743   5.152  13.589  0.00  0.00    +0.000 NA
ENDBRANCH   2  14
BRANCH   2  16
ATOM     16  C   UNL     1      45.365   3.568  11.828  0.00  0.00    +0.000 C 
BRANCH  16  17
ATOM     17  O   UNL     1      44.561   3.563  10.638  0.00  0.00    +0.000 OA
BRANCH  17  18
ATOM     18  C   UNL     1      45.210   3.399   9.446  0.00  0.00    +0.000 A 
ATOM     19  C   UNL     1      45.617   4.424   8.594  0.00  0.00    +0.000 A 
ATOM     20  C   UNL     1      46.305   4.123   7.414  0.00  0.00    +0.000 A 
ATOM     21  C   UNL     1      46.599   2.797   7.080  0.00  0.00    +0.000 A 
ATOM     22  C   UNL     1      46.167   1.765   7.918  0.00  0.00    +0.000 A 
ATOM     23  C   UNL     1      45.472   2.070   9.094  0.00  0.00    +0.000 A 
BRANCH  21  24
ATOM     24  C   UNL     1      47.352   2.547   5.824  0.00  0.00    +0.000 C 
ATOM     25  N   UNL     1      48.666   2.193   5.933  0.00  0.00    +0.000 N 
ATOM     26  O   UNL     1      46.828   2.694   4.727  0.00  0.00    +0.000 OA
ATOM     27  H   UNL     1      49.191   2.268   6.793  0.00  0.00    +0.000 HD
ATOM     28  H   UNL     1      49.188   2.139   5.066  0.00  0.00    +0.000 HD
ENDBRANCH  21  24
ENDBRANCH  17  18
ENDBRANCH  16  17
ENDBRANCH   2  16
TORSDOF 7
ENDMDL
MODEL 6
REMARK VINA RESULT:    -6.406      3.374      6.271
REMARK INTER + INTRA:          -9.892
REMARK INTER:                  -9.178
REMARK INTRA:                  -0.714
REMARK UNBOUND:                -0.863
REMARK  Name = 
REMARK  8 active torsions:
REMARK  status: ('A' for Active; 'I' for Inactive)
REMARK    1  A    between atoms: C_1  and  C_2
REMARK    2  A    between atoms: C_2  and  C_3
REMARK    3  A    between atoms: C_2  and  C_5
REMARK    4  A    between atoms: C_2  and  C_16
REMARK    5  A    between atoms: C_5  and  O_6
REMARK    6  A    between atoms: O_6  and  C_7
REMARK    7  A    between atoms: C_10  and  C_11
REMARK    8  A    between atoms: C_20  and  C_21
REMARK                            x       y       z     vdW  Elec       q    Type
REMARK                         _______ _______ _______ _____ _____    ______ ____
ROOT
ATOM      1  C   UNL     1      48.053   6.276  18.069  0.00  0.00    +0.000 C 
ATOM      2  C   UNL     1      48.442   5.195  17.039  0.00  0.00    +0.000 C 
ENDROOT
BRANCH   2   3
ATOM      3  C   UNL     1      49.919   4.785  17.239  0.00  0.00    +0.000 A 
ATOM      4  C   UNL     1      50.930   5.766  17.236  0.00  0.00    +0.000 A 
ATOM      5  C   UNL     1      52.269   5.427  17.447  0.00  0.00    +0.000 A 
ATOM      6  C   UNL     1      52.626   4.098  17.681  0.00  0.00    +0.000 A 
ATOM      7  C   UNL     1      51.648   3.100  17.700  0.00  0.00    +0.000 A 
ATOM      8  C   UNL     1      50.310   3.449  17.466  0.00  0.00    +0.000 A 
BRANCH   7   9
ATOM      9  C   UNL     1      52.078   1.702  18.002  0.00  0.00    +0.000 C 
ATOM     10  N   UNL     1      51.238   0.667  17.699  0.00  0.00    +0.000 N 
ATOM     11  O   UNL     1      53.164   1.469  18.526  0.00  0.00    +0.000 OA
ATOM     12  H   UNL     1      50.328   0.744  17.275  0.00  0.00    +0.000 HD
ATOM     13  H   UNL     1      51.554  -0.260  17.953  0.00  0.00    +0.000 HD
ENDBRANCH   7   9
ENDBRANCH   2   3
BRANCH   2  14
ATOM     14  C   UNL     1      47.560   3.975  17.251  0.00  0.00    +0.000 C 
ATOM     15  N   UNL     1      46.829   2.963  17.428  0.00  0.00    +0.000 NA
ENDBRANCH   2  14
BRANCH   2  16
ATOM     16  C   UNL     1      48.100   5.716  15.612  0.00  0.00    +0.000 C 
BRANCH  16  17
ATOM     17  O   UNL     1      47.847   4.621  14.719  0.00  0.00    +0.000 OA
BRANCH  17  18
ATOM     18  C   UNL     1      46.876   4.798  13.772  0.00  0.00    +0.000 A 
ATOM     19  C   UNL     1      46.459   6.024  13.256  0.00  0.00    +0.000 A 
ATOM     20  C   UNL     1      45.475   6.068  12.264  0.00  0.00    +0.000 A 
ATOM     21  C   UNL     1      44.906   4.888  11.773  0.00  0.00    +0.000 A 
ATOM     22  C   UNL     1      45.301   3.659  12.308  0.00  0.00    +0.000 A 
ATOM     23  C   UNL     1      46.281   3.620  13.308  0.00  0.00    +0.000 A 
BRANCH  21  24
ATOM     24  C   UNL     1      43.882   5.003  10.703  0.00  0.00    +0.000 C 
ATOM     25  N   UNL     1      44.255   4.674   9.431  0.00  0.00    +0.000 N 
ATOM     26  O   UNL     1      42.754   5.418  10.941  0.00  0.00    +0.000 OA
ATOM     27  H   UNL     1      45.216   4.535   9.153  0.00  0.00    +0.000 HD
ATOM     28  H   UNL     1      43.578   4.868   8.702  0.00  0.00    +0.000 HD
ENDBRANCH  21  24
ENDBRANCH  17  18
ENDBRANCH  16  17
ENDBRANCH   2  16
TORSDOF 7
ENDMDL
MODEL 7
REMARK VINA RESULT:    -6.223      3.446      6.219
REMARK INTER + INTRA:          -9.632
REMARK INTER:                  -8.621
REMARK INTRA:                  -1.012
REMARK UNBOUND:                -0.863
REMARK  Name = 
REMARK  8 active torsions:
REMARK  status: ('A' for Active; 'I' for Inactive)
REMARK    1  A    between atoms: C_1  and  C_2
REMARK    2  A    between atoms: C_2  and  C_3
REMARK    3  A    between atoms: C_2  and  C_5
REMARK    4  A    between atoms: C_2  and  C_16
REMARK    5  A    between atoms: C_5  and  O_6
REMARK    6  A    between atoms: O_6  and  C_7
REMARK    7  A    between atoms: C_10  and  C_11
REMARK    8  A    between atoms: C_20  and  C_21
REMARK                            x       y       z     vdW  Elec       q    Type
REMARK                         _______ _______ _______ _____ _____    ______ ____
ROOT
ATOM      1  C   UNL     1      50.630   7.027  15.963  0.00  0.00    +0.000 C 
ATOM      2  C   UNL     1      49.130   6.781  16.225  0.00  0.00    +0.000 C 
ENDROOT
BRANCH   2   3
ATOM      3  C   UNL     1      48.918   5.347  16.764  0.00  0.00    +0.000 A 
ATOM      4  C   UNL     1      47.618   4.882  17.042  0.00  0.00    +0.000 A 
ATOM      5  C   UNL     1      47.396   3.581  17.499  0.00  0.00    +0.000 A 
ATOM      6  C   UNL     1      48.471   2.708  17.674  0.00  0.00    +0.000 A 
ATOM      7  C   UNL     1      49.774   3.132  17.399  0.00  0.00    +0.000 A 
ATOM      8  C   UNL     1      49.986   4.447  16.961  0.00  0.00    +0.000 A 
BRANCH   7   9
ATOM      9  C   UNL     1      50.882   2.143  17.558  0.00  0.00    +0.000 C 
ATOM     10  N   UNL     1      51.988   2.494  18.280  0.00  0.00    +0.000 N 
ATOM     11  O   UNL     1      50.820   1.030  17.042  0.00  0.00    +0.000 OA
ATOM     12  H   UNL     1      52.144   3.377  18.739  0.00  0.00    +0.000 HD
ATOM     13  H   UNL     1      52.729   1.807  18.332  0.00  0.00    +0.000 HD
ENDBRANCH   7   9
ENDBRANCH   2   3
BRANCH   2  14
ATOM     14  C   UNL     1      48.644   7.774  17.267  0.00  0.00    +0.000 C 
ATOM     15  N   UNL     1      48.239   8.598  18.132  0.00  0.00    +0.000 NA
ENDBRANCH   2  14
BRANCH   2  16
ATOM     16  C   UNL     1      48.334   7.111  14.928  0.00  0.00    +0.000 C 
BRANCH  16  17
ATOM     17  O   UNL     1      48.477   6.057  13.963  0.00  0.00    +0.000 OA
BRANCH  17  18
ATOM     18  C   UNL     1      47.394   5.781  13.176  0.00  0.00    +0.000 A 
ATOM     19  C   UNL     1      46.983   6.522  12.069  0.00  0.00    +0.000 A 
ATOM     20  C   UNL     1      45.873   6.113  11.325  0.00  0.00    +0.000 A 
ATOM     21  C   UNL     1      45.169   4.956  11.674  0.00  0.00    +0.000 A 
ATOM     22  C   UNL     1      45.560   4.226  12.800  0.00  0.00    +0.000 A 
ATOM     23  C   UNL     1      46.668   4.644  13.547  0.00  0.00    +0.000 A 
BRANCH  21  24
ATOM     24  C   UNL     1      44.012   4.565  10.829  0.00  0.00    +0.000 C 
ATOM     25  N   UNL     1      44.128   4.730   9.478  0.00  0.00    +0.000 N 
ATOM     26  O   UNL     1      42.971   4.148  11.324  0.00  0.00    +0.000 OA
ATOM     27  H   UNL     1      44.872   5.261   9.047  0.00  0.00    +0.000 HD
ATOM     28  H   UNL     1      43.291   4.564   8.933  0.00  0.00    +0.000 HD
ENDBRANCH  21  24
ENDBRANCH  17  18
ENDBRANCH  16  17
ENDBRANCH   2  16
TORSDOF 7
ENDMDL
MODEL 8
REMARK VINA RESULT:    -6.132      3.198      5.823
REMARK INTER + INTRA:          -9.504
REMARK INTER:                  -8.470
REMARK INTRA:                  -1.035
REMARK UNBOUND:                -0.863
REMARK  Name = 
REMARK  8 active torsions:
REMARK  status: ('A' for Active; 'I' for Inactive)
REMARK    1  A    between atoms: C_1  and  C_2
REMARK    2  A    between atoms: C_2  and  C_3
REMARK    3  A    between atoms: C_2  and  C_5
REMARK    4  A    between atoms: C_2  and  C_16
REMARK    5  A    between atoms: C_5  and  O_6
REMARK    6  A    between atoms: O_6  and  C_7
REMARK    7  A    between atoms: C_10  and  C_11
REMARK    8  A    between atoms: C_20  and  C_21
REMARK                            x       y       z     vdW  Elec       q    Type
REMARK                         _______ _______ _______ _____ _____    ______ ____
ROOT
ATOM      1  C   UNL     1      50.112   7.973  13.473  0.00  0.00    +0.000 C 
ATOM      2  C   UNL     1      49.046   7.929  14.588  0.00  0.00    +0.000 C 
ENDROOT
BRANCH   2   3
ATOM      3  C   UNL     1      49.388   6.811  15.599  0.00  0.00    +0.000 A 
ATOM      4  C   UNL     1      50.692   6.706  16.121  0.00  0.00    +0.000 A 
ATOM      5  C   UNL     1      51.020   5.726  17.061  0.00  0.00    +0.000 A 
ATOM      6  C   UNL     1      50.045   4.835  17.512  0.00  0.00    +0.000 A 
ATOM      7  C   UNL     1      48.738   4.916  17.023  0.00  0.00    +0.000 A 
ATOM      8  C   UNL     1      48.426   5.890  16.065  0.00  0.00    +0.000 A 
BRANCH   7   9
ATOM      9  C   UNL     1      47.723   3.969  17.575  0.00  0.00    +0.000 C 
ATOM     10  N   UNL     1      47.885   3.486  18.843  0.00  0.00    +0.000 N 
ATOM     11  O   UNL     1      46.758   3.611  16.906  0.00  0.00    +0.000 OA
ATOM     12  H   UNL     1      48.637   3.708  19.474  0.00  0.00    +0.000 HD
ATOM     13  H   UNL     1      47.193   2.819  19.163  0.00  0.00    +0.000 HD
ENDBRANCH   7   9
ENDBRANCH   2   3
BRANCH   2  14
ATOM     14  C   UNL     1      49.040   9.264  15.314  0.00  0.00    +0.000 C 
ATOM     15  N   UNL     1      49.034  10.371  15.918  0.00  0.00    +0.000 NA
ENDBRANCH   2  14
BRANCH   2  16
ATOM     16  C   UNL     1      47.640   7.803  13.932  0.00  0.00    +0.000 C 
BRANCH  16  17
ATOM     17  O   UNL     1      47.745   7.259  12.607  0.00  0.00    +0.000 OA
BRANCH  17  18
ATOM     18  C   UNL     1      46.817   6.324  12.240  0.00  0.00    +0.000 A 
ATOM     19  C   UNL     1      46.076   6.335  11.059  0.00  0.00    +0.000 A 
ATOM     20  C   UNL     1      45.179   5.298  10.786  0.00  0.00    +0.000 A 
ATOM     21  C   UNL     1      45.020   4.239  11.685  0.00  0.00    +0.000 A 
ATOM     22  C   UNL     1      45.739   4.240  12.884  0.00  0.00    +0.000 A 
ATOM     23  C   UNL     1      46.631   5.284  13.157  0.00  0.00    +0.000 A 
BRANCH  21  24
ATOM     24  C   UNL     1      44.066   3.158  11.325  0.00  0.00    +0.000 C 
ATOM     25  N   UNL     1      43.588   2.372  12.334  0.00  0.00    +0.000 N 
ATOM     26  O   UNL     1      43.750   2.948  10.160  0.00  0.00    +0.000 OA
ATOM     27  H   UNL     1      43.979   2.368  13.266  0.00  0.00    +0.000 HD
ATOM     28  H   UNL     1      43.031   1.574  12.054  0.00  0.00    +0.000 HD
ENDBRANCH  21  24
ENDBRANCH  17  18
ENDBRANCH  16  17
ENDBRANCH   2  16
TORSDOF 7
ENDMDL
MODEL 9
REMARK VINA RESULT:    -6.026      2.322      7.292
REMARK INTER + INTRA:          -9.355
REMARK INTER:                  -8.501
REMARK INTRA:                  -0.854
REMARK UNBOUND:                -0.863
REMARK  Name = 
REMARK  8 active torsions:
REMARK  status: ('A' for Active; 'I' for Inactive)
REMARK    1  A    between atoms: C_1  and  C_2
REMARK    2  A    between atoms: C_2  and  C_3
REMARK    3  A    between atoms: C_2  and  C_5
REMARK    4  A    between atoms: C_2  and  C_16
REMARK    5  A    between atoms: C_5  and  O_6
REMARK    6  A    between atoms: O_6  and  C_7
REMARK    7  A    between atoms: C_10  and  C_11
REMARK    8  A    between atoms: C_20  and  C_21
REMARK                            x       y       z     vdW  Elec       q    Type
REMARK                         _______ _______ _______ _____ _____    ______ ____
ROOT
ATOM      1  C   UNL     1      42.559   5.282  11.871  0.00  0.00    +0.000 C 
ATOM      2  C   UNL     1      44.090   5.113  11.779  0.00  0.00    +0.000 C 
ENDROOT
BRANCH   2   3
ATOM      3  C   UNL     1      44.440   4.077  10.687  0.00  0.00    +0.000 A 
ATOM      4  C   UNL     1      43.876   2.786  10.730  0.00  0.00    +0.000 A 
ATOM      5  C   UNL     1      44.150   1.843   9.738  0.00  0.00    +0.000 A 
ATOM      6  C   UNL     1      44.984   2.173   8.669  0.00  0.00    +0.000 A 
ATOM      7  C   UNL     1      45.554   3.446   8.588  0.00  0.00    +0.000 A 
ATOM      8  C   UNL     1      45.288   4.379   9.601  0.00  0.00    +0.000 A 
BRANCH   7   9
ATOM      9  C   UNL     1      46.401   3.762   7.399  0.00  0.00    +0.000 C 
ATOM     10  N   UNL     1      46.394   2.908   6.332  0.00  0.00    +0.000 N 
ATOM     11  O   UNL     1      47.108   4.765   7.370  0.00  0.00    +0.000 OA
ATOM     12  H   UNL     1      45.858   2.059   6.252  0.00  0.00    +0.000 HD
ATOM     13  H   UNL     1      47.010   3.142   5.563  0.00  0.00    +0.000 HD
ENDBRANCH   7   9
ENDBRANCH   2   3
BRANCH   2  14
ATOM     14  C   UNL     1      44.710   6.449  11.407  0.00  0.00    +0.000 C 
ATOM     15  N   UNL     1      45.224   7.558  11.097  0.00  0.00    +0.000 NA
ENDBRANCH   2  14
BRANCH   2  16
ATOM     16  C   UNL     1      44.642   4.775  13.195  0.00  0.00    +0.000 C 
BRANCH  16  17
ATOM     17  O   UNL     1      46.028   4.407  13.125  0.00  0.00    +0.000 OA
BRANCH  17  18
ATOM     18  C   UNL     1      46.849   4.875  14.113  0.00  0.00    +0.000 A 
ATOM     19  C   UNL     1      47.056   4.271  15.352  0.00  0.00    +0.000 A 
ATOM     20  C   UNL     1      47.951   4.836  16.266  0.00  0.00    +0.000 A 
ATOM     21  C   UNL     1      48.652   6.003  15.947  0.00  0.00    +0.000 A 
ATOM     22  C   UNL     1      48.426   6.627  14.717  0.00  0.00    +0.000 A 
ATOM     23  C   UNL     1      47.523   6.063  13.808  0.00  0.00    +0.000 A 
BRANCH  21  24
ATOM     24  C   UNL     1      49.605   6.539  16.953  0.00  0.00    +0.000 C 
ATOM     25  N   UNL     1      50.939   6.447  16.676  0.00  0.00    +0.000 N 
ATOM     26  O   UNL     1      49.214   7.009  18.015  0.00  0.00    +0.000 OA
ATOM     27  H   UNL     1      51.311   5.884  15.925  0.00  0.00    +0.000 HD
ATOM     28  H   UNL     1      51.570   6.714  17.421  0.00  0.00    +0.000 HD
ENDBRANCH  21  24
ENDBRANCH  17  18
ENDBRANCH  16  17
ENDBRANCH   2  16
TORSDOF 7
ENDMDL
