MODEL 1
REMARK VINA RESULT:    -8.865      0.000      0.000
REMARK INTER + INTRA:         -13.644
REMARK INTER:                 -12.492
REMARK INTRA:                  -1.152
REMARK UNBOUND:                -1.152
REMARK  Name = 
REMARK  7 active torsions:
REMARK  status: ('A' for Active; 'I' for Inactive)
REMARK    1  A    between atoms: C_2  and  C_3
REMARK    2  A    between atoms: C_6  and  N_7
REMARK    3  A    between atoms: N_7  and  C_8
REMARK    4  A    between atoms: C_8  and  C_9
REMARK    5  A    between atoms: C_9  and  C_12
REMARK    6  A    between atoms: C_16  and  N_17
REMARK    7  A    between atoms: N_17  and  C_18
REMARK                            x       y       z     vdW  Elec       q    Type
REMARK                         _______ _______ _______ _____ _____    ______ ____
ROOT
ATOM      1  C   UNL     1      43.664   5.308  12.089  0.00  0.00    +0.000 C 
ATOM      2  F   UNL     1      43.090   6.185  11.210  0.00  0.00    +0.000 F 
ATOM      3  F   UNL     1      42.879   5.369  13.211  0.00  0.00    +0.000 F 
ENDROOT
BRANCH   1   4
ATOM      4  C   UNL     1      45.105   5.679  12.383  0.00  0.00    +0.000 A 
ATOM      5  C   UNL     1      45.853   6.433  11.470  0.00  0.00    +0.000 A 
ATOM      6  C   UNL     1      47.178   6.772  11.753  0.00  0.00    +0.000 A 
ATOM      7  C   UNL     1      47.774   6.354  12.948  0.00  0.00    +0.000 A 
ATOM      8  C   UNL     1      47.047   5.609  13.877  0.00  0.00    +0.000 A 
ATOM      9  C   UNL     1      45.714   5.276  13.582  0.00  0.00    +0.000 A 
BRANCH   8  10
ATOM     10  N   UNL     1      47.579   5.164  15.106  0.00  0.00    +0.000 N 
ATOM     11  H   UNL     1      48.596   5.114  15.022  0.00  0.00    +0.000 HD
BRANCH  10  12
ATOM     12  C   UNL     1      47.044   4.138  15.948  0.00  0.00    +0.000 C 
ATOM     13  C   UNL     1      47.171   4.472  17.449  0.00  0.00    +0.000 C 
ATOM     14  C   UNL     1      47.724   3.049  17.669  0.00  0.00    +0.000 C 
ATOM     15  F   UNL     1      48.771   2.950  18.517  0.00  0.00    +0.000 F 
ATOM     16  F   UNL     1      46.813   2.129  18.066  0.00  0.00    +0.000 F 
ATOM     17  C   UNL     1      48.077   3.013  16.169  0.00  0.00    +0.000 C 
ENDBRANCH  10  12
ENDBRANCH   8  10
ENDBRANCH   1   4
BRANCH   1  18
ATOM     18  C   UNL     1      43.550   3.872  11.510  0.00  0.00    +0.000 C 
BRANCH  18  19
ATOM     19  N   UNL     1      43.484   3.850  10.035  0.00  0.00    +0.000 N 
ATOM     20  H   UNL     1      42.573   3.587   9.661  0.00  0.00    +0.000 HD
BRANCH  19  24
ATOM     21  C   UNL     1      46.582   2.459   7.531  0.00  0.00    +0.000 A 
ATOM     22  C   UNL     1      46.285   3.820   7.569  0.00  0.00    +0.000 A 
ATOM     23  C   UNL     1      45.274   4.301   8.410  0.00  0.00    +0.000 A 
ATOM     24  C   UNL     1      44.561   3.442   9.258  0.00  0.00    +0.000 A 
ATOM     25  C   UNL     1      44.867   2.074   9.200  0.00  0.00    +0.000 A 
ATOM     26  C   UNL     1      45.870   1.582   8.350  0.00  0.00    +0.000 A 
BRANCH  21  28
ATOM     27  N   UNL     1      48.419   1.573   5.932  0.00  0.00    +0.000 NA
ATOM     28  C   UNL     1      47.598   1.965   6.648  0.00  0.00    +0.000 C 
ENDBRANCH  21  28
ENDBRANCH  19  24
ENDBRANCH  18  19
ENDBRANCH   1  18
TORSDOF 7
ENDMDL
MODEL 2
REMARK VINA RESULT:    -7.802      2.806      4.612
REMARK INTER + INTRA:         -12.146
REMARK INTER:                 -11.147
REMARK INTRA:                  -0.999
REMARK UNBOUND:                -1.152
REMARK  Name = 
REMARK  7 active torsions:
REMARK  status: ('A' for Active; 'I' for Inactive)
REMARK    1  A    between atoms: C_2  and  C_3
REMARK    2  A    between atoms: C_6  and  N_7
REMARK    3  A    between atoms: N_7  and  C_8
REMARK    4  A    between atoms: C_8  and  C_9
REMARK    5  A    between atoms: C_9  and  C_12
REMARK    6  A    between atoms: C_16  and  N_17
REMARK    7  A    between atoms: N_17  and  C_18
REMARK                            x       y       z     vdW  Elec       q    Type
REMARK                         _______ _______ _______ _____ _____    ______ ____
ROOT
ATOM      1  C   UNL     1      43.313   4.914  12.573  0.00  0.00    +0.000 C 
ATOM      2  F   UNL     1      42.547   6.007  12.275  0.00  0.00    +0.000 F 
ATOM      3  F   UNL     1      42.690   4.328  13.643  0.00  0.00    +0.000 F 
ENDROOT
BRANCH   1   4
ATOM      4  C   UNL     1      44.742   5.308  12.894  0.00  0.00    +0.000 A 
ATOM      5  C   UNL     1      45.673   4.350  13.315  0.00  0.00    +0.000 A 
ATOM      6  C   UNL     1      46.987   4.722  13.604  0.00  0.00    +0.000 A 
ATOM      7  C   UNL     1      47.385   6.058  13.484  0.00  0.00    +0.000 A 
ATOM      8  C   UNL     1      46.479   7.029  13.058  0.00  0.00    +0.000 A 
ATOM      9  C   UNL     1      45.159   6.642  12.769  0.00  0.00    +0.000 A 
BRANCH   8  10
ATOM     10  N   UNL     1      46.813   8.392  12.904  0.00  0.00    +0.000 N 
ATOM     11  H   UNL     1      46.209   8.797  12.187  0.00  0.00    +0.000 HD
BRANCH  10  12
ATOM     12  C   UNL     1      48.130   8.954  12.898  0.00  0.00    +0.000 C 
ATOM     13  C   UNL     1      48.131  10.465  12.594  0.00  0.00    +0.000 C 
ATOM     14  C   UNL     1      49.261  10.210  11.575  0.00  0.00    +0.000 C 
ATOM     15  F   UNL     1      49.162  10.884  10.408  0.00  0.00    +0.000 F 
ATOM     16  F   UNL     1      50.516  10.417  12.038  0.00  0.00    +0.000 F 
ATOM     17  C   UNL     1      48.814   8.736  11.531  0.00  0.00    +0.000 C 
ENDBRANCH  10  12
ENDBRANCH   8  10
ENDBRANCH   1   4
BRANCH   1  18
ATOM     18  C   UNL     1      43.248   3.918  11.383  0.00  0.00    +0.000 C 
BRANCH  18  19
ATOM     19  N   UNL     1      43.702   4.511  10.110  0.00  0.00    +0.000 N 
ATOM     20  H   UNL     1      42.997   5.077   9.637  0.00  0.00    +0.000 HD
BRANCH  19  24
ATOM     21  C   UNL     1      46.530   2.598   7.632  0.00  0.00    +0.000 A 
ATOM     22  C   UNL     1      45.712   1.833   8.463  0.00  0.00    +0.000 A 
ATOM     23  C   UNL     1      44.753   2.451   9.275  0.00  0.00    +0.000 A 
ATOM     24  C   UNL     1      44.565   3.840   9.254  0.00  0.00    +0.000 A 
ATOM     25  C   UNL     1      45.404   4.594   8.419  0.00  0.00    +0.000 A 
ATOM     26  C   UNL     1      46.376   3.984   7.611  0.00  0.00    +0.000 A 
BRANCH  21  28
ATOM     27  N   UNL     1      48.332   1.455   6.162  0.00  0.00    +0.000 NA
ATOM     28  C   UNL     1      47.530   1.966   6.822  0.00  0.00    +0.000 C 
ENDBRANCH  21  28
ENDBRANCH  19  24
ENDBRANCH  18  19
ENDBRANCH   1  18
TORSDOF 7
ENDMDL
MODEL 3
REMARK VINA RESULT:    -7.669      2.091      2.452
REMARK INTER + INTRA:         -11.959
REMARK INTER:                 -10.882
REMARK INTRA:                  -1.077
REMARK UNBOUND:                -1.152
REMARK  Name = 
REMARK  7 active torsions:
REMARK  status: ('A' for Active; 'I' for Inactive)
REMARK    1  A    between atoms: C_2  and  C_3
REMARK    2  A    between atoms: C_6  and  N_7
REMARK    3  A    between atoms: N_7  and  C_8
REMARK    4  A    between atoms: C_8  and  C_9
REMARK    5  A    between atoms: C_9  and  C_12
REMARK    6  A    between atoms: C_16  and  N_17
REMARK    7  A    between atoms: N_17  and  C_18
REMARK                            x       y       z     vdW  Elec       q    Type
REMARK                         _______ _______ _______ _____ _____    ______ ____
ROOT
ATOM      1  C   UNL     1      44.397   4.747  12.356  0.00  0.00    +0.000 C 
ATOM      2  F   UNL     1      43.472   5.111  13.295  0.00  0.00    +0.000 F 
ATOM      3  F   UNL     1      44.525   3.390  12.495  0.00  0.00    +0.000 F 
ENDROOT
BRANCH   1   4
ATOM      4  C   UNL     1      45.715   5.466  12.566  0.00  0.00    +0.000 A 
ATOM      5  C   UNL     1      46.292   6.224  11.539  0.00  0.00    +0.000 A 
ATOM      6  C   UNL     1      47.504   6.885  11.745  0.00  0.00    +0.000 A 
ATOM      7  C   UNL     1      48.160   6.791  12.977  0.00  0.00    +0.000 A 
ATOM      8  C   UNL     1      47.601   6.049  14.018  0.00  0.00    +0.000 A 
ATOM      9  C   UNL     1      46.381   5.389  13.800  0.00  0.00    +0.000 A 
BRANCH   8  10
ATOM     10  N   UNL     1      48.201   5.920  15.289  0.00  0.00    +0.000 N 
ATOM     11  H   UNL     1      47.628   5.295  15.858  0.00  0.00    +0.000 HD
BRANCH  10  12
ATOM     12  C   UNL     1      48.810   6.963  16.058  0.00  0.00    +0.000 C 
ATOM     13  C   UNL     1      50.350   6.912  16.017  0.00  0.00    +0.000 C 
ATOM     14  C   UNL     1      50.348   7.078  17.551  0.00  0.00    +0.000 C 
ATOM     15  F   UNL     1      51.232   6.310  18.226  0.00  0.00    +0.000 F 
ATOM     16  F   UNL     1      50.514   8.345  17.996  0.00  0.00    +0.000 F 
ATOM     17  C   UNL     1      48.892   6.571  17.549  0.00  0.00    +0.000 C 
ENDBRANCH  10  12
ENDBRANCH   8  10
ENDBRANCH   1   4
BRANCH   1  18
ATOM     18  C   UNL     1      43.813   5.025  10.944  0.00  0.00    +0.000 C 
BRANCH  18  19
ATOM     19  N   UNL     1      43.733   3.813  10.105  0.00  0.00    +0.000 N 
ATOM     20  H   UNL     1      43.236   3.036  10.539  0.00  0.00    +0.000 HD
BRANCH  19  24
ATOM     21  C   UNL     1      46.715   2.499   7.426  0.00  0.00    +0.000 A 
ATOM     22  C   UNL     1      46.408   3.856   7.503  0.00  0.00    +0.000 A 
ATOM     23  C   UNL     1      45.436   4.312   8.402  0.00  0.00    +0.000 A 
ATOM     24  C   UNL     1      44.773   3.430   9.268  0.00  0.00    +0.000 A 
ATOM     25  C   UNL     1      45.090   2.067   9.171  0.00  0.00    +0.000 A 
ATOM     26  C   UNL     1      46.053   1.600   8.263  0.00  0.00    +0.000 A 
BRANCH  21  28
ATOM     27  N   UNL     1      48.482   1.648   5.730  0.00  0.00    +0.000 NA
ATOM     28  C   UNL     1      47.691   2.031   6.484  0.00  0.00    +0.000 C 
ENDBRANCH  21  28
ENDBRANCH  19  24
ENDBRANCH  18  19
ENDBRANCH   1  18
TORSDOF 7
ENDMDL
MODEL 4
REMARK VINA RESULT:    -7.471      3.093      5.894
REMARK INTER + INTRA:         -11.681
REMARK INTER:                 -10.877
REMARK INTRA:                  -0.804
REMARK UNBOUND:                -1.152
REMARK  Name = 
REMARK  7 active torsions:
REMARK  status: ('A' for Active; 'I' for Inactive)
REMARK    1  A    between atoms: C_2  and  C_3
REMARK    2  A    between atoms: C_6  and  N_7
REMARK    3  A    between atoms: N_7  and  C_8
REMARK    4  A    between atoms: C_8  and  C_9
REMARK    5  A    between atoms: C_9  and  C_12
REMARK    6  A    between atoms: C_16  and  N_17
REMARK    7  A    between atoms: N_17  and  C_18
REMARK                            x       y       z     vdW  Elec       q    Type
REMARK                         _______ _______ _______ _____ _____    ______ ____
ROOT
ATOM      1  C   UNL     1      45.160   5.114  12.595  0.00  0.00    +0.000 C 
ATOM      2  F   UNL     1      45.020   4.785  13.915  0.00  0.00    +0.000 F 
ATOM      3  F   UNL     1      46.008   4.167  12.083  0.00  0.00    +0.000 F 
ENDROOT
BRANCH   1   4
ATOM      4  C   UNL     1      45.709   6.518  12.427  0.00  0.00    +0.000 A 
ATOM      5  C   UNL     1      47.072   6.732  12.190  0.00  0.00    +0.000 A 
ATOM      6  C   UNL     1      47.566   8.029  12.033  0.00  0.00    +0.000 A 
ATOM      7  C   UNL     1      46.705   9.128  12.119  0.00  0.00    +0.000 A 
ATOM      8  C   UNL     1      45.341   8.939  12.346  0.00  0.00    +0.000 A 
ATOM      9  C   UNL     1      44.855   7.630  12.501  0.00  0.00    +0.000 A 
BRANCH   8  10
ATOM     10  N   UNL     1      44.413   9.999  12.434  0.00  0.00    +0.000 N 
ATOM     11  H   UNL     1      43.787   9.821  13.220  0.00  0.00    +0.000 HD
BRANCH  10  12
ATOM     12  C   UNL     1      43.756  10.653  11.343  0.00  0.00    +0.000 C 
ATOM     13  C   UNL     1      42.375  11.219  11.731  0.00  0.00    +0.000 C 
ATOM     14  C   UNL     1      41.805  10.575  10.451  0.00  0.00    +0.000 C 
ATOM     15  F   UNL     1      40.601   9.975  10.582  0.00  0.00    +0.000 F 
ATOM     16  F   UNL     1      41.715  11.397   9.380  0.00  0.00    +0.000 F 
ATOM     17  C   UNL     1      43.023   9.630  10.450  0.00  0.00    +0.000 C 
ENDBRANCH  10  12
ENDBRANCH   8  10
ENDBRANCH   1   4
BRANCH   1  18
ATOM     18  C   UNL     1      43.786   4.949  11.890  0.00  0.00    +0.000 C 
BRANCH  18  19
ATOM     19  N   UNL     1      43.871   5.097  10.423  0.00  0.00    +0.000 N 
ATOM     20  H   UNL     1      42.981   5.310   9.973  0.00  0.00    +0.000 HD
BRANCH  19  24
ATOM     21  C   UNL     1      46.264   2.650   7.957  0.00  0.00    +0.000 A 
ATOM     22  C   UNL     1      46.428   4.034   7.922  0.00  0.00    +0.000 A 
ATOM     23  C   UNL     1      45.657   4.859   8.750  0.00  0.00    +0.000 A 
ATOM     24  C   UNL     1      44.730   4.322   9.655  0.00  0.00    +0.000 A 
ATOM     25  C   UNL     1      44.572   2.929   9.670  0.00  0.00    +0.000 A 
ATOM     26  C   UNL     1      45.331   2.095   8.834  0.00  0.00    +0.000 A 
BRANCH  21  28
ATOM     27  N   UNL     1      47.658   1.124   6.393  0.00  0.00    +0.000 NA
ATOM     28  C   UNL     1      47.034   1.808   7.089  0.00  0.00    +0.000 C 
ENDBRANCH  21  28
ENDBRANCH  19  24
ENDBRANCH  18  19
ENDBRANCH   1  18
TORSDOF 7
ENDMDL
MODEL 5
REMARK VINA RESULT:    -7.388      3.085      8.237
REMARK INTER + INTRA:         -11.563
REMARK INTER:                 -10.759
REMARK INTRA:                  -0.804
REMARK UNBOUND:                -1.152
REMARK  Name = 
REMARK  7 active torsions:
REMARK  status: ('A' for Active; 'I' for Inactive)
REMARK    1  A    between atoms: C_2  and  C_3
REMARK    2  A    between atoms: C_6  and  N_7
REMARK    3  A    between atoms: N_7  and  C_8
REMARK    4  A    between atoms: C_8  and  C_9
REMARK    5  A    between atoms: C_9  and  C_12
REMARK    6  A    between atoms: C_16  and  N_17
REMARK    7  A    between atoms: N_17  and  C_18
REMARK                            x       y       z     vdW  Elec       q    Type
REMARK                         _______ _______ _______ _____ _____    ______ ____
ROOT
ATOM      1  C   UNL     1      46.700   5.315  13.594  0.00  0.00    +0.000 C 
ATOM      2  F   UNL     1      46.695   6.615  14.020  0.00  0.00    +0.000 F 
ATOM      3  F   UNL     1      47.870   5.179  12.893  0.00  0.00    +0.000 F 
ENDROOT
BRANCH   1   4
ATOM      4  C   UNL     1      45.487   5.005  12.741  0.00  0.00    +0.000 A 
ATOM      5  C   UNL     1      44.341   5.809  12.801  0.00  0.00    +0.000 A 
ATOM      6  C   UNL     1      43.231   5.516  12.008  0.00  0.00    +0.000 A 
ATOM      7  C   UNL     1      43.247   4.411  11.150  0.00  0.00    +0.000 A 
ATOM      8  C   UNL     1      44.379   3.600  11.066  0.00  0.00    +0.000 A 
ATOM      9  C   UNL     1      45.491   3.905  11.868  0.00  0.00    +0.000 A 
BRANCH   8  10
ATOM     10  N   UNL     1      44.469   2.477  10.216  0.00  0.00    +0.000 N 
ATOM     11  H   UNL     1      45.044   1.767  10.673  0.00  0.00    +0.000 HD
BRANCH  10  12
ATOM     12  C   UNL     1      44.638   2.492   8.794  0.00  0.00    +0.000 C 
ATOM     13  C   UNL     1      45.971   1.859   8.345  0.00  0.00    +0.000 C 
ATOM     14  C   UNL     1      46.190   3.084   7.435  0.00  0.00    +0.000 C 
ATOM     15  F   UNL     1      47.447   3.580   7.409  0.00  0.00    +0.000 F 
ATOM     16  F   UNL     1      45.809   2.923   6.146  0.00  0.00    +0.000 F 
ATOM     17  C   UNL     1      45.190   3.853   8.320  0.00  0.00    +0.000 C 
ENDBRANCH  10  12
ENDBRANCH   8  10
ENDBRANCH   1   4
BRANCH   1  18
ATOM     18  C   UNL     1      46.781   4.383  14.834  0.00  0.00    +0.000 C 
BRANCH  18  19
ATOM     19  N   UNL     1      47.322   5.060  16.029  0.00  0.00    +0.000 N 
ATOM     20  H   UNL     1      47.185   6.071  16.035  0.00  0.00    +0.000 HD
BRANCH  19  24
ATOM     21  C   UNL     1      50.929   3.627  17.682  0.00  0.00    +0.000 A 
ATOM     22  C   UNL     1      50.783   4.989  17.424  0.00  0.00    +0.000 A 
ATOM     23  C   UNL     1      49.585   5.484  16.895  0.00  0.00    +0.000 A 
ATOM     24  C   UNL     1      48.494   4.639  16.644  0.00  0.00    +0.000 A 
ATOM     25  C   UNL     1      48.663   3.271  16.903  0.00  0.00    +0.000 A 
ATOM     26  C   UNL     1      49.865   2.764  17.420  0.00  0.00    +0.000 A 
BRANCH  21  28
ATOM     27  N   UNL     1      53.167   2.701  18.606  0.00  0.00    +0.000 NA
ATOM     28  C   UNL     1      52.167   3.118  18.197  0.00  0.00    +0.000 C 
ENDBRANCH  21  28
ENDBRANCH  19  24
ENDBRANCH  18  19
ENDBRANCH   1  18
TORSDOF 7
ENDMDL
MODEL 6
REMARK VINA RESULT:    -7.314      2.728      8.297
REMARK INTER + INTRA:         -11.459
REMARK INTER:                 -10.810
REMARK INTRA:                  -0.649
REMARK UNBOUND:                -1.152
REMARK  Name = 
REMARK  7 active torsions:
REMARK  status: ('A' for Active; 'I' for Inactive)
REMARK    1  A    between atoms: C_2  and  C_3
REMARK    2  A    between atoms: C_6  and  N_7
REMARK    3  A    between atoms: N_7  and  C_8
REMARK    4  A    between atoms: C_8  and  C_9
REMARK    5  A    between atoms: C_9  and  C_12
REMARK    6  A    between atoms: C_16  and  N_17
REMARK    7  A    between atoms: N_17  and  C_18
REMARK                            x       y       z     vdW  Elec       q    Type
REMARK                         _______ _______ _______ _____ _____    ______ ____
ROOT
ATOM      1  C   UNL     1      46.360   6.503  12.661  0.00  0.00    +0.000 C 
ATOM      2  F   UNL     1      45.909   7.582  13.371  0.00  0.00    +0.000 F 
ATOM      3  F   UNL     1      46.965   7.038  11.554  0.00  0.00    +0.000 F 
ENDROOT
BRANCH   1   4
ATOM      4  C   UNL     1      45.227   5.566  12.294  0.00  0.00    +0.000 A 
ATOM      5  C   UNL     1      43.928   5.787  12.771  0.00  0.00    +0.000 A 
ATOM      6  C   UNL     1      42.891   4.920  12.422  0.00  0.00    +0.000 A 
ATOM      7  C   UNL     1      43.139   3.816  11.600  0.00  0.00    +0.000 A 
ATOM      8  C   UNL     1      44.423   3.579  11.106  0.00  0.00    +0.000 A 
ATOM      9  C   UNL     1      45.458   4.459  11.462  0.00  0.00    +0.000 A 
BRANCH   8  10
ATOM     10  N   UNL     1      44.743   2.492  10.264  0.00  0.00    +0.000 N 
ATOM     11  H   UNL     1      45.504   1.962  10.691  0.00  0.00    +0.000 HD
BRANCH  10  12
ATOM     12  C   UNL     1      44.819   2.512   8.834  0.00  0.00    +0.000 C 
ATOM     13  C   UNL     1      46.097   1.838   8.296  0.00  0.00    +0.000 C 
ATOM     14  C   UNL     1      46.297   3.062   7.379  0.00  0.00    +0.000 C 
ATOM     15  F   UNL     1      47.566   3.515   7.272  0.00  0.00    +0.000 F 
ATOM     16  F   UNL     1      45.828   2.922   6.116  0.00  0.00    +0.000 F 
ATOM     17  C   UNL     1      45.384   3.857   8.332  0.00  0.00    +0.000 C 
ENDBRANCH  10  12
ENDBRANCH   8  10
ENDBRANCH   1   4
BRANCH   1  18
ATOM     18  C   UNL     1      47.454   5.779  13.494  0.00  0.00    +0.000 C 
BRANCH  18  19
ATOM     19  N   UNL     1      46.899   4.994  14.614  0.00  0.00    +0.000 N 
ATOM     20  H   UNL     1      45.884   5.049  14.700  0.00  0.00    +0.000 HD
BRANCH  19  24
ATOM     21  C   UNL     1      48.835   4.843  18.359  0.00  0.00    +0.000 A 
ATOM     22  C   UNL     1      47.886   3.875  18.034  0.00  0.00    +0.000 A 
ATOM     23  C   UNL     1      47.250   3.898  16.787  0.00  0.00    +0.000 A 
ATOM     24  C   UNL     1      47.569   4.865  15.823  0.00  0.00    +0.000 A 
ATOM     25  C   UNL     1      48.520   5.836  16.171  0.00  0.00    +0.000 A 
ATOM     26  C   UNL     1      49.153   5.828  17.424  0.00  0.00    +0.000 A 
BRANCH  21  28
ATOM     27  N   UNL     1      49.981   4.827  20.684  0.00  0.00    +0.000 NA
ATOM     28  C   UNL     1      49.465   4.834  19.647  0.00  0.00    +0.000 C 
ENDBRANCH  21  28
ENDBRANCH  19  24
ENDBRANCH  18  19
ENDBRANCH   1  18
TORSDOF 7
ENDMDL
MODEL 7
REMARK VINA RESULT:    -7.262      3.184      4.444
REMARK INTER + INTRA:         -11.385
REMARK INTER:                 -10.302
REMARK INTRA:                  -1.083
REMARK UNBOUND:                -1.152
REMARK  Name = 
REMARK  7 active torsions:
REMARK  status: ('A' for Active; 'I' for Inactive)
REMARK    1  A    between atoms: C_2  and  C_3
REMARK    2  A    between atoms: C_6  and  N_7
REMARK    3  A    between atoms: N_7  and  C_8
REMARK    4  A    between atoms: C_8  and  C_9
REMARK    5  A    between atoms: C_9  and  C_12
REMARK    6  A    between atoms: C_16  and  N_17
REMARK    7  A    between atoms: N_17  and  C_18
REMARK                            x       y       z     vdW  Elec       q    Type
REMARK                         _______ _______ _______ _____ _____    ______ ____
ROOT
ATOM      1  C   UNL     1      44.520   4.355  12.443  0.00  0.00    +0.000 C 
ATOM      2  F   UNL     1      43.945   4.176  13.670  0.00  0.00    +0.000 F 
ATOM      3  F   UNL     1      45.394   3.308  12.307  0.00  0.00    +0.000 F 
ENDROOT
BRANCH   1   4
ATOM      4  C   UNL     1      45.222   5.696  12.348  0.00  0.00    +0.000 A 
ATOM      5  C   UNL     1      44.494   6.892  12.396  0.00  0.00    +0.000 A 
ATOM      6  C   UNL     1      45.150   8.121  12.311  0.00  0.00    +0.000 A 
ATOM      7  C   UNL     1      46.541   8.171  12.169  0.00  0.00    +0.000 A 
ATOM      8  C   UNL     1      47.289   6.994  12.127  0.00  0.00    +0.000 A 
ATOM      9  C   UNL     1      46.618   5.763  12.215  0.00  0.00    +0.000 A 
BRANCH   8  10
ATOM     10  N   UNL     1      48.694   6.968  11.997  0.00  0.00    +0.000 N 
ATOM     11  H   UNL     1      49.077   6.342  12.707  0.00  0.00    +0.000 HD
BRANCH  10  12
ATOM     12  C   UNL     1      49.548   8.086  11.729  0.00  0.00    +0.000 C 
ATOM     13  C   UNL     1      50.896   7.670  11.106  0.00  0.00    +0.000 C 
ATOM     14  C   UNL     1      51.597   8.588  12.128  0.00  0.00    +0.000 C 
ATOM     15  F   UNL     1      52.722   8.092  12.689  0.00  0.00    +0.000 F 
ATOM     16  F   UNL     1      51.901   9.829  11.679  0.00  0.00    +0.000 F 
ATOM     17  C   UNL     1      50.326   8.500  12.996  0.00  0.00    +0.000 C 
ENDBRANCH  10  12
ENDBRANCH   8  10
ENDBRANCH   1   4
BRANCH   1  18
ATOM     18  C   UNL     1      43.427   4.203  11.351  0.00  0.00    +0.000 C 
BRANCH  18  19
ATOM     19  N   UNL     1      43.841   4.746  10.042  0.00  0.00    +0.000 N 
ATOM     20  H   UNL     1      43.121   5.294   9.570  0.00  0.00    +0.000 HD
BRANCH  19  24
ATOM     21  C   UNL     1      46.589   2.705   7.577  0.00  0.00    +0.000 A 
ATOM     22  C   UNL     1      45.674   1.978   8.337  0.00  0.00    +0.000 A 
ATOM     23  C   UNL     1      44.741   2.641   9.144  0.00  0.00    +0.000 A 
ATOM     24  C   UNL     1      44.676   4.041   9.186  0.00  0.00    +0.000 A 
ATOM     25  C   UNL     1      45.611   4.755   8.421  0.00  0.00    +0.000 A 
ATOM     26  C   UNL     1      46.558   4.099   7.620  0.00  0.00    +0.000 A 
BRANCH  21  28
ATOM     27  N   UNL     1      48.351   1.481   6.121  0.00  0.00    +0.000 NA
ATOM     28  C   UNL     1      47.563   2.024   6.774  0.00  0.00    +0.000 C 
ENDBRANCH  21  28
ENDBRANCH  19  24
ENDBRANCH  18  19
ENDBRANCH   1  18
TORSDOF 7
ENDMDL
MODEL 8
REMARK VINA RESULT:    -6.995      2.780      3.184
REMARK INTER + INTRA:         -11.009
REMARK INTER:                 -10.065
REMARK INTRA:                  -0.945
REMARK UNBOUND:                -1.152
REMARK  Name = 
REMARK  7 active torsions:
REMARK  status: ('A' for Active; 'I' for Inactive)
REMARK    1  A    between atoms: C_2  and  C_3
REMARK    2  A    between atoms: C_6  and  N_7
REMARK    3  A    between atoms: N_7  and  C_8
REMARK    4  A    between atoms: C_8  and  C_9
REMARK    5  A    between atoms: C_9  and  C_12
REMARK    6  A    between atoms: C_16  and  N_17
REMARK    7  A    between atoms: N_17  and  C_18
REMARK                            x       y       z     vdW  Elec       q    Type
REMARK                         _______ _______ _______ _____ _____    ______ ____
ROOT
ATOM      1  C   UNL     1      43.474   5.630  11.540  0.00  0.00    +0.000 C 
ATOM      2  F   UNL     1      42.902   5.777  10.307  0.00  0.00    +0.000 F 
ATOM      3  F   UNL     1      42.419   5.524  12.408  0.00  0.00    +0.000 F 
ENDROOT
BRANCH   1   4
ATOM      4  C   UNL     1      44.374   6.802  11.880  0.00  0.00    +0.000 A 
ATOM      5  C   UNL     1      44.201   8.044  11.256  0.00  0.00    +0.000 A 
ATOM      6  C   UNL     1      45.033   9.118  11.580  0.00  0.00    +0.000 A 
ATOM      7  C   UNL     1      46.053   8.962  12.524  0.00  0.00    +0.000 A 
ATOM      8  C   UNL     1      46.240   7.736  13.165  0.00  0.00    +0.000 A 
ATOM      9  C   UNL     1      45.396   6.664  12.833  0.00  0.00    +0.000 A 
BRANCH   8  10
ATOM     10  N   UNL     1      47.240   7.510  14.134  0.00  0.00    +0.000 N 
ATOM     11  H   UNL     1      46.790   7.349  15.037  0.00  0.00    +0.000 HD
BRANCH  10  12
ATOM     12  C   UNL     1      48.486   8.205  14.256  0.00  0.00    +0.000 C 
ATOM     13  C   UNL     1      49.679   7.389  13.718  0.00  0.00    +0.000 C 
ATOM     14  C   UNL     1      50.440   7.740  15.012  0.00  0.00    +0.000 C 
ATOM     15  F   UNL     1      51.153   6.734  15.566  0.00  0.00    +0.000 F 
ATOM     16  F   UNL     1      51.273   8.804  14.924  0.00  0.00    +0.000 F 
ATOM     17  C   UNL     1      49.077   8.031  15.671  0.00  0.00    +0.000 C 
ENDBRANCH  10  12
ENDBRANCH   8  10
ENDBRANCH   1   4
BRANCH   1  18
ATOM     18  C   UNL     1      44.250   4.285  11.574  0.00  0.00    +0.000 C 
BRANCH  18  19
ATOM     19  N   UNL     1      43.971   3.430  10.403  0.00  0.00    +0.000 N 
ATOM     20  H   UNL     1      43.365   2.634  10.601  0.00  0.00    +0.000 HD
BRANCH  19  24
ATOM     21  C   UNL     1      46.690   2.556   7.298  0.00  0.00    +0.000 A 
ATOM     22  C   UNL     1      46.333   3.880   7.549  0.00  0.00    +0.000 A 
ATOM     23  C   UNL     1      45.449   4.189   8.590  0.00  0.00    +0.000 A 
ATOM     24  C   UNL     1      44.927   3.190   9.424  0.00  0.00    +0.000 A 
ATOM     25  C   UNL     1      45.291   1.863   9.151  0.00  0.00    +0.000 A 
ATOM     26  C   UNL     1      46.166   1.543   8.102  0.00  0.00    +0.000 A 
BRANCH  21  28
ATOM     27  N   UNL     1      48.286   1.975   5.340  0.00  0.00    +0.000 NA
ATOM     28  C   UNL     1      47.574   2.239   6.214  0.00  0.00    +0.000 C 
ENDBRANCH  21  28
ENDBRANCH  19  24
ENDBRANCH  18  19
ENDBRANCH   1  18
TORSDOF 7
ENDMDL
MODEL 9
REMARK VINA RESULT:    -6.784      3.158      8.675
REMARK INTER + INTRA:         -10.712
REMARK INTER:                  -9.812
REMARK INTRA:                  -0.900
REMARK UNBOUND:                -1.152
REMARK  Name = 
REMARK  7 active torsions:
REMARK  status: ('A' for Active; 'I' for Inactive)
REMARK    1  A    between atoms: C_2  and  C_3
REMARK    2  A    between atoms: C_6  and  N_7
REMARK    3  A    between atoms: N_7  and  C_8
REMARK    4  A    between atoms: C_8  and  C_9
REMARK    5  A    between atoms: C_9  and  C_12
REMARK    6  A    between atoms: C_16  and  N_17
REMARK    7  A    between atoms: N_17  and  C_18
REMARK                            x       y       z     vdW  Elec       q    Type
REMARK                         _______ _______ _______ _____ _____    ______ ____
ROOT
ATOM      1  C   UNL     1      46.544   4.769  13.824  0.00  0.00    +0.000 C 
ATOM      2  F   UNL     1      47.528   3.850  13.584  0.00  0.00    +0.000 F 
ATOM      3  F   UNL     1      46.251   4.630  15.156  0.00  0.00    +0.000 F 
ENDROOT
BRANCH   1   4
ATOM      4  C   UNL     1      45.332   4.529  12.947  0.00  0.00    +0.000 A 
ATOM      5  C   UNL     1      44.181   5.317  13.080  0.00  0.00    +0.000 A 
ATOM      6  C   UNL     1      43.072   5.089  12.264  0.00  0.00    +0.000 A 
ATOM      7  C   UNL     1      43.094   4.066  11.310  0.00  0.00    +0.000 A 
ATOM      8  C   UNL     1      44.231   3.273  11.153  0.00  0.00    +0.000 A 
ATOM      9  C   UNL     1      45.342   3.512  11.978  0.00  0.00    +0.000 A 
BRANCH   8  10
ATOM     10  N   UNL     1      44.328   2.232  10.205  0.00  0.00    +0.000 N 
ATOM     11  H   UNL     1      44.874   1.470  10.611  0.00  0.00    +0.000 HD
BRANCH  10  12
ATOM     12  C   UNL     1      44.544   2.375   8.796  0.00  0.00    +0.000 C 
ATOM     13  C   UNL     1      45.986   2.023   8.376  0.00  0.00    +0.000 C 
ATOM     14  C   UNL     1      46.012   3.327   7.554  0.00  0.00    +0.000 C 
ATOM     15  F   UNL     1      47.159   4.040   7.620  0.00  0.00    +0.000 F 
ATOM     16  F   UNL     1      45.715   3.190   6.240  0.00  0.00    +0.000 F 
ATOM     17  C   UNL     1      44.857   3.842   8.434  0.00  0.00    +0.000 C 
ENDBRANCH  10  12
ENDBRANCH   8  10
ENDBRANCH   1   4
BRANCH   1  18
ATOM     18  C   UNL     1      47.129   6.193  13.615  0.00  0.00    +0.000 C 
BRANCH  18  19
ATOM     19  N   UNL     1      48.495   6.339  14.155  0.00  0.00    +0.000 N 
ATOM     20  H   UNL     1      49.158   5.648  13.807  0.00  0.00    +0.000 HD
BRANCH  19  24
ATOM     21  C   UNL     1      48.952   7.677  18.130  0.00  0.00    +0.000 A 
ATOM     22  C   UNL     1      49.055   6.317  17.845  0.00  0.00    +0.000 A 
ATOM     23  C   UNL     1      48.927   5.858  16.528  0.00  0.00    +0.000 A 
ATOM     24  C   UNL     1      48.728   6.747  15.462  0.00  0.00    +0.000 A 
ATOM     25  C   UNL     1      48.618   8.112  15.770  0.00  0.00    +0.000 A 
ATOM     26  C   UNL     1      48.732   8.579  17.088  0.00  0.00    +0.000 A 
BRANCH  21  28
ATOM     27  N   UNL     1      49.142   8.511  20.577  0.00  0.00    +0.000 NA
ATOM     28  C   UNL     1      49.055   8.142  19.483  0.00  0.00    +0.000 C 
ENDBRANCH  21  28
ENDBRANCH  19  24
ENDBRANCH  18  19
ENDBRANCH   1  18
TORSDOF 7
ENDMDL
