MODEL 1
REMARK VINA RESULT:    -8.778      0.000      0.000
REMARK INTER + INTRA:         -11.948
REMARK INTER:                 -11.344
REMARK INTRA:                  -0.605
REMARK UNBOUND:                -0.605
REMARK  Name = 
REMARK  5 active torsions:
REMARK  status: ('A' for Active; 'I' for Inactive)
REMARK    1  A    between atoms: C_7  and  C_8
REMARK    2  A    between atoms: N_10  and  C_11
REMARK    3  A    between atoms: C_11  and  C_12
REMARK    4  A    between atoms: C_15  and  C_16
REMARK    5  A    between atoms: C_16  and  N_17
REMARK                            x       y       z     vdW  Elec       q    Type
REMARK                         _______ _______ _______ _____ _____    ______ ____
ROOT
ATOM      1  C   UNL     1      48.454   6.783  14.104  0.00  0.00    +0.000 C 
ATOM      2  O   UNL     1      49.142   6.732  13.086  0.00  0.00    +0.000 OA
ATOM      3  N   UNL     1      47.168   7.256  14.080  0.00  0.00    +0.000 N 
ATOM      4  H   UNL     1      46.625   7.309  14.935  0.00  0.00    +0.000 HD
ENDROOT
BRANCH   1  11
ATOM      5  N   UNL     1      48.010   2.473  19.260  0.00  0.00    +0.000 N 
ATOM      6  C   UNL     1      48.229   3.428  18.320  0.00  0.00    +0.000 A 
ATOM      7  N   UNL     1      49.232   4.241  18.425  0.00  0.00    +0.000 NA
ATOM      8  C   UNL     1      49.360   5.138  17.412  0.00  0.00    +0.000 A 
ATOM      9  S   UNL     1      50.644   6.255  17.400  0.00  0.00    +0.000 S 
ATOM     10  C   UNL     1      50.131   6.908  15.913  0.00  0.00    +0.000 A 
ATOM     11  C   UNL     1      48.983   6.315  15.399  0.00  0.00    +0.000 A 
ATOM     12  C   UNL     1      48.541   5.275  16.306  0.00  0.00    +0.000 A 
ATOM     13  C   UNL     1      47.420   4.357  16.237  0.00  0.00    +0.000 A 
ATOM     14  O   UNL     1      46.590   4.341  15.329  0.00  0.00    +0.000 OA
ATOM     15  N   UNL     1      47.338   3.469  17.286  0.00  0.00    +0.000 N 
ATOM     16  H   UNL     1      48.550   2.622  20.109  0.00  0.00    +0.000 HD
ATOM     17  H   UNL     1      47.059   2.180  19.434  0.00  0.00    +0.000 HD
ATOM     18  H   UNL     1      46.591   2.799  17.235  0.00  0.00    +0.000 HD
ENDBRANCH   1  11
BRANCH   3  19
ATOM     19  C   UNL     1      46.513   7.676  12.863  0.00  0.00    +0.000 C 
BRANCH  19  20
ATOM     20  C   UNL     1      45.905   6.522  12.108  0.00  0.00    +0.000 A 
ATOM     21  C   UNL     1      46.125   6.382  10.732  0.00  0.00    +0.000 A 
ATOM     22  C   UNL     1      45.579   5.304  10.026  0.00  0.00    +0.000 A 
ATOM     23  C   UNL     1      44.780   4.358  10.679  0.00  0.00    +0.000 A 
ATOM     24  C   UNL     1      44.562   4.495  12.057  0.00  0.00    +0.000 A 
ATOM     25  C   UNL     1      45.111   5.570  12.763  0.00  0.00    +0.000 A 
BRANCH  23  26
ATOM     26  C   UNL     1      44.137   3.224   9.910  0.00  0.00    +0.000 C 
BRANCH  26  27
ATOM     27  N   UNL     1      45.094   2.145   9.687  0.00  0.00    +0.000 N 
ATOM     28  C   UNL     1      45.742   2.238   8.440  0.00  0.00    +0.000 A 
ATOM     29  C   UNL     1      46.682   1.265   8.103  0.00  0.00    +0.000 A 
ATOM     30  C   UNL     1      47.338   1.339   6.873  0.00  0.00    +0.000 A 
ATOM     31  C   UNL     1      47.043   2.383   6.009  0.00  0.00    +0.000 A 
ATOM     32  C   UNL     1      46.111   3.316   6.419  0.00  0.00    +0.000 A 
ATOM     33  N   UNL     1      45.469   3.264   7.607  0.00  0.00    +0.000 NA
ATOM     34  H   UNL     1      44.659   1.232   9.769  0.00  0.00    +0.000 HD
ENDBRANCH  26  27
ENDBRANCH  23  26
ENDBRANCH  19  20
ENDBRANCH   3  19
TORSDOF 5
ENDMDL
MODEL 2
REMARK VINA RESULT:    -8.331      1.821      2.292
REMARK INTER + INTRA:         -11.371
REMARK INTER:                 -10.402
REMARK INTRA:                  -0.969
REMARK UNBOUND:                -0.605
REMARK  Name = 
REMARK  5 active torsions:
REMARK  status: ('A' for Active; 'I' for Inactive)
REMARK    1  A    between atoms: C_7  and  C_8
REMARK    2  A    between atoms: N_10  and  C_11
REMARK    3  A    between atoms: C_11  and  C_12
REMARK    4  A    between atoms: C_15  and  C_16
REMARK    5  A    between atoms: C_16  and  N_17
REMARK                            x       y       z     vdW  Elec       q    Type
REMARK                         _______ _______ _______ _____ _____    ______ ____
ROOT
ATOM      1  C   UNL     1      48.881   6.805  16.217  0.00  0.00    +0.000 C 
ATOM      2  O   UNL     1      48.386   7.728  16.863  0.00  0.00    +0.000 OA
ATOM      3  N   UNL     1      48.455   6.507  14.949  0.00  0.00    +0.000 N 
ATOM      4  H   UNL     1      48.862   5.729  14.442  0.00  0.00    +0.000 HD
ENDROOT
BRANCH   1  11
ATOM      5  N   UNL     1      51.260   0.700  17.773  0.00  0.00    +0.000 N 
ATOM      6  C   UNL     1      50.929   1.997  17.547  0.00  0.00    +0.000 A 
ATOM      7  N   UNL     1      51.768   2.949  17.808  0.00  0.00    +0.000 NA
ATOM      8  C   UNL     1      51.331   4.204  17.520  0.00  0.00    +0.000 A 
ATOM      9  S   UNL     1      52.331   5.553  17.787  0.00  0.00    +0.000 S 
ATOM     10  C   UNL     1      51.146   6.617  17.181  0.00  0.00    +0.000 A 
ATOM     11  C   UNL     1      49.973   5.989  16.778  0.00  0.00    +0.000 A 
ATOM     12  C   UNL     1      50.102   4.562  16.994  0.00  0.00    +0.000 A 
ATOM     13  C   UNL     1      49.187   3.467  16.734  0.00  0.00    +0.000 A 
ATOM     14  O   UNL     1      48.054   3.604  16.274  0.00  0.00    +0.000 OA
ATOM     15  N   UNL     1      49.679   2.219  17.041  0.00  0.00    +0.000 N 
ATOM     16  H   UNL     1      52.091   0.599  18.349  0.00  0.00    +0.000 HD
ATOM     17  H   UNL     1      50.524   0.051  18.012  0.00  0.00    +0.000 HD
ATOM     18  H   UNL     1      49.074   1.445  16.831  0.00  0.00    +0.000 HD
ENDBRANCH   1  11
BRANCH   3  19
ATOM     19  C   UNL     1      47.444   7.276  14.263  0.00  0.00    +0.000 C 
BRANCH  19  20
ATOM     20  C   UNL     1      46.732   6.477  13.202  0.00  0.00    +0.000 A 
ATOM     21  C   UNL     1      46.327   5.161  13.459  0.00  0.00    +0.000 A 
ATOM     22  C   UNL     1      45.651   4.418  12.486  0.00  0.00    +0.000 A 
ATOM     23  C   UNL     1      45.388   4.968  11.225  0.00  0.00    +0.000 A 
ATOM     24  C   UNL     1      45.789   6.287  10.968  0.00  0.00    +0.000 A 
ATOM     25  C   UNL     1      46.462   7.031  11.943  0.00  0.00    +0.000 A 
BRANCH  23  26
ATOM     26  C   UNL     1      44.710   4.149  10.149  0.00  0.00    +0.000 C 
BRANCH  26  27
ATOM     27  N   UNL     1      45.204   4.524   8.828  0.00  0.00    +0.000 N 
ATOM     28  C   UNL     1      45.810   3.452   8.145  0.00  0.00    +0.000 A 
ATOM     29  C   UNL     1      46.324   3.678   6.870  0.00  0.00    +0.000 A 
ATOM     30  C   UNL     1      46.926   2.628   6.174  0.00  0.00    +0.000 A 
ATOM     31  C   UNL     1      46.999   1.376   6.765  0.00  0.00    +0.000 A 
ATOM     32  C   UNL     1      46.454   1.226   8.025  0.00  0.00    +0.000 A 
ATOM     33  N   UNL     1      45.863   2.229   8.713  0.00  0.00    +0.000 NA
ATOM     34  H   UNL     1      45.856   5.300   8.875  0.00  0.00    +0.000 HD
ENDBRANCH  26  27
ENDBRANCH  23  26
ENDBRANCH  19  20
ENDBRANCH   3  19
TORSDOF 5
ENDMDL
MODEL 3
REMARK VINA RESULT:    -8.049      2.422      4.416
REMARK INTER + INTRA:         -11.007
REMARK INTER:                 -10.141
REMARK INTRA:                  -0.866
REMARK UNBOUND:                -0.605
REMARK  Name = 
REMARK  5 active torsions:
REMARK  status: ('A' for Active; 'I' for Inactive)
REMARK    1  A    between atoms: C_7  and  C_8
REMARK    2  A    between atoms: N_10  and  C_11
REMARK    3  A    between atoms: C_11  and  C_12
REMARK    4  A    between atoms: C_15  and  C_16
REMARK    5  A    between atoms: C_16  and  N_17
REMARK                            x       y       z     vdW  Elec       q    Type
REMARK                         _______ _______ _______ _____ _____    ______ ____
ROOT
ATOM      1  C   UNL     1      48.694   6.317  15.521  0.00  0.00    +0.000 C 
ATOM      2  O   UNL     1      48.942   5.503  16.409  0.00  0.00    +0.000 OA
ATOM      3  N   UNL     1      47.737   6.076  14.571  0.00  0.00    +0.000 N 
ATOM      4  H   UNL     1      47.563   6.752  13.835  0.00  0.00    +0.000 HD
ENDROOT
BRANCH   1  11
ATOM      5  N   UNL     1      51.471  11.145  11.735  0.00  0.00    +0.000 N 
ATOM      6  C   UNL     1      50.984  10.261  12.643  0.00  0.00    +0.000 A 
ATOM      7  N   UNL     1      51.042  10.516  13.911  0.00  0.00    +0.000 NA
ATOM      8  C   UNL     1      50.503   9.566  14.720  0.00  0.00    +0.000 A 
ATOM      9  S   UNL     1      50.485   9.772  16.409  0.00  0.00    +0.000 S 
ATOM     10  C   UNL     1      49.675   8.291  16.634  0.00  0.00    +0.000 A 
ATOM     11  C   UNL     1      49.411   7.604  15.455  0.00  0.00    +0.000 A 
ATOM     12  C   UNL     1      49.915   8.374  14.335  0.00  0.00    +0.000 A 
ATOM     13  C   UNL     1      49.886   8.120  12.908  0.00  0.00    +0.000 A 
ATOM     14  O   UNL     1      49.409   7.111  12.392  0.00  0.00    +0.000 OA
ATOM     15  N   UNL     1      50.444   9.113  12.134  0.00  0.00    +0.000 N 
ATOM     16  H   UNL     1      52.055  11.862  12.156  0.00  0.00    +0.000 HD
ATOM     17  H   UNL     1      51.838  10.786  10.865  0.00  0.00    +0.000 HD
ATOM     18  H   UNL     1      50.397   8.973  11.141  0.00  0.00    +0.000 HD
ENDBRANCH   1  11
BRANCH   3  19
ATOM     19  C   UNL     1      46.918   4.886  14.571  0.00  0.00    +0.000 C 
BRANCH  19  20
ATOM     20  C   UNL     1      46.196   4.683  13.264  0.00  0.00    +0.000 A 
ATOM     21  C   UNL     1      45.658   3.431  12.939  0.00  0.00    +0.000 A 
ATOM     22  C   UNL     1      44.971   3.238  11.736  0.00  0.00    +0.000 A 
ATOM     23  C   UNL     1      44.830   4.288  10.821  0.00  0.00    +0.000 A 
ATOM     24  C   UNL     1      45.365   5.543  11.146  0.00  0.00    +0.000 A 
ATOM     25  C   UNL     1      46.048   5.736  12.351  0.00  0.00    +0.000 A 
BRANCH  23  26
ATOM     26  C   UNL     1      44.141   4.070   9.492  0.00  0.00    +0.000 C 
BRANCH  26  27
ATOM     27  N   UNL     1      45.017   4.449   8.388  0.00  0.00    +0.000 N 
ATOM     28  C   UNL     1      45.795   3.376   7.913  0.00  0.00    +0.000 A 
ATOM     29  C   UNL     1      46.676   3.606   6.858  0.00  0.00    +0.000 A 
ATOM     30  C   UNL     1      47.456   2.555   6.370  0.00  0.00    +0.000 A 
ATOM     31  C   UNL     1      47.336   1.299   6.944  0.00  0.00    +0.000 A 
ATOM     32  C   UNL     1      46.431   1.146   7.976  0.00  0.00    +0.000 A 
ATOM     33  N   UNL     1      45.665   2.148   8.460  0.00  0.00    +0.000 NA
ATOM     34  H   UNL     1      45.629   5.219   8.639  0.00  0.00    +0.000 HD
ENDBRANCH  26  27
ENDBRANCH  23  26
ENDBRANCH  19  20
ENDBRANCH   3  19
TORSDOF 5
ENDMDL
MODEL 4
REMARK VINA RESULT:    -7.889      4.554      9.133
REMARK INTER + INTRA:         -10.799
REMARK INTER:                  -9.853
REMARK INTRA:                  -0.946
REMARK UNBOUND:                -0.605
REMARK  Name = 
REMARK  5 active torsions:
REMARK  status: ('A' for Active; 'I' for Inactive)
REMARK    1  A    between atoms: C_7  and  C_8
REMARK    2  A    between atoms: N_10  and  C_11
REMARK    3  A    between atoms: C_11  and  C_12
REMARK    4  A    between atoms: C_15  and  C_16
REMARK    5  A    between atoms: C_16  and  N_17
REMARK                            x       y       z     vdW  Elec       q    Type
REMARK                         _______ _______ _______ _____ _____    ______ ____
ROOT
ATOM      1  C   UNL     1      48.480   6.061  15.189  0.00  0.00    +0.000 C 
ATOM      2  O   UNL     1      49.579   6.611  15.132  0.00  0.00    +0.000 OA
ATOM      3  N   UNL     1      48.052   5.425  16.325  0.00  0.00    +0.000 N 
ATOM      4  H   UNL     1      47.151   4.960  16.343  0.00  0.00    +0.000 HD
ENDROOT
BRANCH   1  11
ATOM      5  N   UNL     1      44.339   2.680  11.093  0.00  0.00    +0.000 N 
ATOM      6  C   UNL     1      45.149   3.505  11.804  0.00  0.00    +0.000 A 
ATOM      7  N   UNL     1      45.204   4.771  11.536  0.00  0.00    +0.000 NA
ATOM      8  C   UNL     1      46.035   5.498  12.330  0.00  0.00    +0.000 A 
ATOM      9  S   UNL     1      46.192   7.178  12.113  0.00  0.00    +0.000 S 
ATOM     10  C   UNL     1      47.283   7.296  13.417  0.00  0.00    +0.000 A 
ATOM     11  C   UNL     1      47.563   6.082  14.034  0.00  0.00    +0.000 A 
ATOM     12  C   UNL     1      46.818   5.031  13.371  0.00  0.00    +0.000 A 
ATOM     13  C   UNL     1      46.741   3.605  13.625  0.00  0.00    +0.000 A 
ATOM     14  O   UNL     1      47.372   3.022  14.505  0.00  0.00    +0.000 OA
ATOM     15  N   UNL     1      45.885   2.917  12.795  0.00  0.00    +0.000 N 
ATOM     16  H   UNL     1      43.991   3.108  10.239  0.00  0.00    +0.000 HD
ATOM     17  H   UNL     1      44.618   1.716  10.975  0.00  0.00    +0.000 HD
ATOM     18  H   UNL     1      45.788   1.935  12.982  0.00  0.00    +0.000 HD
ENDBRANCH   1  11
BRANCH   3  19
ATOM     19  C   UNL     1      48.827   5.397  17.543  0.00  0.00    +0.000 C 
BRANCH  19  20
ATOM     20  C   UNL     1      49.855   4.295  17.548  0.00  0.00    +0.000 A 
ATOM     21  C   UNL     1      51.201   4.584  17.806  0.00  0.00    +0.000 A 
ATOM     22  C   UNL     1      52.159   3.565  17.830  0.00  0.00    +0.000 A 
ATOM     23  C   UNL     1      51.794   2.238  17.571  0.00  0.00    +0.000 A 
ATOM     24  C   UNL     1      50.446   1.948  17.316  0.00  0.00    +0.000 A 
ATOM     25  C   UNL     1      49.488   2.966  17.296  0.00  0.00    +0.000 A 
BRANCH  23  26
ATOM     26  C   UNL     1      52.835   1.141  17.536  0.00  0.00    +0.000 C 
BRANCH  26  27
ATOM     27  N   UNL     1      52.400  -0.007  18.323  0.00  0.00    +0.000 N 
ATOM     28  C   UNL     1      53.427  -0.951  18.528  0.00  0.00    +0.000 A 
ATOM     29  C   UNL     1      53.141  -2.098  19.266  0.00  0.00    +0.000 A 
ATOM     30  C   UNL     1      54.144  -3.044  19.483  0.00  0.00    +0.000 A 
ATOM     31  C   UNL     1      55.410  -2.823  18.961  0.00  0.00    +0.000 A 
ATOM     32  C   UNL     1      55.619  -1.656  18.253  0.00  0.00    +0.000 A 
ATOM     33  N   UNL     1      54.663  -0.726  18.036  0.00  0.00    +0.000 NA
ATOM     34  H   UNL     1      51.601  -0.472  17.904  0.00  0.00    +0.000 HD
ENDBRANCH  26  27
ENDBRANCH  23  26
ENDBRANCH  19  20
ENDBRANCH   3  19
TORSDOF 5
ENDMDL
MODEL 5
REMARK VINA RESULT:    -7.866      1.395      1.712
REMARK INTER + INTRA:         -10.770
REMARK INTER:                 -10.122
REMARK INTRA:                  -0.648
REMARK UNBOUND:                -0.605
REMARK  Name = 
REMARK  5 active torsions:
REMARK  status: ('A' for Active; 'I' for Inactive)
REMARK    1  A    between atoms: C_7  and  C_8
REMARK    2  A    between atoms: N_10  and  C_11
REMARK    3  A    between atoms: C_11  and  C_12
REMARK    4  A    between atoms: C_15  and  C_16
REMARK    5  A    between atoms: C_16  and  N_17
REMARK                            x       y       z     vdW  Elec       q    Type
REMARK                         _______ _______ _______ _____ _____    ______ ____
ROOT
ATOM      1  C   UNL     1      48.949   7.821  15.196  0.00  0.00    +0.000 C 
ATOM      2  O   UNL     1      49.952   7.832  14.484  0.00  0.00    +0.000 OA
ATOM      3  N   UNL     1      47.724   8.206  14.719  0.00  0.00    +0.000 N 
ATOM      4  H   UNL     1      46.914   8.210  15.329  0.00  0.00    +0.000 HD
ENDROOT
BRANCH   1  11
ATOM      5  N   UNL     1      48.258   2.822  19.657  0.00  0.00    +0.000 N 
ATOM      6  C   UNL     1      48.422   3.940  18.904  0.00  0.00    +0.000 A 
ATOM      7  N   UNL     1      48.829   5.046  19.442  0.00  0.00    +0.000 NA
ATOM      8  C   UNL     1      48.975   6.091  18.583  0.00  0.00    +0.000 A 
ATOM      9  S   UNL     1      49.525   7.601  19.140  0.00  0.00    +0.000 S 
ATOM     10  C   UNL     1      49.467   8.260  17.570  0.00  0.00    +0.000 A 
ATOM     11  C   UNL     1      49.023   7.370  16.598  0.00  0.00    +0.000 A 
ATOM     12  C   UNL     1      48.732   6.094  17.221  0.00  0.00    +0.000 A 
ATOM     13  C   UNL     1      48.261   4.841  16.663  0.00  0.00    +0.000 A 
ATOM     14  O   UNL     1      47.991   4.669  15.476  0.00  0.00    +0.000 OA
ATOM     15  N   UNL     1      48.132   3.817  17.574  0.00  0.00    +0.000 N 
ATOM     16  H   UNL     1      48.265   3.014  20.655  0.00  0.00    +0.000 HD
ATOM     17  H   UNL     1      47.551   2.156  19.379  0.00  0.00    +0.000 HD
ATOM     18  H   UNL     1      47.845   2.931  17.199  0.00  0.00    +0.000 HD
ENDBRANCH   1  11
BRANCH   3  19
ATOM     19  C   UNL     1      47.508   8.599  13.346  0.00  0.00    +0.000 C 
BRANCH  19  20
ATOM     20  C   UNL     1      46.521   7.706  12.639  0.00  0.00    +0.000 A 
ATOM     21  C   UNL     1      45.382   8.251  12.031  0.00  0.00    +0.000 A 
ATOM     22  C   UNL     1      44.471   7.432  11.358  0.00  0.00    +0.000 A 
ATOM     23  C   UNL     1      44.666   6.046  11.300  0.00  0.00    +0.000 A 
ATOM     24  C   UNL     1      45.808   5.501  11.904  0.00  0.00    +0.000 A 
ATOM     25  C   UNL     1      46.722   6.320  12.574  0.00  0.00    +0.000 A 
BRANCH  23  26
ATOM     26  C   UNL     1      43.653   5.149  10.625  0.00  0.00    +0.000 C 
BRANCH  26  27
ATOM     27  N   UNL     1      44.102   3.761  10.640  0.00  0.00    +0.000 N 
ATOM     28  C   UNL     1      44.839   3.411   9.492  0.00  0.00    +0.000 A 
ATOM     29  C   UNL     1      45.327   2.110   9.382  0.00  0.00    +0.000 A 
ATOM     30  C   UNL     1      46.062   1.743   8.253  0.00  0.00    +0.000 A 
ATOM     31  C   UNL     1      46.296   2.683   7.262  0.00  0.00    +0.000 A 
ATOM     32  C   UNL     1      45.792   3.956   7.448  0.00  0.00    +0.000 A 
ATOM     33  N   UNL     1      45.082   4.332   8.536  0.00  0.00    +0.000 NA
ATOM     34  H   UNL     1      43.327   3.114  10.748  0.00  0.00    +0.000 HD
ENDBRANCH  26  27
ENDBRANCH  23  26
ENDBRANCH  19  20
ENDBRANCH   3  19
TORSDOF 5
ENDMDL
MODEL 6
REMARK VINA RESULT:    -7.859      2.015      2.738
REMARK INTER + INTRA:         -10.760
REMARK INTER:                 -10.073
REMARK INTRA:                  -0.687
REMARK UNBOUND:                -0.605
REMARK  Name = 
REMARK  5 active torsions:
REMARK  status: ('A' for Active; 'I' for Inactive)
REMARK    1  A    between atoms: C_7  and  C_8
REMARK    2  A    between atoms: N_10  and  C_11
REMARK    3  A    between atoms: C_11  and  C_12
REMARK    4  A    between atoms: C_15  and  C_16
REMARK    5  A    between atoms: C_16  and  N_17
REMARK                            x       y       z     vdW  Elec       q    Type
REMARK                         _______ _______ _______ _____ _____    ______ ____
ROOT
ATOM      1  C   UNL     1      48.583   6.787  15.990  0.00  0.00    +0.000 C 
ATOM      2  O   UNL     1      48.614   8.012  16.104  0.00  0.00    +0.000 OA
ATOM      3  N   UNL     1      48.058   6.182  14.879  0.00  0.00    +0.000 N 
ATOM      4  H   UNL     1      48.023   5.170  14.814  0.00  0.00    +0.000 HD
ENDROOT
BRANCH   1  11
ATOM      5  N   UNL     1      53.993   4.275  19.117  0.00  0.00    +0.000 N 
ATOM      6  C   UNL     1      52.803   4.663  18.590  0.00  0.00    +0.000 A 
ATOM      7  N   UNL     1      51.687   4.265  19.111  0.00  0.00    +0.000 NA
ATOM      8  C   UNL     1      50.563   4.738  18.509  0.00  0.00    +0.000 A 
ATOM      9  S   UNL     1      49.022   4.320  19.098  0.00  0.00    +0.000 S 
ATOM     10  C   UNL     1      48.254   5.274  17.914  0.00  0.00    +0.000 A 
ATOM     11  C   UNL     1      49.131   5.915  17.046  0.00  0.00    +0.000 A 
ATOM     12  C   UNL     1      50.492   5.579  17.413  0.00  0.00    +0.000 A 
ATOM     13  C   UNL     1      51.764   5.986  16.850  0.00  0.00    +0.000 A 
ATOM     14  O   UNL     1      51.886   6.724  15.873  0.00  0.00    +0.000 OA
ATOM     15  N   UNL     1      52.869   5.481  17.497  0.00  0.00    +0.000 N 
ATOM     16  H   UNL     1      53.901   3.502  19.772  0.00  0.00    +0.000 HD
ATOM     17  H   UNL     1      54.786   4.186  18.498  0.00  0.00    +0.000 HD
ATOM     18  H   UNL     1      53.760   5.785  17.145  0.00  0.00    +0.000 HD
ENDBRANCH   1  11
BRANCH   3  19
ATOM     19  C   UNL     1      47.556   6.926  13.747  0.00  0.00    +0.000 C 
BRANCH  19  20
ATOM     20  C   UNL     1      46.708   6.081  12.832  0.00  0.00    +0.000 A 
ATOM     21  C   UNL     1      46.229   6.607  11.625  0.00  0.00    +0.000 A 
ATOM     22  C   UNL     1      45.455   5.825  10.761  0.00  0.00    +0.000 A 
ATOM     23  C   UNL     1      45.124   4.507  11.099  0.00  0.00    +0.000 A 
ATOM     24  C   UNL     1      45.607   3.978  12.305  0.00  0.00    +0.000 A 
ATOM     25  C   UNL     1      46.383   4.759  13.166  0.00  0.00    +0.000 A 
BRANCH  23  26
ATOM     26  C   UNL     1      44.238   3.676  10.197  0.00  0.00    +0.000 C 
BRANCH  26  27
ATOM     27  N   UNL     1      44.865   2.393   9.898  0.00  0.00    +0.000 N 
ATOM     28  C   UNL     1      45.565   2.399   8.675  0.00  0.00    +0.000 A 
ATOM     29  C   UNL     1      46.211   1.232   8.271  0.00  0.00    +0.000 A 
ATOM     30  C   UNL     1      46.912   1.216   7.064  0.00  0.00    +0.000 A 
ATOM     31  C   UNL     1      46.956   2.365   6.289  0.00  0.00    +0.000 A 
ATOM     32  C   UNL     1      46.303   3.486   6.764  0.00  0.00    +0.000 A 
ATOM     33  N   UNL     1      45.623   3.523   7.931  0.00  0.00    +0.000 NA
ATOM     34  H   UNL     1      44.191   1.635   9.892  0.00  0.00    +0.000 HD
ENDBRANCH  26  27
ENDBRANCH  23  26
ENDBRANCH  19  20
ENDBRANCH   3  19
TORSDOF 5
ENDMDL
MODEL 7
REMARK VINA RESULT:    -7.224      4.742      7.422
REMARK INTER + INTRA:          -9.940
REMARK INTER:                  -9.122
REMARK INTRA:                  -0.818
REMARK UNBOUND:                -0.605
REMARK  Name = 
REMARK  5 active torsions:
REMARK  status: ('A' for Active; 'I' for Inactive)
REMARK    1  A    between atoms: C_7  and  C_8
REMARK    2  A    between atoms: N_10  and  C_11
REMARK    3  A    between atoms: C_11  and  C_12
REMARK    4  A    between atoms: C_15  and  C_16
REMARK    5  A    between atoms: C_16  and  N_17
REMARK                            x       y       z     vdW  Elec       q    Type
REMARK                         _______ _______ _______ _____ _____    ______ ____
ROOT
ATOM      1  C   UNL     1      45.162   7.524  11.713  0.00  0.00    +0.000 C 
ATOM      2  O   UNL     1      44.634   8.417  11.052  0.00  0.00    +0.000 OA
ATOM      3  N   UNL     1      46.310   7.742  12.428  0.00  0.00    +0.000 N 
ATOM      4  H   UNL     1      46.741   6.987  12.949  0.00  0.00    +0.000 HD
ENDROOT
BRANCH   1  11
ATOM      5  N   UNL     1      44.518   1.399   8.988  0.00  0.00    +0.000 N 
ATOM      6  C   UNL     1      44.516   2.581   9.655  0.00  0.00    +0.000 A 
ATOM      7  N   UNL     1      43.864   2.712  10.767  0.00  0.00    +0.000 NA
ATOM      8  C   UNL     1      43.954   3.935  11.353  0.00  0.00    +0.000 A 
ATOM      9  S   UNL     1      43.170   4.250  12.830  0.00  0.00    +0.000 S 
ATOM     10  C   UNL     1      43.775   5.842  12.872  0.00  0.00    +0.000 A 
ATOM     11  C   UNL     1      44.565   6.177  11.778  0.00  0.00    +0.000 A 
ATOM     12  C   UNL     1      44.652   5.036  10.889  0.00  0.00    +0.000 A 
ATOM     13  C   UNL     1      45.353   4.852   9.633  0.00  0.00    +0.000 A 
ATOM     14  O   UNL     1      46.017   5.724   9.074  0.00  0.00    +0.000 OA
ATOM     15  N   UNL     1      45.231   3.596   9.083  0.00  0.00    +0.000 N 
ATOM     16  H   UNL     1      43.806   0.756   9.322  0.00  0.00    +0.000 HD
ATOM     17  H   UNL     1      44.606   1.416   7.982  0.00  0.00    +0.000 HD
ATOM     18  H   UNL     1      45.742   3.437   8.233  0.00  0.00    +0.000 HD
ENDBRANCH   1  11
BRANCH   3  19
ATOM     19  C   UNL     1      46.951   9.034  12.502  0.00  0.00    +0.000 C 
BRANCH  19  20
ATOM     20  C   UNL     1      48.371   9.004  11.997  0.00  0.00    +0.000 A 
ATOM     21  C   UNL     1      49.045   7.785  11.853  0.00  0.00    +0.000 A 
ATOM     22  C   UNL     1      50.357   7.746  11.369  0.00  0.00    +0.000 A 
ATOM     23  C   UNL     1      51.030   8.930  11.042  0.00  0.00    +0.000 A 
ATOM     24  C   UNL     1      50.355  10.150  11.182  0.00  0.00    +0.000 A 
ATOM     25  C   UNL     1      49.042  10.188  11.663  0.00  0.00    +0.000 A 
BRANCH  23  26
ATOM     26  C   UNL     1      52.469   8.898  10.575  0.00  0.00    +0.000 C 
BRANCH  26  27
ATOM     27  N   UNL     1      53.001   7.541  10.635  0.00  0.00    +0.000 N 
ATOM     28  C   UNL     1      53.173   6.964   9.361  0.00  0.00    +0.000 A 
ATOM     29  C   UNL     1      53.675   5.667   9.279  0.00  0.00    +0.000 A 
ATOM     30  C   UNL     1      53.856   5.077   8.027  0.00  0.00    +0.000 A 
ATOM     31  C   UNL     1      53.535   5.796   6.886  0.00  0.00    +0.000 A 
ATOM     32  C   UNL     1      53.056   7.081   7.048  0.00  0.00    +0.000 A 
ATOM     33  N   UNL     1      52.878   7.671   8.250  0.00  0.00    +0.000 NA
ATOM     34  H   UNL     1      52.418   6.932  11.201  0.00  0.00    +0.000 HD
ENDBRANCH  26  27
ENDBRANCH  23  26
ENDBRANCH  19  20
ENDBRANCH   3  19
TORSDOF 5
ENDMDL
MODEL 8
REMARK VINA RESULT:    -7.160      2.792      4.097
REMARK INTER + INTRA:          -9.857
REMARK INTER:                  -9.668
REMARK INTRA:                  -0.189
REMARK UNBOUND:                -0.605
REMARK  Name = 
REMARK  5 active torsions:
REMARK  status: ('A' for Active; 'I' for Inactive)
REMARK    1  A    between atoms: C_7  and  C_8
REMARK    2  A    between atoms: N_10  and  C_11
REMARK    3  A    between atoms: C_11  and  C_12
REMARK    4  A    between atoms: C_15  and  C_16
REMARK    5  A    between atoms: C_16  and  N_17
REMARK                            x       y       z     vdW  Elec       q    Type
REMARK                         _______ _______ _______ _____ _____    ______ ____
ROOT
ATOM      1  C   UNL     1      48.513   6.685  13.820  0.00  0.00    +0.000 C 
ATOM      2  O   UNL     1      48.860   5.877  12.959  0.00  0.00    +0.000 OA
ATOM      3  N   UNL     1      47.513   6.399  14.711  0.00  0.00    +0.000 N 
ATOM      4  H   UNL     1      47.228   7.088  15.399  0.00  0.00    +0.000 HD
ENDROOT
BRANCH   1  11
ATOM      5  N   UNL     1      53.565  10.340  16.366  0.00  0.00    +0.000 N 
ATOM      6  C   UNL     1      52.478   9.763  15.792  0.00  0.00    +0.000 A 
ATOM      7  N   UNL     1      51.697  10.449  15.017  0.00  0.00    +0.000 NA
ATOM      8  C   UNL     1      50.655   9.757  14.485  0.00  0.00    +0.000 A 
ATOM      9  S   UNL     1      49.558  10.518  13.430  0.00  0.00    +0.000 S 
ATOM     10  C   UNL     1      48.680   9.074  13.217  0.00  0.00    +0.000 A 
ATOM     11  C   UNL     1      49.179   7.995  13.939  0.00  0.00    +0.000 A 
ATOM     12  C   UNL     1      50.344   8.424  14.687  0.00  0.00    +0.000 A 
ATOM     13  C   UNL     1      51.233   7.699  15.574  0.00  0.00    +0.000 A 
ATOM     14  O   UNL     1      51.102   6.512  15.869  0.00  0.00    +0.000 OA
ATOM     15  N   UNL     1      52.271   8.444  16.085  0.00  0.00    +0.000 N 
ATOM     16  H   UNL     1      53.552  11.354  16.306  0.00  0.00    +0.000 HD
ATOM     17  H   UNL     1      53.874   9.993  17.263  0.00  0.00    +0.000 HD
ATOM     18  H   UNL     1      52.920   7.949  16.670  0.00  0.00    +0.000 HD
ENDBRANCH   1  11
BRANCH   3  19
ATOM     19  C   UNL     1      46.834   5.125  14.743  0.00  0.00    +0.000 C 
BRANCH  19  20
ATOM     20  C   UNL     1      46.116   4.822  13.453  0.00  0.00    +0.000 A 
ATOM     21  C   UNL     1      45.499   5.849  12.728  0.00  0.00    +0.000 A 
ATOM     22  C   UNL     1      44.845   5.579  11.521  0.00  0.00    +0.000 A 
ATOM     23  C   UNL     1      44.775   4.271  11.026  0.00  0.00    +0.000 A 
ATOM     24  C   UNL     1      45.397   3.243  11.749  0.00  0.00    +0.000 A 
ATOM     25  C   UNL     1      46.053   3.513  12.954  0.00  0.00    +0.000 A 
BRANCH  23  26
ATOM     26  C   UNL     1      44.019   3.964   9.753  0.00  0.00    +0.000 C 
BRANCH  26  27
ATOM     27  N   UNL     1      44.782   4.388   8.584  0.00  0.00    +0.000 N 
ATOM     28  C   UNL     1      45.576   3.357   8.045  0.00  0.00    +0.000 A 
ATOM     29  C   UNL     1      46.357   3.633   6.924  0.00  0.00    +0.000 A 
ATOM     30  C   UNL     1      47.149   2.624   6.371  0.00  0.00    +0.000 A 
ATOM     31  C   UNL     1      47.142   1.364   6.948  0.00  0.00    +0.000 A 
ATOM     32  C   UNL     1      46.331   1.164   8.049  0.00  0.00    +0.000 A 
ATOM     33  N   UNL     1      45.554   2.125   8.595  0.00  0.00    +0.000 NA
ATOM     34  H   UNL     1      45.371   5.189   8.789  0.00  0.00    +0.000 HD
ENDBRANCH  26  27
ENDBRANCH  23  26
ENDBRANCH  19  20
ENDBRANCH   3  19
TORSDOF 5
ENDMDL
MODEL 9
REMARK VINA RESULT:    -6.733      3.579      8.144
REMARK INTER + INTRA:          -9.305
REMARK INTER:                  -8.650
REMARK INTRA:                  -0.656
REMARK UNBOUND:                -0.605
REMARK  Name = 
REMARK  5 active torsions:
REMARK  status: ('A' for Active; 'I' for Inactive)
REMARK    1  A    between atoms: C_7  and  C_8
REMARK    2  A    between atoms: N_10  and  C_11
REMARK    3  A    between atoms: C_11  and  C_12
REMARK    4  A    between atoms: C_15  and  C_16
REMARK    5  A    between atoms: C_16  and  N_17
REMARK                            x       y       z     vdW  Elec       q    Type
REMARK                         _______ _______ _______ _____ _____    ______ ____
ROOT
ATOM      1  C   UNL     1      46.838   7.727  12.848  0.00  0.00    +0.000 C 
ATOM      2  O   UNL     1      46.702   8.769  13.487  0.00  0.00    +0.000 OA
ATOM      3  N   UNL     1      48.071   7.162  12.648  0.00  0.00    +0.000 N 
ATOM      4  H   UNL     1      48.163   6.314  12.100  0.00  0.00    +0.000 HD
ENDROOT
BRANCH   1  11
ATOM      5  N   UNL     1      43.428   1.974  12.053  0.00  0.00    +0.000 N 
ATOM      6  C   UNL     1      43.995   3.207  12.094  0.00  0.00    +0.000 A 
ATOM      7  N   UNL     1      43.407   4.224  11.548  0.00  0.00    +0.000 NA
ATOM      8  C   UNL     1      44.061   5.409  11.672  0.00  0.00    +0.000 A 
ATOM      9  S   UNL     1      43.400   6.837  11.026  0.00  0.00    +0.000 S 
ATOM     10  C   UNL     1      44.705   7.766  11.605  0.00  0.00    +0.000 A 
ATOM     11  C   UNL     1      45.669   7.028  12.282  0.00  0.00    +0.000 A 
ATOM     12  C   UNL     1      45.271   5.635  12.305  0.00  0.00    +0.000 A 
ATOM     13  C   UNL     1      45.903   4.467  12.887  0.00  0.00    +0.000 A 
ATOM     14  O   UNL     1      46.981   4.484  13.479  0.00  0.00    +0.000 OA
ATOM     15  N   UNL     1      45.200   3.294  12.734  0.00  0.00    +0.000 N 
ATOM     16  H   UNL     1      42.664   1.913  11.386  0.00  0.00    +0.000 HD
ATOM     17  H   UNL     1      44.036   1.166  12.045  0.00  0.00    +0.000 HD
ATOM     18  H   UNL     1      45.603   2.481  13.165  0.00  0.00    +0.000 HD
ENDBRANCH   1  11
BRANCH   3  19
ATOM     19  C   UNL     1      49.282   7.711  13.211  0.00  0.00    +0.000 C 
BRANCH  19  20
ATOM     20  C   UNL     1      49.573   7.173  14.589  0.00  0.00    +0.000 A 
ATOM     21  C   UNL     1      50.817   7.405  15.191  0.00  0.00    +0.000 A 
ATOM     22  C   UNL     1      51.090   6.925  16.476  0.00  0.00    +0.000 A 
ATOM     23  C   UNL     1      50.132   6.179  17.175  0.00  0.00    +0.000 A 
ATOM     24  C   UNL     1      48.886   5.949  16.575  0.00  0.00    +0.000 A 
ATOM     25  C   UNL     1      48.612   6.434  15.291  0.00  0.00    +0.000 A 
BRANCH  23  26
ATOM     26  C   UNL     1      50.443   5.605  18.540  0.00  0.00    +0.000 C 
BRANCH  26  27
ATOM     27  N   UNL     1      51.800   5.072  18.578  0.00  0.00    +0.000 N 
ATOM     28  C   UNL     1      51.869   3.723  18.177  0.00  0.00    +0.000 A 
ATOM     29  C   UNL     1      53.112   3.092  18.168  0.00  0.00    +0.000 A 
ATOM     30  C   UNL     1      53.204   1.757  17.772  0.00  0.00    +0.000 A 
ATOM     31  C   UNL     1      52.054   1.082  17.390  0.00  0.00    +0.000 A 
ATOM     32  C   UNL     1      50.861   1.779  17.410  0.00  0.00    +0.000 A 
ATOM     33  N   UNL     1      50.753   3.073  17.787  0.00  0.00    +0.000 NA
ATOM     34  H   UNL     1      52.218   5.167  19.498  0.00  0.00    +0.000 HD
ENDBRANCH  26  27
ENDBRANCH  23  26
ENDBRANCH  19  20
ENDBRANCH   3  19
TORSDOF 5
ENDMDL
