MODEL 1
REMARK VINA RESULT:    -8.457      0.000      0.000
REMARK INTER + INTRA:         -13.764
REMARK INTER:                 -12.411
REMARK INTRA:                  -1.353
REMARK UNBOUND:                -1.353
REMARK  Name = 
REMARK  9 active torsions:
REMARK  status: ('A' for Active; 'I' for Inactive)
REMARK    1  A    between atoms: C_1  and  O_2
REMARK    2  A    between atoms: O_2  and  C_3
REMARK    3  A    between atoms: C_10  and  C_11
REMARK    4  A    between atoms: N_13  and  C_14
REMARK    5  A    between atoms: C_14  and  C_15
REMARK    6  A    between atoms: C_18  and  C_19
REMARK    7  A    between atoms: C_19  and  N_20
REMARK    8  A    between atoms: N_20  and  C_21
REMARK    9  A    between atoms: C_21  and  C_22
REMARK                            x       y       z     vdW  Elec       q    Type
REMARK                         _______ _______ _______ _____ _____    ______ ____
ROOT
ATOM      1  C   UNL     1      46.964   6.643  12.821  0.00  0.00    +0.000 A 
ATOM      2  C   UNL     1      46.620   5.496  13.547  0.00  0.00    +0.000 A 
ATOM      3  C   UNL     1      45.734   4.551  13.012  0.00  0.00    +0.000 A 
ATOM      4  C   UNL     1      45.177   4.725  11.736  0.00  0.00    +0.000 A 
ATOM      5  C   UNL     1      45.548   5.857  10.999  0.00  0.00    +0.000 A 
ATOM      6  C   UNL     1      46.436   6.800  11.532  0.00  0.00    +0.000 A 
ENDROOT
BRANCH   1   7
ATOM      7  C   UNL     1      47.920   7.664  13.389  0.00  0.00    +0.000 C 
BRANCH   7  10
ATOM      8  C   UNL     1      49.000   7.151  15.550  0.00  0.00    +0.000 C 
ATOM      9  O   UNL     1      50.023   6.748  14.997  0.00  0.00    +0.000 OA
ATOM     10  N   UNL     1      47.933   7.609  14.830  0.00  0.00    +0.000 N 
ATOM     11  H   UNL     1      47.081   7.868  15.304  0.00  0.00    +0.000 HD
BRANCH   8  19
ATOM     12  C   UNL     1      48.855   4.664  17.924  0.00  0.00    +0.000 A 
ATOM     13  N   UNL     1      48.765   3.908  19.036  0.00  0.00    +0.000 NA
ATOM     14  C   UNL     1      48.616   4.530  20.207  0.00  0.00    +0.000 A 
ATOM     15  N   UNL     1      48.549   5.842  20.414  0.00  0.00    +0.000 NA
ATOM     16  C   UNL     1      48.653   6.560  19.283  0.00  0.00    +0.000 A 
ATOM     17  S   UNL     1      48.595   8.255  19.357  0.00  0.00    +0.000 S 
ATOM     18  C   UNL     1      48.768   8.385  17.672  0.00  0.00    +0.000 A 
ATOM     19  C   UNL     1      48.872   7.162  17.019  0.00  0.00    +0.000 A 
ATOM     20  C   UNL     1      48.811   6.069  17.989  0.00  0.00    +0.000 A 
BRANCH  12  22
ATOM     21  C   UNL     1      47.915   3.253  16.315  0.00  0.00    +0.000 C 
ATOM     22  O   UNL     1      49.047   4.020  16.721  0.00  0.00    +0.000 OA
ENDBRANCH  12  22
ENDBRANCH   8  19
ENDBRANCH   7  10
ENDBRANCH   1   7
BRANCH   4  23
ATOM     23  C   UNL     1      44.198   3.715  11.169  0.00  0.00    +0.000 C 
BRANCH  23  24
ATOM     24  N   UNL     1      44.903   2.522  10.709  0.00  0.00    +0.000 NA
ATOM     25  H   UNL     1      44.728   1.767  11.371  0.00  0.00    +0.000 HD
BRANCH  24  26
ATOM     26  C   UNL     1      44.473   2.085   9.377  0.00  0.00    +0.000 C 
BRANCH  26  27
ATOM     27  C   UNL     1      45.588   2.231   8.365  0.00  0.00    +0.000 A 
ATOM     28  C   UNL     1      46.437   1.161   8.039  0.00  0.00    +0.000 A 
ATOM     29  C   UNL     1      47.430   1.302   7.067  0.00  0.00    +0.000 A 
ATOM     30  C   UNL     1      47.612   2.526   6.427  0.00  0.00    +0.000 A 
ATOM     31  C   UNL     1      46.813   3.614   6.776  0.00  0.00    +0.000 A 
ATOM     32  C   UNL     1      45.818   3.462   7.741  0.00  0.00    +0.000 A 
ATOM     33  F   UNL     1      45.066   4.525   8.061  0.00  0.00    +0.000 F 
ENDBRANCH  26  27
ENDBRANCH  24  26
ENDBRANCH  23  24
ENDBRANCH   4  23
TORSDOF 8
ENDMDL
MODEL 2
REMARK VINA RESULT:    -8.090      1.663      2.063
REMARK INTER + INTRA:         -13.226
REMARK INTER:                 -11.781
REMARK INTRA:                  -1.445
REMARK UNBOUND:                -1.353
REMARK  Name = 
REMARK  9 active torsions:
REMARK  status: ('A' for Active; 'I' for Inactive)
REMARK    1  A    between atoms: C_1  and  O_2
REMARK    2  A    between atoms: O_2  and  C_3
REMARK    3  A    between atoms: C_10  and  C_11
REMARK    4  A    between atoms: N_13  and  C_14
REMARK    5  A    between atoms: C_14  and  C_15
REMARK    6  A    between atoms: C_18  and  C_19
REMARK    7  A    between atoms: C_19  and  N_20
REMARK    8  A    between atoms: N_20  and  C_21
REMARK    9  A    between atoms: C_21  and  C_22
REMARK                            x       y       z     vdW  Elec       q    Type
REMARK                         _______ _______ _______ _____ _____    ______ ____
ROOT
ATOM      1  C   UNL     1      46.510   6.584  12.715  0.00  0.00    +0.000 A 
ATOM      2  C   UNL     1      45.926   6.731  11.450  0.00  0.00    +0.000 A 
ATOM      3  C   UNL     1      45.114   5.723  10.916  0.00  0.00    +0.000 A 
ATOM      4  C   UNL     1      44.857   4.546  11.637  0.00  0.00    +0.000 A 
ATOM      5  C   UNL     1      45.415   4.415  12.915  0.00  0.00    +0.000 A 
ATOM      6  C   UNL     1      46.225   5.424  13.450  0.00  0.00    +0.000 A 
ENDROOT
BRANCH   1   7
ATOM      7  C   UNL     1      47.384   7.668  13.298  0.00  0.00    +0.000 C 
BRANCH   7  10
ATOM      8  C   UNL     1      49.179   7.796  14.989  0.00  0.00    +0.000 C 
ATOM      9  O   UNL     1      48.913   8.969  15.252  0.00  0.00    +0.000 OA
ATOM     10  N   UNL     1      48.478   7.100  14.045  0.00  0.00    +0.000 N 
ATOM     11  H   UNL     1      48.760   6.162  13.800  0.00  0.00    +0.000 HD
BRANCH   8  19
ATOM     12  C   UNL     1      49.250   5.063  17.079  0.00  0.00    +0.000 A 
ATOM     13  N   UNL     1      49.558   4.047  17.909  0.00  0.00    +0.000 NA
ATOM     14  C   UNL     1      50.838   3.881  18.249  0.00  0.00    +0.000 A 
ATOM     15  N   UNL     1      51.874   4.615  17.852  0.00  0.00    +0.000 NA
ATOM     16  C   UNL     1      51.526   5.609  17.018  0.00  0.00    +0.000 A 
ATOM     17  S   UNL     1      52.722   6.645  16.404  0.00  0.00    +0.000 S 
ATOM     18  C   UNL     1      51.570   7.539  15.530  0.00  0.00    +0.000 A 
ATOM     19  C   UNL     1      50.267   7.080  15.680  0.00  0.00    +0.000 A 
ATOM     20  C   UNL     1      50.244   5.917  16.568  0.00  0.00    +0.000 A 
BRANCH  12  22
ATOM     21  C   UNL     1      47.199   3.986  16.767  0.00  0.00    +0.000 C 
ATOM     22  O   UNL     1      47.933   5.207  16.700  0.00  0.00    +0.000 OA
ENDBRANCH  12  22
ENDBRANCH   8  19
ENDBRANCH   7  10
ENDBRANCH   1   7
BRANCH   4  23
ATOM     23  C   UNL     1      43.998   3.443  11.047  0.00  0.00    +0.000 C 
BRANCH  23  24
ATOM     24  N   UNL     1      44.832   2.344  10.573  0.00  0.00    +0.000 NA
ATOM     25  H   UNL     1      44.724   1.556  11.211  0.00  0.00    +0.000 HD
BRANCH  24  26
ATOM     26  C   UNL     1      44.478   1.901   9.220  0.00  0.00    +0.000 C 
BRANCH  26  27
ATOM     27  C   UNL     1      45.619   2.124   8.252  0.00  0.00    +0.000 A 
ATOM     28  C   UNL     1      46.534   1.106   7.939  0.00  0.00    +0.000 A 
ATOM     29  C   UNL     1      47.552   1.318   7.007  0.00  0.00    +0.000 A 
ATOM     30  C   UNL     1      47.692   2.562   6.396  0.00  0.00    +0.000 A 
ATOM     31  C   UNL     1      46.826   3.600   6.735  0.00  0.00    +0.000 A 
ATOM     32  C   UNL     1      45.807   3.377   7.660  0.00  0.00    +0.000 A 
ATOM     33  F   UNL     1      44.989   4.394   7.970  0.00  0.00    +0.000 F 
ENDBRANCH  26  27
ENDBRANCH  24  26
ENDBRANCH  23  24
ENDBRANCH   4  23
TORSDOF 8
ENDMDL
MODEL 3
REMARK VINA RESULT:    -8.088      1.571      2.699
REMARK INTER + INTRA:         -13.223
REMARK INTER:                 -11.858
REMARK INTRA:                  -1.365
REMARK UNBOUND:                -1.353
REMARK  Name = 
REMARK  9 active torsions:
REMARK  status: ('A' for Active; 'I' for Inactive)
REMARK    1  A    between atoms: C_1  and  O_2
REMARK    2  A    between atoms: O_2  and  C_3
REMARK    3  A    between atoms: C_10  and  C_11
REMARK    4  A    between atoms: N_13  and  C_14
REMARK    5  A    between atoms: C_14  and  C_15
REMARK    6  A    between atoms: C_18  and  C_19
REMARK    7  A    between atoms: C_19  and  N_20
REMARK    8  A    between atoms: N_20  and  C_21
REMARK    9  A    between atoms: C_21  and  C_22
REMARK                            x       y       z     vdW  Elec       q    Type
REMARK                         _______ _______ _______ _____ _____    ______ ____
ROOT
ATOM      1  C   UNL     1      46.766   6.470  12.851  0.00  0.00    +0.000 A 
ATOM      2  C   UNL     1      46.530   6.616  11.478  0.00  0.00    +0.000 A 
ATOM      3  C   UNL     1      45.662   5.744  10.807  0.00  0.00    +0.000 A 
ATOM      4  C   UNL     1      45.002   4.713  11.492  0.00  0.00    +0.000 A 
ATOM      5  C   UNL     1      45.215   4.590  12.871  0.00  0.00    +0.000 A 
ATOM      6  C   UNL     1      46.080   5.463  13.543  0.00  0.00    +0.000 A 
ENDROOT
BRANCH   1   7
ATOM      7  C   UNL     1      47.697   7.408  13.581  0.00  0.00    +0.000 C 
BRANCH   7  10
ATOM      8  C   UNL     1      49.059   6.757  15.536  0.00  0.00    +0.000 C 
ATOM      9  O   UNL     1      50.107   6.846  14.896  0.00  0.00    +0.000 OA
ATOM     10  N   UNL     1      47.847   7.013  14.959  0.00  0.00    +0.000 N 
ATOM     11  H   UNL     1      46.999   6.865  15.487  0.00  0.00    +0.000 HD
BRANCH   8  19
ATOM     12  C   UNL     1      48.022   8.342  18.409  0.00  0.00    +0.000 A 
ATOM     13  N   UNL     1      47.717   8.729  19.663  0.00  0.00    +0.000 NA
ATOM     14  C   UNL     1      47.999   7.891  20.663  0.00  0.00    +0.000 A 
ATOM     15  N   UNL     1      48.556   6.688  20.568  0.00  0.00    +0.000 NA
ATOM     16  C   UNL     1      48.835   6.336  19.301  0.00  0.00    +0.000 A 
ATOM     17  S   UNL     1      49.544   4.826  18.987  0.00  0.00    +0.000 S 
ATOM     18  C   UNL     1      49.577   5.132  17.316  0.00  0.00    +0.000 A 
ATOM     19  C   UNL     1      49.058   6.371  16.959  0.00  0.00    +0.000 A 
ATOM     20  C   UNL     1      48.606   7.088  18.152  0.00  0.00    +0.000 A 
BRANCH  12  22
ATOM     21  C   UNL     1      48.705  10.165  17.115  0.00  0.00    +0.000 C 
ATOM     22  O   UNL     1      47.695   9.192  17.375  0.00  0.00    +0.000 OA
ENDBRANCH  12  22
ENDBRANCH   8  19
ENDBRANCH   7  10
ENDBRANCH   1   7
BRANCH   4  23
ATOM     23  C   UNL     1      44.083   3.754  10.759  0.00  0.00    +0.000 C 
BRANCH  23  24
ATOM     24  N   UNL     1      44.769   2.494  10.489  0.00  0.00    +0.000 NA
ATOM     25  H   UNL     1      44.448   1.799  11.163  0.00  0.00    +0.000 HD
BRANCH  24  26
ATOM     26  C   UNL     1      44.516   1.986   9.137  0.00  0.00    +0.000 C 
BRANCH  26  27
ATOM     27  C   UNL     1      45.689   2.256   8.221  0.00  0.00    +0.000 A 
ATOM     28  C   UNL     1      45.986   3.549   7.760  0.00  0.00    +0.000 A 
ATOM     29  C   UNL     1      47.101   3.785   6.953  0.00  0.00    +0.000 A 
ATOM     30  C   UNL     1      47.920   2.726   6.566  0.00  0.00    +0.000 A 
ATOM     31  C   UNL     1      47.609   1.429   6.969  0.00  0.00    +0.000 A 
ATOM     32  C   UNL     1      46.499   1.203   7.782  0.00  0.00    +0.000 A 
ATOM     33  F   UNL     1      46.221  -0.055   8.153  0.00  0.00    +0.000 F 
ENDBRANCH  26  27
ENDBRANCH  24  26
ENDBRANCH  23  24
ENDBRANCH   4  23
TORSDOF 8
ENDMDL
MODEL 4
REMARK VINA RESULT:    -7.588      2.056      2.744
REMARK INTER + INTRA:         -12.490
REMARK INTER:                 -11.594
REMARK INTRA:                  -0.895
REMARK UNBOUND:                -1.353
REMARK  Name = 
REMARK  9 active torsions:
REMARK  status: ('A' for Active; 'I' for Inactive)
REMARK    1  A    between atoms: C_1  and  O_2
REMARK    2  A    between atoms: O_2  and  C_3
REMARK    3  A    between atoms: C_10  and  C_11
REMARK    4  A    between atoms: N_13  and  C_14
REMARK    5  A    between atoms: C_14  and  C_15
REMARK    6  A    between atoms: C_18  and  C_19
REMARK    7  A    between atoms: C_19  and  N_20
REMARK    8  A    between atoms: N_20  and  C_21
REMARK    9  A    between atoms: C_21  and  C_22
REMARK                            x       y       z     vdW  Elec       q    Type
REMARK                         _______ _______ _______ _____ _____    ______ ____
ROOT
ATOM      1  C   UNL     1      46.881   6.321  12.892  0.00  0.00    +0.000 A 
ATOM      2  C   UNL     1      46.444   6.724  11.624  0.00  0.00    +0.000 A 
ATOM      3  C   UNL     1      45.572   5.918  10.880  0.00  0.00    +0.000 A 
ATOM      4  C   UNL     1      45.109   4.695  11.389  0.00  0.00    +0.000 A 
ATOM      5  C   UNL     1      45.522   4.310  12.671  0.00  0.00    +0.000 A 
ATOM      6  C   UNL     1      46.391   5.117  13.416  0.00  0.00    +0.000 A 
ENDROOT
BRANCH   1   7
ATOM      7  C   UNL     1      47.818   7.186  13.701  0.00  0.00    +0.000 C 
BRANCH   7  10
ATOM      8  C   UNL     1      48.805   7.118  15.963  0.00  0.00    +0.000 C 
ATOM      9  O   UNL     1      48.912   8.344  16.005  0.00  0.00    +0.000 OA
ATOM     10  N   UNL     1      48.284   6.485  14.870  0.00  0.00    +0.000 N 
ATOM     11  H   UNL     1      48.272   5.476  14.833  0.00  0.00    +0.000 HD
BRANCH   8  19
ATOM     12  C   UNL     1      51.860   5.895  16.969  0.00  0.00    +0.000 A 
ATOM     13  N   UNL     1      52.904   5.287  17.567  0.00  0.00    +0.000 NA
ATOM     14  C   UNL     1      52.661   4.547  18.650  0.00  0.00    +0.000 A 
ATOM     15  N   UNL     1      51.483   4.334  19.228  0.00  0.00    +0.000 NA
ATOM     16  C   UNL     1      50.471   4.966  18.608  0.00  0.00    +0.000 A 
ATOM     17  S   UNL     1      48.892   4.813  19.212  0.00  0.00    +0.000 S 
ATOM     18  C   UNL     1      48.271   5.805  17.980  0.00  0.00    +0.000 A 
ATOM     19  C   UNL     1      49.233   6.270  17.091  0.00  0.00    +0.000 A 
ATOM     20  C   UNL     1      50.554   5.770  17.475  0.00  0.00    +0.000 A 
BRANCH  12  22
ATOM     21  C   UNL     1      53.507   6.981  15.715  0.00  0.00    +0.000 C 
ATOM     22  O   UNL     1      52.120   6.690  15.874  0.00  0.00    +0.000 OA
ENDBRANCH  12  22
ENDBRANCH   8  19
ENDBRANCH   7  10
ENDBRANCH   1   7
BRANCH   4  23
ATOM     23  C   UNL     1      44.185   3.811  10.572  0.00  0.00    +0.000 C 
BRANCH  23  24
ATOM     24  N   UNL     1      44.719   2.455  10.486  0.00  0.00    +0.000 NA
ATOM     25  H   UNL     1      44.246   1.876  11.178  0.00  0.00    +0.000 HD
BRANCH  24  26
ATOM     26  C   UNL     1      44.530   1.851   9.163  0.00  0.00    +0.000 C 
BRANCH  26  27
ATOM     27  C   UNL     1      45.687   2.172   8.242  0.00  0.00    +0.000 A 
ATOM     28  C   UNL     1      45.936   3.479   7.794  0.00  0.00    +0.000 A 
ATOM     29  C   UNL     1      47.037   3.762   6.983  0.00  0.00    +0.000 A 
ATOM     30  C   UNL     1      47.890   2.737   6.580  0.00  0.00    +0.000 A 
ATOM     31  C   UNL     1      47.627   1.425   6.971  0.00  0.00    +0.000 A 
ATOM     32  C   UNL     1      46.531   1.153   7.788  0.00  0.00    +0.000 A 
ATOM     33  F   UNL     1      46.299  -0.118   8.147  0.00  0.00    +0.000 F 
ENDBRANCH  26  27
ENDBRANCH  24  26
ENDBRANCH  23  24
ENDBRANCH   4  23
TORSDOF 8
ENDMDL
MODEL 5
REMARK VINA RESULT:    -7.467      1.558      2.242
REMARK INTER + INTRA:         -12.312
REMARK INTER:                 -11.217
REMARK INTRA:                  -1.095
REMARK UNBOUND:                -1.353
REMARK  Name = 
REMARK  9 active torsions:
REMARK  status: ('A' for Active; 'I' for Inactive)
REMARK    1  A    between atoms: C_1  and  O_2
REMARK    2  A    between atoms: O_2  and  C_3
REMARK    3  A    between atoms: C_10  and  C_11
REMARK    4  A    between atoms: N_13  and  C_14
REMARK    5  A    between atoms: C_14  and  C_15
REMARK    6  A    between atoms: C_18  and  C_19
REMARK    7  A    between atoms: C_19  and  N_20
REMARK    8  A    between atoms: N_20  and  C_21
REMARK    9  A    between atoms: C_21  and  C_22
REMARK                            x       y       z     vdW  Elec       q    Type
REMARK                         _______ _______ _______ _____ _____    ______ ____
ROOT
ATOM      1  C   UNL     1      46.930   8.099  13.259  0.00  0.00    +0.000 A 
ATOM      2  C   UNL     1      45.713   8.527  12.712  0.00  0.00    +0.000 A 
ATOM      3  C   UNL     1      44.980   7.691  11.860  0.00  0.00    +0.000 A 
ATOM      4  C   UNL     1      45.440   6.404  11.541  0.00  0.00    +0.000 A 
ATOM      5  C   UNL     1      46.640   5.967  12.115  0.00  0.00    +0.000 A 
ATOM      6  C   UNL     1      47.372   6.801  12.969  0.00  0.00    +0.000 A 
ENDROOT
BRANCH   1   7
ATOM      7  C   UNL     1      47.723   8.994  14.181  0.00  0.00    +0.000 C 
BRANCH   7  10
ATOM      8  C   UNL     1      48.298   9.091  16.580  0.00  0.00    +0.000 C 
ATOM      9  O   UNL     1      48.635  10.272  16.501  0.00  0.00    +0.000 OA
ATOM     10  N   UNL     1      47.846   8.403  15.490  0.00  0.00    +0.000 N 
ATOM     11  H   UNL     1      47.642   7.417  15.567  0.00  0.00    +0.000 HD
BRANCH   8  19
ATOM     12  C   UNL     1      49.586   6.030  17.481  0.00  0.00    +0.000 A 
ATOM     13  N   UNL     1      49.985   4.896  18.091  0.00  0.00    +0.000 NA
ATOM     14  C   UNL     1      49.717   4.756  19.390  0.00  0.00    +0.000 A 
ATOM     15  N   UNL     1      49.091   5.626  20.178  0.00  0.00    +0.000 NA
ATOM     16  C   UNL     1      48.720   6.746  19.534  0.00  0.00    +0.000 A 
ATOM     17  S   UNL     1      47.912   7.972  20.385  0.00  0.00    +0.000 S 
ATOM     18  C   UNL     1      47.797   8.935  18.989  0.00  0.00    +0.000 A 
ATOM     19  C   UNL     1      48.362   8.358  17.858  0.00  0.00    +0.000 A 
ATOM     20  C   UNL     1      48.921   7.047  18.190  0.00  0.00    +0.000 A 
BRANCH  12  22
ATOM     21  C   UNL     1      51.171   6.799  15.944  0.00  0.00    +0.000 C 
ATOM     22  O   UNL     1      49.899   6.188  16.148  0.00  0.00    +0.000 OA
ENDBRANCH  12  22
ENDBRANCH   8  19
ENDBRANCH   7  10
ENDBRANCH   1   7
BRANCH   4  23
ATOM     23  C   UNL     1      44.658   5.509  10.597  0.00  0.00    +0.000 C 
BRANCH  23  24
ATOM     24  N   UNL     1      45.495   5.094   9.476  0.00  0.00    +0.000 NA
ATOM     25  H   UNL     1      46.301   4.590   9.842  0.00  0.00    +0.000 HD
BRANCH  24  26
ATOM     26  C   UNL     1      44.790   4.224   8.529  0.00  0.00    +0.000 C 
BRANCH  26  27
ATOM     27  C   UNL     1      45.728   3.212   7.910  0.00  0.00    +0.000 A 
ATOM     28  C   UNL     1      46.542   3.533   6.811  0.00  0.00    +0.000 A 
ATOM     29  C   UNL     1      47.436   2.599   6.283  0.00  0.00    +0.000 A 
ATOM     30  C   UNL     1      47.510   1.318   6.825  0.00  0.00    +0.000 A 
ATOM     31  C   UNL     1      46.671   0.965   7.880  0.00  0.00    +0.000 A 
ATOM     32  C   UNL     1      45.787   1.906   8.407  0.00  0.00    +0.000 A 
ATOM     33  F   UNL     1      44.989   1.540   9.421  0.00  0.00    +0.000 F 
ENDBRANCH  26  27
ENDBRANCH  24  26
ENDBRANCH  23  24
ENDBRANCH   4  23
TORSDOF 8
ENDMDL
MODEL 6
REMARK VINA RESULT:    -7.383      1.943      3.571
REMARK INTER + INTRA:         -12.188
REMARK INTER:                 -10.755
REMARK INTRA:                  -1.433
REMARK UNBOUND:                -1.353
REMARK  Name = 
REMARK  9 active torsions:
REMARK  status: ('A' for Active; 'I' for Inactive)
REMARK    1  A    between atoms: C_1  and  O_2
REMARK    2  A    between atoms: O_2  and  C_3
REMARK    3  A    between atoms: C_10  and  C_11
REMARK    4  A    between atoms: N_13  and  C_14
REMARK    5  A    between atoms: C_14  and  C_15
REMARK    6  A    between atoms: C_18  and  C_19
REMARK    7  A    between atoms: C_19  and  N_20
REMARK    8  A    between atoms: N_20  and  C_21
REMARK    9  A    between atoms: C_21  and  C_22
REMARK                            x       y       z     vdW  Elec       q    Type
REMARK                         _______ _______ _______ _____ _____    ______ ____
ROOT
ATOM      1  C   UNL     1      46.205   4.440  13.710  0.00  0.00    +0.000 A 
ATOM      2  C   UNL     1      45.727   5.696  13.315  0.00  0.00    +0.000 A 
ATOM      3  C   UNL     1      44.890   5.823  12.198  0.00  0.00    +0.000 A 
ATOM      4  C   UNL     1      44.503   4.697  11.455  0.00  0.00    +0.000 A 
ATOM      5  C   UNL     1      44.956   3.439  11.872  0.00  0.00    +0.000 A 
ATOM      6  C   UNL     1      45.790   3.311  12.990  0.00  0.00    +0.000 A 
ENDROOT
BRANCH   1   7
ATOM      7  C   UNL     1      47.104   4.296  14.914  0.00  0.00    +0.000 C 
BRANCH   7  10
ATOM      8  C   UNL     1      48.666   5.727  16.182  0.00  0.00    +0.000 C 
ATOM      9  O   UNL     1      49.270   4.753  16.631  0.00  0.00    +0.000 OA
ATOM     10  N   UNL     1      47.599   5.580  15.342  0.00  0.00    +0.000 N 
ATOM     11  H   UNL     1      47.078   6.392  15.044  0.00  0.00    +0.000 HD
BRANCH   8  19
ATOM     12  C   UNL     1      49.404   8.511  14.298  0.00  0.00    +0.000 A 
ATOM     13  N   UNL     1      49.747   9.721  13.814  0.00  0.00    +0.000 NA
ATOM     14  C   UNL     1      50.073  10.676  14.687  0.00  0.00    +0.000 A 
ATOM     15  N   UNL     1      50.097  10.575  16.013  0.00  0.00    +0.000 NA
ATOM     16  C   UNL     1      49.739   9.357  16.455  0.00  0.00    +0.000 A 
ATOM     17  S   UNL     1      49.706   9.048  18.123  0.00  0.00    +0.000 S 
ATOM     18  C   UNL     1      49.213   7.442  17.867  0.00  0.00    +0.000 A 
ATOM     19  C   UNL     1      49.064   7.105  16.527  0.00  0.00    +0.000 A 
ATOM     20  C   UNL     1      49.373   8.259  15.682  0.00  0.00    +0.000 A 
BRANCH  12  22
ATOM     21  C   UNL     1      48.865   8.044  12.072  0.00  0.00    +0.000 C 
ATOM     22  O   UNL     1      49.031   7.539  13.396  0.00  0.00    +0.000 OA
ENDBRANCH  12  22
ENDBRANCH   8  19
ENDBRANCH   7  10
ENDBRANCH   1   7
BRANCH   4  23
ATOM     23  C   UNL     1      43.618   4.839  10.231  0.00  0.00    +0.000 C 
BRANCH  23  24
ATOM     24  N   UNL     1      43.982   3.851   9.220  0.00  0.00    +0.000 NA
ATOM     25  H   UNL     1      43.179   3.699   8.611  0.00  0.00    +0.000 HD
BRANCH  24  26
ATOM     26  C   UNL     1      45.121   4.271   8.396  0.00  0.00    +0.000 C 
BRANCH  26  27
ATOM     27  C   UNL     1      45.880   3.078   7.859  0.00  0.00    +0.000 A 
ATOM     28  C   UNL     1      45.836   1.825   8.493  0.00  0.00    +0.000 A 
ATOM     29  C   UNL     1      46.505   0.725   7.954  0.00  0.00    +0.000 A 
ATOM     30  C   UNL     1      47.257   0.865   6.789  0.00  0.00    +0.000 A 
ATOM     31  C   UNL     1      47.356   2.113   6.177  0.00  0.00    +0.000 A 
ATOM     32  C   UNL     1      46.677   3.205   6.716  0.00  0.00    +0.000 A 
ATOM     33  F   UNL     1      46.792   4.395   6.109  0.00  0.00    +0.000 F 
ENDBRANCH  26  27
ENDBRANCH  24  26
ENDBRANCH  23  24
ENDBRANCH   4  23
TORSDOF 8
ENDMDL
MODEL 7
REMARK VINA RESULT:    -6.985      3.723      8.235
REMARK INTER + INTRA:         -11.604
REMARK INTER:                  -9.793
REMARK INTRA:                  -1.811
REMARK UNBOUND:                -1.353
REMARK  Name = 
REMARK  9 active torsions:
REMARK  status: ('A' for Active; 'I' for Inactive)
REMARK    1  A    between atoms: C_1  and  O_2
REMARK    2  A    between atoms: O_2  and  C_3
REMARK    3  A    between atoms: C_10  and  C_11
REMARK    4  A    between atoms: N_13  and  C_14
REMARK    5  A    between atoms: C_14  and  C_15
REMARK    6  A    between atoms: C_18  and  C_19
REMARK    7  A    between atoms: C_19  and  N_20
REMARK    8  A    between atoms: N_20  and  C_21
REMARK    9  A    between atoms: C_21  and  C_22
REMARK                            x       y       z     vdW  Elec       q    Type
REMARK                         _______ _______ _______ _____ _____    ______ ____
ROOT
ATOM      1  C   UNL     1      48.522   7.901  13.337  0.00  0.00    +0.000 A 
ATOM      2  C   UNL     1      48.146   8.975  14.154  0.00  0.00    +0.000 A 
ATOM      3  C   UNL     1      48.241   8.879  15.549  0.00  0.00    +0.000 A 
ATOM      4  C   UNL     1      48.722   7.711  16.160  0.00  0.00    +0.000 A 
ATOM      5  C   UNL     1      49.129   6.651  15.340  0.00  0.00    +0.000 A 
ATOM      6  C   UNL     1      49.037   6.748  13.946  0.00  0.00    +0.000 A 
ENDROOT
BRANCH   1   7
ATOM      7  C   UNL     1      48.426   7.999  11.833  0.00  0.00    +0.000 C 
BRANCH   7  10
ATOM      8  C   UNL     1      46.283   6.875  11.341  0.00  0.00    +0.000 C 
ATOM      9  O   UNL     1      45.633   7.784  11.858  0.00  0.00    +0.000 OA
ATOM     10  N   UNL     1      47.648   6.911  11.297  0.00  0.00    +0.000 N 
ATOM     11  H   UNL     1      48.160   6.121  10.930  0.00  0.00    +0.000 HD
BRANCH   8  19
ATOM     12  C   UNL     1      44.452   4.275  12.655  0.00  0.00    +0.000 A 
ATOM     13  N   UNL     1      43.729   3.164  12.900  0.00  0.00    +0.000 NA
ATOM     14  C   UNL     1      43.415   2.381  11.866  0.00  0.00    +0.000 A 
ATOM     15  N   UNL     1      43.734   2.572  10.590  0.00  0.00    +0.000 NA
ATOM     16  C   UNL     1      44.445   3.695  10.387  0.00  0.00    +0.000 A 
ATOM     17  S   UNL     1      44.936   4.103   8.815  0.00  0.00    +0.000 S 
ATOM     18  C   UNL     1      45.714   5.509   9.369  0.00  0.00    +0.000 A 
ATOM     19  C   UNL     1      45.622   5.701  10.743  0.00  0.00    +0.000 A 
ATOM     20  C   UNL     1      44.853   4.614  11.351  0.00  0.00    +0.000 A 
BRANCH  12  22
ATOM     21  C   UNL     1      46.022   4.843  14.290  0.00  0.00    +0.000 C 
ATOM     22  O   UNL     1      44.741   5.102  13.719  0.00  0.00    +0.000 OA
ENDBRANCH  12  22
ENDBRANCH   8  19
ENDBRANCH   7  10
ENDBRANCH   1   7
BRANCH   4  23
ATOM     23  C   UNL     1      48.800   7.599  17.671  0.00  0.00    +0.000 C 
BRANCH  23  24
ATOM     24  N   UNL     1      47.720   6.757  18.177  0.00  0.00    +0.000 NA
ATOM     25  H   UNL     1      47.255   6.316  17.385  0.00  0.00    +0.000 HD
BRANCH  24  26
ATOM     26  C   UNL     1      48.193   5.708  19.086  0.00  0.00    +0.000 C 
BRANCH  26  27
ATOM     27  C   UNL     1      48.797   4.551  18.321  0.00  0.00    +0.000 A 
ATOM     28  C   UNL     1      50.177   4.292  18.338  0.00  0.00    +0.000 A 
ATOM     29  C   UNL     1      50.709   3.191  17.664  0.00  0.00    +0.000 A 
ATOM     30  C   UNL     1      49.874   2.347  16.935  0.00  0.00    +0.000 A 
ATOM     31  C   UNL     1      48.509   2.620  16.862  0.00  0.00    +0.000 A 
ATOM     32  C   UNL     1      47.985   3.716  17.546  0.00  0.00    +0.000 A 
ATOM     33  F   UNL     1      46.669   3.957  17.457  0.00  0.00    +0.000 F 
ENDBRANCH  26  27
ENDBRANCH  24  26
ENDBRANCH  23  24
ENDBRANCH   4  23
TORSDOF 8
ENDMDL
MODEL 8
REMARK VINA RESULT:    -6.980      2.298      3.071
REMARK INTER + INTRA:         -11.596
REMARK INTER:                 -10.759
REMARK INTRA:                  -0.837
REMARK UNBOUND:                -1.353
REMARK  Name = 
REMARK  9 active torsions:
REMARK  status: ('A' for Active; 'I' for Inactive)
REMARK    1  A    between atoms: C_1  and  O_2
REMARK    2  A    between atoms: O_2  and  C_3
REMARK    3  A    between atoms: C_10  and  C_11
REMARK    4  A    between atoms: N_13  and  C_14
REMARK    5  A    between atoms: C_14  and  C_15
REMARK    6  A    between atoms: C_18  and  C_19
REMARK    7  A    between atoms: C_19  and  N_20
REMARK    8  A    between atoms: N_20  and  C_21
REMARK    9  A    between atoms: C_21  and  C_22
REMARK                            x       y       z     vdW  Elec       q    Type
REMARK                         _______ _______ _______ _____ _____    ______ ____
ROOT
ATOM      1  C   UNL     1      46.084   6.556  12.821  0.00  0.00    +0.000 A 
ATOM      2  C   UNL     1      45.983   5.248  13.314  0.00  0.00    +0.000 A 
ATOM      3  C   UNL     1      45.088   4.336  12.740  0.00  0.00    +0.000 A 
ATOM      4  C   UNL     1      44.279   4.704  11.655  0.00  0.00    +0.000 A 
ATOM      5  C   UNL     1      44.405   6.002  11.143  0.00  0.00    +0.000 A 
ATOM      6  C   UNL     1      45.302   6.913  11.714  0.00  0.00    +0.000 A 
ENDROOT
BRANCH   1   7
ATOM      7  C   UNL     1      47.048   7.543  13.433  0.00  0.00    +0.000 C 
BRANCH   7  10
ATOM      8  C   UNL     1      48.689   7.525  15.278  0.00  0.00    +0.000 C 
ATOM      9  O   UNL     1      48.570   8.737  15.459  0.00  0.00    +0.000 OA
ATOM     10  N   UNL     1      47.982   6.877  14.306  0.00  0.00    +0.000 N 
ATOM     11  H   UNL     1      48.149   5.897  14.131  0.00  0.00    +0.000 HD
BRANCH   8  19
ATOM     12  C   UNL     1      52.117   7.313  15.494  0.00  0.00    +0.000 A 
ATOM     13  N   UNL     1      53.404   7.024  15.769  0.00  0.00    +0.000 NA
ATOM     14  C   UNL     1      53.654   6.079  16.678  0.00  0.00    +0.000 A 
ATOM     15  N   UNL     1      52.762   5.373  17.365  0.00  0.00    +0.000 NA
ATOM     16  C   UNL     1      51.492   5.699  17.070  0.00  0.00    +0.000 A 
ATOM     17  S   UNL     1      50.217   4.902  17.858  0.00  0.00    +0.000 S 
ATOM     18  C   UNL     1      49.057   5.797  16.997  0.00  0.00    +0.000 A 
ATOM     19  C   UNL     1      49.601   6.710  16.101  0.00  0.00    +0.000 A 
ATOM     20  C   UNL     1      51.063   6.654  16.153  0.00  0.00    +0.000 A 
BRANCH  12  22
ATOM     21  C   UNL     1      53.015   8.687  13.830  0.00  0.00    +0.000 C 
ATOM     22  O   UNL     1      51.863   8.316  14.584  0.00  0.00    +0.000 OA
ENDBRANCH  12  22
ENDBRANCH   8  19
ENDBRANCH   7  10
ENDBRANCH   1   7
BRANCH   4  23
ATOM     23  C   UNL     1      43.292   3.723  11.051  0.00  0.00    +0.000 C 
BRANCH  23  24
ATOM     24  N   UNL     1      43.784   3.226   9.770  0.00  0.00    +0.000 NA
ATOM     25  H   UNL     1      43.917   4.020   9.144  0.00  0.00    +0.000 HD
BRANCH  24  26
ATOM     26  C   UNL     1      45.056   2.506   9.888  0.00  0.00    +0.000 C 
BRANCH  26  27
ATOM     27  C   UNL     1      45.795   2.477   8.568  0.00  0.00    +0.000 A 
ATOM     28  C   UNL     1      46.301   1.283   8.028  0.00  0.00    +0.000 A 
ATOM     29  C   UNL     1      46.938   1.270   6.786  0.00  0.00    +0.000 A 
ATOM     30  C   UNL     1      47.110   2.457   6.076  0.00  0.00    +0.000 A 
ATOM     31  C   UNL     1      46.663   3.659   6.621  0.00  0.00    +0.000 A 
ATOM     32  C   UNL     1      46.019   3.662   7.858  0.00  0.00    +0.000 A 
ATOM     33  F   UNL     1      45.601   4.833   8.361  0.00  0.00    +0.000 F 
ENDBRANCH  26  27
ENDBRANCH  24  26
ENDBRANCH  23  24
ENDBRANCH   4  23
TORSDOF 8
ENDMDL
MODEL 9
REMARK VINA RESULT:    -6.816      2.924      3.798
REMARK INTER + INTRA:         -11.357
REMARK INTER:                 -10.444
REMARK INTRA:                  -0.912
REMARK UNBOUND:                -1.353
REMARK  Name = 
REMARK  9 active torsions:
REMARK  status: ('A' for Active; 'I' for Inactive)
REMARK    1  A    between atoms: C_1  and  O_2
REMARK    2  A    between atoms: O_2  and  C_3
REMARK    3  A    between atoms: C_10  and  C_11
REMARK    4  A    between atoms: N_13  and  C_14
REMARK    5  A    between atoms: C_14  and  C_15
REMARK    6  A    between atoms: C_18  and  C_19
REMARK    7  A    between atoms: C_19  and  N_20
REMARK    8  A    between atoms: N_20  and  C_21
REMARK    9  A    between atoms: C_21  and  C_22
REMARK                            x       y       z     vdW  Elec       q    Type
REMARK                         _______ _______ _______ _____ _____    ______ ____
ROOT
ATOM      1  C   UNL     1      45.224   6.717  12.573  0.00  0.00    +0.000 A 
ATOM      2  C   UNL     1      45.467   5.564  13.331  0.00  0.00    +0.000 A 
ATOM      3  C   UNL     1      44.925   4.330  12.947  0.00  0.00    +0.000 A 
ATOM      4  C   UNL     1      44.135   4.216  11.793  0.00  0.00    +0.000 A 
ATOM      5  C   UNL     1      43.921   5.364  11.020  0.00  0.00    +0.000 A 
ATOM      6  C   UNL     1      44.464   6.597  11.401  0.00  0.00    +0.000 A 
ENDROOT
BRANCH   1   7
ATOM      7  C   UNL     1      45.807   8.049  12.979  0.00  0.00    +0.000 C 
BRANCH   7  10
ATOM      8  C   UNL     1      48.055   8.712  13.757  0.00  0.00    +0.000 C 
ATOM      9  O   UNL     1      48.081   9.685  13.003  0.00  0.00    +0.000 OA
ATOM     10  N   UNL     1      46.980   7.869  13.796  0.00  0.00    +0.000 N 
ATOM     11  H   UNL     1      47.013   7.040  14.371  0.00  0.00    +0.000 HD
BRANCH   8  19
ATOM     12  C   UNL     1      51.456   8.482  13.287  0.00  0.00    +0.000 A 
ATOM     13  N   UNL     1      52.790   8.318  13.379  0.00  0.00    +0.000 NA
ATOM     14  C   UNL     1      53.300   7.978  14.564  0.00  0.00    +0.000 A 
ATOM     15  N   UNL     1      52.632   7.780  15.697  0.00  0.00    +0.000 NA
ATOM     16  C   UNL     1      51.306   7.963  15.565  0.00  0.00    +0.000 A 
ATOM     17  S   UNL     1      50.294   7.759  16.912  0.00  0.00    +0.000 S 
ATOM     18  C   UNL     1      48.912   8.124  15.992  0.00  0.00    +0.000 A 
ATOM     19  C   UNL     1      49.181   8.406  14.658  0.00  0.00    +0.000 A 
ATOM     20  C   UNL     1      50.620   8.316  14.406  0.00  0.00    +0.000 A 
BRANCH  12  22
ATOM     21  C   UNL     1      51.728   8.436  10.966  0.00  0.00    +0.000 C 
ATOM     22  O   UNL     1      50.937   8.870  12.071  0.00  0.00    +0.000 OA
ENDBRANCH  12  22
ENDBRANCH   8  19
ENDBRANCH   7  10
ENDBRANCH   1   7
BRANCH   4  23
ATOM     23  C   UNL     1      43.528   2.885  11.393  0.00  0.00    +0.000 C 
BRANCH  23  24
ATOM     24  N   UNL     1      44.413   2.175  10.475  0.00  0.00    +0.000 NA
ATOM     25  H   UNL     1      44.222   1.176  10.549  0.00  0.00    +0.000 HD
BRANCH  24  26
ATOM     26  C   UNL     1      44.230   2.583   9.078  0.00  0.00    +0.000 C 
BRANCH  26  27
ATOM     27  C   UNL     1      45.514   2.437   8.292  0.00  0.00    +0.000 A 
ATOM     28  C   UNL     1      46.145   1.193   8.128  0.00  0.00    +0.000 A 
ATOM     29  C   UNL     1      47.304   1.071   7.358  0.00  0.00    +0.000 A 
ATOM     30  C   UNL     1      47.870   2.197   6.765  0.00  0.00    +0.000 A 
ATOM     31  C   UNL     1      47.289   3.448   6.962  0.00  0.00    +0.000 A 
ATOM     32  C   UNL     1      46.126   3.560   7.725  0.00  0.00    +0.000 A 
ATOM     33  F   UNL     1      45.589   4.775   7.901  0.00  0.00    +0.000 F 
ENDBRANCH  26  27
ENDBRANCH  24  26
ENDBRANCH  23  24
ENDBRANCH   4  23
TORSDOF 8
ENDMDL
