MODEL 1
REMARK VINA RESULT:    -8.007      0.000      0.000
REMARK INTER + INTRA:         -12.805
REMARK INTER:                 -11.752
REMARK INTRA:                  -1.054
REMARK UNBOUND:                -1.054
REMARK  Name = 
REMARK  9 active torsions:
REMARK  status: ('A' for Active; 'I' for Inactive)
REMARK    1  A    between atoms: C_1  and  C_2
REMARK    2  A    between atoms: C_2  and  C_3
REMARK    3  A    between atoms: C_3  and  N_4
REMARK    4  A    between atoms: C_3  and  C_26
REMARK    5  A    between atoms: N_4  and  C_5
REMARK    6  A    between atoms: C_5  and  C_6
REMARK    7  A    between atoms: C_9  and  C_10
REMARK    8  A    between atoms: C_10  and  N_11
REMARK    9  A    between atoms: C_12  and  C_14
REMARK                            x       y       z     vdW  Elec       q    Type
REMARK                         _______ _______ _______ _____ _____    ______ ____
ROOT
ATOM      1  C   UNL     1      44.286   6.706  11.680  0.00  0.00    +0.000 A 
ATOM      2  C   UNL     1      44.582   8.042  11.374  0.00  0.00    +0.000 A 
ATOM      3  C   UNL     1      45.643   8.698  12.002  0.00  0.00    +0.000 A 
ATOM      4  C   UNL     1      46.430   8.027  12.946  0.00  0.00    +0.000 A 
ATOM      5  C   UNL     1      46.112   6.704  13.277  0.00  0.00    +0.000 A 
ATOM      6  C   UNL     1      45.053   6.047  12.648  0.00  0.00    +0.000 A 
ENDROOT
BRANCH   1   7
ATOM      7  C   UNL     1      43.113   6.013  11.026  0.00  0.00    +0.000 C 
BRANCH   7   8
ATOM      8  N   UNL     1      43.541   5.156   9.921  0.00  0.00    +0.000 NA
ATOM      9  H   UNL     1      44.119   5.720   9.293  0.00  0.00    +0.000 HD
BRANCH   8  10
ATOM     10  C   UNL     1      44.360   4.001  10.358  0.00  0.00    +0.000 C 
BRANCH  10  11
ATOM     11  C   UNL     1      45.200   3.476   9.187  0.00  0.00    +0.000 A 
ATOM     12  C   UNL     1      45.458   2.109   9.043  0.00  0.00    +0.000 A 
ATOM     13  C   UNL     1      46.245   1.673   7.984  0.00  0.00    +0.000 A 
ATOM     14  C   UNL     1      46.757   2.603   7.089  0.00  0.00    +0.000 A 
ATOM     15  C   UNL     1      46.450   3.940   7.291  0.00  0.00    +0.000 A 
ATOM     16  N   UNL     1      45.688   4.395   8.313  0.00  0.00    +0.000 NA
ENDBRANCH  10  11
BRANCH  10  18
ATOM     17  C   UNL     1      43.665   2.707  12.472  0.00  0.00    +0.000 C 
ATOM     18  C   UNL     1      43.495   2.873  10.968  0.00  0.00    +0.000 C 
ENDBRANCH  10  18
ENDBRANCH   8  10
ENDBRANCH   7   8
ENDBRANCH   1   7
BRANCH   4  19
ATOM     19  C   UNL     1      47.572   8.725  13.633  0.00  0.00    +0.000 C 
BRANCH  19  20
ATOM     20  N   UNL     1      47.882   8.095  14.890  0.00  0.00    +0.000 N 
ATOM     21  C   UNL     1      48.913   7.199  14.994  0.00  0.00    +0.000 C 
ATOM     22  O   UNL     1      49.641   6.933  14.040  0.00  0.00    +0.000 OA
ATOM     23  H   UNL     1      47.174   8.136  15.616  0.00  0.00    +0.000 HD
BRANCH  21  24
ATOM     24  C   UNL     1      49.147   6.615  16.320  0.00  0.00    +0.000 A 
ATOM     25  C   UNL     1      49.886   7.326  17.257  0.00  0.00    +0.000 A 
ATOM     26  S   UNL     1      50.028   6.535  18.760  0.00  0.00    +0.000 S 
ATOM     27  C   UNL     1      49.148   5.192  18.197  0.00  0.00    +0.000 A 
ATOM     28  N   UNL     1      48.924   4.118  19.002  0.00  0.00    +0.000 NA
ATOM     29  C   UNL     1      48.271   3.157  18.438  0.00  0.00    +0.000 A 
ATOM     30  N   UNL     1      47.816   3.175  17.145  0.00  0.00    +0.000 N 
ATOM     31  C   UNL     1      47.995   4.248  16.305  0.00  0.00    +0.000 A 
ATOM     32  O   UNL     1      47.541   4.247  15.165  0.00  0.00    +0.000 OA
ATOM     33  C   UNL     1      48.735   5.352  16.885  0.00  0.00    +0.000 A 
ATOM     34  H   UNL     1      47.304   2.393  16.766  0.00  0.00    +0.000 HD
ENDBRANCH  21  24
ENDBRANCH  19  20
ENDBRANCH   4  19
TORSDOF 8
ENDMDL
MODEL 2
REMARK VINA RESULT:    -7.276      4.878      9.630
REMARK INTER + INTRA:         -11.733
REMARK INTER:                 -10.441
REMARK INTRA:                  -1.292
REMARK UNBOUND:                -1.054
REMARK  Name = 
REMARK  9 active torsions:
REMARK  status: ('A' for Active; 'I' for Inactive)
REMARK    1  A    between atoms: C_1  and  C_2
REMARK    2  A    between atoms: C_2  and  C_3
REMARK    3  A    between atoms: C_3  and  N_4
REMARK    4  A    between atoms: C_3  and  C_26
REMARK    5  A    between atoms: N_4  and  C_5
REMARK    6  A    between atoms: C_5  and  C_6
REMARK    7  A    between atoms: C_9  and  C_10
REMARK    8  A    between atoms: C_10  and  N_11
REMARK    9  A    between atoms: C_12  and  C_14
REMARK                            x       y       z     vdW  Elec       q    Type
REMARK                         _______ _______ _______ _____ _____    ______ ____
ROOT
ATOM      1  C   UNL     1      51.005   2.316  17.399  0.00  0.00    +0.000 A 
ATOM      2  C   UNL     1      51.667   3.546  17.521  0.00  0.00    +0.000 A 
ATOM      3  C   UNL     1      50.965   4.748  17.408  0.00  0.00    +0.000 A 
ATOM      4  C   UNL     1      49.584   4.740  17.175  0.00  0.00    +0.000 A 
ATOM      5  C   UNL     1      48.929   3.512  17.017  0.00  0.00    +0.000 A 
ATOM      6  C   UNL     1      49.631   2.310  17.132  0.00  0.00    +0.000 A 
ENDROOT
BRANCH   1   7
ATOM      7  C   UNL     1      51.777   1.019  17.484  0.00  0.00    +0.000 C 
BRANCH   7   8
ATOM      8  N   UNL     1      52.802   1.070  18.526  0.00  0.00    +0.000 NA
ATOM      9  H   UNL     1      52.525   0.424  19.270  0.00  0.00    +0.000 HD
BRANCH   8  10
ATOM     10  C   UNL     1      54.142   0.649  18.051  0.00  0.00    +0.000 C 
BRANCH  10  11
ATOM     11  C   UNL     1      54.304  -0.868  18.203  0.00  0.00    +0.000 A 
ATOM     12  C   UNL     1      55.029  -1.611  17.266  0.00  0.00    +0.000 A 
ATOM     13  C   UNL     1      55.132  -2.989  17.423  0.00  0.00    +0.000 A 
ATOM     14  C   UNL     1      54.515  -3.597  18.507  0.00  0.00    +0.000 A 
ATOM     15  C   UNL     1      53.821  -2.794  19.399  0.00  0.00    +0.000 A 
ATOM     16  N   UNL     1      53.703  -1.451  19.273  0.00  0.00    +0.000 NA
ENDBRANCH  10  11
BRANCH  10  18
ATOM     17  C   UNL     1      54.802   2.583  19.616  0.00  0.00    +0.000 C 
ATOM     18  C   UNL     1      55.279   1.403  18.780  0.00  0.00    +0.000 C 
ENDBRANCH  10  18
ENDBRANCH   8  10
ENDBRANCH   7   8
ENDBRANCH   1   7
BRANCH   4  19
ATOM     19  C   UNL     1      48.817   6.027  17.045  0.00  0.00    +0.000 C 
BRANCH  19  20
ATOM     20  N   UNL     1      47.891   5.969  15.944  0.00  0.00    +0.000 N 
ATOM     21  C   UNL     1      48.269   6.353  14.684  0.00  0.00    +0.000 C 
ATOM     22  O   UNL     1      49.415   6.714  14.432  0.00  0.00    +0.000 OA
ATOM     23  H   UNL     1      46.905   5.882  16.171  0.00  0.00    +0.000 HD
BRANCH  21  24
ATOM     24  C   UNL     1      47.250   6.253  13.632  0.00  0.00    +0.000 A 
ATOM     25  C   UNL     1      46.820   7.404  12.986  0.00  0.00    +0.000 A 
ATOM     26  S   UNL     1      45.673   7.114  11.760  0.00  0.00    +0.000 S 
ATOM     27  C   UNL     1      45.672   5.444  12.081  0.00  0.00    +0.000 A 
ATOM     28  N   UNL     1      44.867   4.599  11.381  0.00  0.00    +0.000 NA
ATOM     29  C   UNL     1      44.944   3.363  11.748  0.00  0.00    +0.000 A 
ATOM     30  N   UNL     1      45.757   2.895  12.748  0.00  0.00    +0.000 N 
ATOM     31  C   UNL     1      46.606   3.706  13.463  0.00  0.00    +0.000 A 
ATOM     32  O   UNL     1      47.348   3.247  14.325  0.00  0.00    +0.000 OA
ATOM     33  C   UNL     1      46.550   5.108  13.098  0.00  0.00    +0.000 A 
ATOM     34  H   UNL     1      45.775   1.913  12.981  0.00  0.00    +0.000 HD
ENDBRANCH  21  24
ENDBRANCH  19  20
ENDBRANCH   4  19
TORSDOF 8
ENDMDL
MODEL 3
REMARK VINA RESULT:    -7.265      2.804      8.089
REMARK INTER + INTRA:         -11.716
REMARK INTER:                  -9.783
REMARK INTRA:                  -1.934
REMARK UNBOUND:                -1.054
REMARK  Name = 
REMARK  9 active torsions:
REMARK  status: ('A' for Active; 'I' for Inactive)
REMARK    1  A    between atoms: C_1  and  C_2
REMARK    2  A    between atoms: C_2  and  C_3
REMARK    3  A    between atoms: C_3  and  N_4
REMARK    4  A    between atoms: C_3  and  C_26
REMARK    5  A    between atoms: N_4  and  C_5
REMARK    6  A    between atoms: C_5  and  C_6
REMARK    7  A    between atoms: C_9  and  C_10
REMARK    8  A    between atoms: C_10  and  N_11
REMARK    9  A    between atoms: C_12  and  C_14
REMARK                            x       y       z     vdW  Elec       q    Type
REMARK                         _______ _______ _______ _____ _____    ______ ____
ROOT
ATOM      1  C   UNL     1      49.366   8.282  15.892  0.00  0.00    +0.000 A 
ATOM      2  C   UNL     1      49.946   7.385  14.984  0.00  0.00    +0.000 A 
ATOM      3  C   UNL     1      49.444   7.259  13.687  0.00  0.00    +0.000 A 
ATOM      4  C   UNL     1      48.352   8.032  13.273  0.00  0.00    +0.000 A 
ATOM      5  C   UNL     1      47.750   8.901  14.191  0.00  0.00    +0.000 A 
ATOM      6  C   UNL     1      48.254   9.030  15.487  0.00  0.00    +0.000 A 
ENDROOT
BRANCH   1   7
ATOM      7  C   UNL     1      49.889   8.387  17.305  0.00  0.00    +0.000 C 
BRANCH   7   8
ATOM      8  N   UNL     1      50.473   7.124  17.759  0.00  0.00    +0.000 NA
ATOM      9  H   UNL     1      51.304   7.344  18.313  0.00  0.00    +0.000 HD
BRANCH   8  10
ATOM     10  C   UNL     1      49.563   6.334  18.622  0.00  0.00    +0.000 C 
BRANCH  10  11
ATOM     11  C   UNL     1      49.100   5.072  17.885  0.00  0.00    +0.000 A 
ATOM     12  C   UNL     1      47.947   5.083  17.093  0.00  0.00    +0.000 A 
ATOM     13  C   UNL     1      47.544   3.913  16.462  0.00  0.00    +0.000 A 
ATOM     14  C   UNL     1      48.295   2.757  16.627  0.00  0.00    +0.000 A 
ATOM     15  C   UNL     1      49.431   2.826  17.420  0.00  0.00    +0.000 A 
ATOM     16  N   UNL     1      49.848   3.950  18.048  0.00  0.00    +0.000 NA
ENDBRANCH  10  11
BRANCH  10  18
ATOM     17  C   UNL     1      47.784   6.714  20.444  0.00  0.00    +0.000 C 
ATOM     18  C   UNL     1      48.353   7.168  19.106  0.00  0.00    +0.000 C 
ENDBRANCH  10  18
ENDBRANCH   8  10
ENDBRANCH   7   8
ENDBRANCH   1   7
BRANCH   4  19
ATOM     19  C   UNL     1      47.799   7.900  11.881  0.00  0.00    +0.000 C 
BRANCH  19  20
ATOM     20  N   UNL     1      47.080   6.662  11.726  0.00  0.00    +0.000 N 
ATOM     21  C   UNL     1      45.712   6.629  11.779  0.00  0.00    +0.000 C 
ATOM     22  O   UNL     1      45.043   7.651  11.913  0.00  0.00    +0.000 OA
ATOM     23  H   UNL     1      47.611   5.802  11.830  0.00  0.00    +0.000 HD
BRANCH  21  24
ATOM     24  C   UNL     1      45.077   5.317  11.607  0.00  0.00    +0.000 A 
ATOM     25  C   UNL     1      44.411   4.735  12.677  0.00  0.00    +0.000 A 
ATOM     26  S   UNL     1      43.689   3.237  12.303  0.00  0.00    +0.000 S 
ATOM     27  C   UNL     1      44.282   3.289  10.709  0.00  0.00    +0.000 A 
ATOM     28  N   UNL     1      44.037   2.271   9.840  0.00  0.00    +0.000 NA
ATOM     29  C   UNL     1      44.572   2.425   8.675  0.00  0.00    +0.000 A 
ATOM     30  N   UNL     1      45.324   3.508   8.297  0.00  0.00    +0.000 N 
ATOM     31  C   UNL     1      45.574   4.571   9.131  0.00  0.00    +0.000 A 
ATOM     32  O   UNL     1      46.219   5.542   8.748  0.00  0.00    +0.000 OA
ATOM     33  C   UNL     1      45.006   4.443  10.459  0.00  0.00    +0.000 A 
ATOM     34  H   UNL     1      45.707   3.571   7.366  0.00  0.00    +0.000 HD
ENDBRANCH  21  24
ENDBRANCH  19  20
ENDBRANCH   4  19
TORSDOF 8
ENDMDL
MODEL 4
REMARK VINA RESULT:    -7.070      2.129      2.943
REMARK INTER + INTRA:         -11.431
REMARK INTER:                 -10.362
REMARK INTRA:                  -1.069
REMARK UNBOUND:                -1.054
REMARK  Name = 
REMARK  9 active torsions:
REMARK  status: ('A' for Active; 'I' for Inactive)
REMARK    1  A    between atoms: C_1  and  C_2
REMARK    2  A    between atoms: C_2  and  C_3
REMARK    3  A    between atoms: C_3  and  N_4
REMARK    4  A    between atoms: C_3  and  C_26
REMARK    5  A    between atoms: N_4  and  C_5
REMARK    6  A    between atoms: C_5  and  C_6
REMARK    7  A    between atoms: C_9  and  C_10
REMARK    8  A    between atoms: C_10  and  N_11
REMARK    9  A    between atoms: C_12  and  C_14
REMARK                            x       y       z     vdW  Elec       q    Type
REMARK                         _______ _______ _______ _____ _____    ______ ____
ROOT
ATOM      1  C   UNL     1      45.022   6.356  12.100  0.00  0.00    +0.000 A 
ATOM      2  C   UNL     1      45.915   7.395  11.797  0.00  0.00    +0.000 A 
ATOM      3  C   UNL     1      47.094   7.556  12.527  0.00  0.00    +0.000 A 
ATOM      4  C   UNL     1      47.403   6.678  13.574  0.00  0.00    +0.000 A 
ATOM      5  C   UNL     1      46.494   5.664  13.900  0.00  0.00    +0.000 A 
ATOM      6  C   UNL     1      45.316   5.500  13.168  0.00  0.00    +0.000 A 
ENDROOT
BRANCH   1   7
ATOM      7  C   UNL     1      43.729   6.209  11.332  0.00  0.00    +0.000 C 
BRANCH   7   8
ATOM      8  N   UNL     1      43.892   5.344  10.163  0.00  0.00    +0.000 NA
ATOM      9  H   UNL     1      44.502   5.826   9.499  0.00  0.00    +0.000 HD
BRANCH   8  10
ATOM     10  C   UNL     1      44.525   4.042  10.481  0.00  0.00    +0.000 C 
BRANCH  10  11
ATOM     11  C   UNL     1      45.302   3.522   9.266  0.00  0.00    +0.000 A 
ATOM     12  C   UNL     1      45.494   2.152   9.068  0.00  0.00    +0.000 A 
ATOM     13  C   UNL     1      46.226   1.718   7.968  0.00  0.00    +0.000 A 
ATOM     14  C   UNL     1      46.749   2.656   7.089  0.00  0.00    +0.000 A 
ATOM     15  C   UNL     1      46.510   3.997   7.345  0.00  0.00    +0.000 A 
ATOM     16  N   UNL     1      45.802   4.449   8.407  0.00  0.00    +0.000 NA
ENDBRANCH  10  11
BRANCH  10  18
ATOM     17  C   UNL     1      43.535   2.738  12.467  0.00  0.00    +0.000 C 
ATOM     18  C   UNL     1      43.493   2.998  10.967  0.00  0.00    +0.000 C 
ENDBRANCH  10  18
ENDBRANCH   8  10
ENDBRANCH   7   8
ENDBRANCH   1   7
BRANCH   4  19
ATOM     19  C   UNL     1      48.667   6.846  14.372  0.00  0.00    +0.000 C 
BRANCH  19  20
ATOM     20  N   UNL     1      48.374   7.055  15.766  0.00  0.00    +0.000 N 
ATOM     21  C   UNL     1      48.938   6.263  16.731  0.00  0.00    +0.000 C 
ATOM     22  O   UNL     1      49.747   5.381  16.456  0.00  0.00    +0.000 OA
ATOM     23  H   UNL     1      47.562   7.623  15.989  0.00  0.00    +0.000 HD
BRANCH  21  24
ATOM     24  C   UNL     1      48.576   6.562  18.122  0.00  0.00    +0.000 A 
ATOM     25  C   UNL     1      48.079   5.548  18.930  0.00  0.00    +0.000 A 
ATOM     26  S   UNL     1      47.752   6.044  20.528  0.00  0.00    +0.000 S 
ATOM     27  C   UNL     1      48.217   7.644  20.184  0.00  0.00    +0.000 A 
ATOM     28  N   UNL     1      48.150   8.610  21.139  0.00  0.00    +0.000 NA
ATOM     29  C   UNL     1      48.503   9.785  20.734  0.00  0.00    +0.000 A 
ATOM     30  N   UNL     1      48.921  10.079  19.462  0.00  0.00    +0.000 N 
ATOM     31  C   UNL     1      49.030   9.131  18.473  0.00  0.00    +0.000 A 
ATOM     32  O   UNL     1      49.445   9.422  17.356  0.00  0.00    +0.000 OA
ATOM     33  C   UNL     1      48.634   7.794  18.872  0.00  0.00    +0.000 A 
ATOM     34  H   UNL     1      49.191  11.019  19.212  0.00  0.00    +0.000 HD
ENDBRANCH  21  24
ENDBRANCH  19  20
ENDBRANCH   4  19
TORSDOF 8
ENDMDL
MODEL 5
REMARK VINA RESULT:    -6.538      5.067      8.082
REMARK INTER + INTRA:         -10.649
REMARK INTER:                  -9.332
REMARK INTRA:                  -1.317
REMARK UNBOUND:                -1.054
REMARK  Name = 
REMARK  9 active torsions:
REMARK  status: ('A' for Active; 'I' for Inactive)
REMARK    1  A    between atoms: C_1  and  C_2
REMARK    2  A    between atoms: C_2  and  C_3
REMARK    3  A    between atoms: C_3  and  N_4
REMARK    4  A    between atoms: C_3  and  C_26
REMARK    5  A    between atoms: N_4  and  C_5
REMARK    6  A    between atoms: C_5  and  C_6
REMARK    7  A    between atoms: C_9  and  C_10
REMARK    8  A    between atoms: C_10  and  N_11
REMARK    9  A    between atoms: C_12  and  C_14
REMARK                            x       y       z     vdW  Elec       q    Type
REMARK                         _______ _______ _______ _____ _____    ______ ____
ROOT
ATOM      1  C   UNL     1      50.618   8.826  11.986  0.00  0.00    +0.000 A 
ATOM      2  C   UNL     1      49.786   9.906  12.317  0.00  0.00    +0.000 A 
ATOM      3  C   UNL     1      48.399   9.750  12.362  0.00  0.00    +0.000 A 
ATOM      4  C   UNL     1      47.818   8.507  12.079  0.00  0.00    +0.000 A 
ATOM      5  C   UNL     1      48.645   7.438  11.713  0.00  0.00    +0.000 A 
ATOM      6  C   UNL     1      50.033   7.593  11.671  0.00  0.00    +0.000 A 
ENDROOT
BRANCH   1   7
ATOM      7  C   UNL     1      52.115   9.009  11.901  0.00  0.00    +0.000 C 
BRANCH   7   8
ATOM      8  N   UNL     1      52.805   7.731  11.727  0.00  0.00    +0.000 NA
ATOM      9  H   UNL     1      52.138   7.066  11.329  0.00  0.00    +0.000 HD
BRANCH   8  10
ATOM     10  C   UNL     1      53.959   7.810  10.800  0.00  0.00    +0.000 C 
BRANCH  10  11
ATOM     11  C   UNL     1      53.672   6.999   9.530  0.00  0.00    +0.000 A 
ATOM     12  C   UNL     1      52.626   7.352   8.673  0.00  0.00    +0.000 A 
ATOM     13  C   UNL     1      52.379   6.578   7.545  0.00  0.00    +0.000 A 
ATOM     14  C   UNL     1      53.178   5.471   7.293  0.00  0.00    +0.000 A 
ATOM     15  C   UNL     1      54.203   5.189   8.183  0.00  0.00    +0.000 A 
ATOM     16  N   UNL     1      54.467   5.924   9.289  0.00  0.00    +0.000 NA
ENDBRANCH  10  11
BRANCH  10  18
ATOM     17  C   UNL     1      55.088   6.772  12.867  0.00  0.00    +0.000 C 
ATOM     18  C   UNL     1      55.274   7.345  11.468  0.00  0.00    +0.000 C 
ENDBRANCH  10  18
ENDBRANCH   8  10
ENDBRANCH   7   8
ENDBRANCH   1   7
BRANCH   4  19
ATOM     19  C   UNL     1      46.325   8.329  12.118  0.00  0.00    +0.000 C 
BRANCH  19  20
ATOM     20  N   UNL     1      45.961   6.959  11.863  0.00  0.00    +0.000 N 
ATOM     21  C   UNL     1      44.686   6.627  11.489  0.00  0.00    +0.000 C 
ATOM     22  O   UNL     1      43.819   7.479  11.309  0.00  0.00    +0.000 OA
ATOM     23  H   UNL     1      46.589   6.241  12.209  0.00  0.00    +0.000 HD
BRANCH  21  24
ATOM     24  C   UNL     1      44.419   5.204  11.250  0.00  0.00    +0.000 A 
ATOM     25  C   UNL     1      43.658   4.489  12.166  0.00  0.00    +0.000 A 
ATOM     26  S   UNL     1      43.400   2.864  11.722  0.00  0.00    +0.000 S 
ATOM     27  C   UNL     1      44.337   3.043  10.314  0.00  0.00    +0.000 A 
ATOM     28  N   UNL     1      44.544   1.992   9.476  0.00  0.00    +0.000 NA
ATOM     29  C   UNL     1      45.300   2.259   8.463  0.00  0.00    +0.000 A 
ATOM     30  N   UNL     1      45.862   3.484   8.209  0.00  0.00    +0.000 N 
ATOM     31  C   UNL     1      45.659   4.580   9.013  0.00  0.00    +0.000 A 
ATOM     32  O   UNL     1      46.146   5.671   8.736  0.00  0.00    +0.000 OA
ATOM     33  C   UNL     1      44.826   4.331  10.174  0.00  0.00    +0.000 A 
ATOM     34  H   UNL     1      46.438   3.629   7.393  0.00  0.00    +0.000 HD
ENDBRANCH  21  24
ENDBRANCH  19  20
ENDBRANCH   4  19
TORSDOF 8
ENDMDL
MODEL 6
REMARK VINA RESULT:    -6.516      2.390      3.169
REMARK INTER + INTRA:         -10.618
REMARK INTER:                  -9.474
REMARK INTRA:                  -1.144
REMARK UNBOUND:                -1.054
REMARK  Name = 
REMARK  9 active torsions:
REMARK  status: ('A' for Active; 'I' for Inactive)
REMARK    1  A    between atoms: C_1  and  C_2
REMARK    2  A    between atoms: C_2  and  C_3
REMARK    3  A    between atoms: C_3  and  N_4
REMARK    4  A    between atoms: C_3  and  C_26
REMARK    5  A    between atoms: N_4  and  C_5
REMARK    6  A    between atoms: C_5  and  C_6
REMARK    7  A    between atoms: C_9  and  C_10
REMARK    8  A    between atoms: C_10  and  N_11
REMARK    9  A    between atoms: C_12  and  C_14
REMARK                            x       y       z     vdW  Elec       q    Type
REMARK                         _______ _______ _______ _____ _____    ______ ____
ROOT
ATOM      1  C   UNL     1      47.276   7.596  13.147  0.00  0.00    +0.000 A 
ATOM      2  C   UNL     1      47.202   8.779  13.896  0.00  0.00    +0.000 A 
ATOM      3  C   UNL     1      48.144   9.053  14.890  0.00  0.00    +0.000 A 
ATOM      4  C   UNL     1      49.181   8.148  15.151  0.00  0.00    +0.000 A 
ATOM      5  C   UNL     1      49.233   6.949  14.428  0.00  0.00    +0.000 A 
ATOM      6  C   UNL     1      48.293   6.677  13.432  0.00  0.00    +0.000 A 
ENDROOT
BRANCH   1   7
ATOM      7  C   UNL     1      46.233   7.286  12.099  0.00  0.00    +0.000 C 
BRANCH   7   8
ATOM      8  N   UNL     1      46.382   5.928  11.576  0.00  0.00    +0.000 NA
ATOM      9  H   UNL     1      46.945   5.395  12.242  0.00  0.00    +0.000 HD
BRANCH   8  10
ATOM     10  C   UNL     1      45.091   5.216  11.418  0.00  0.00    +0.000 C 
BRANCH  10  11
ATOM     11  C   UNL     1      45.136   4.310  10.181  0.00  0.00    +0.000 A 
ATOM     12  C   UNL     1      44.679   2.990  10.241  0.00  0.00    +0.000 A 
ATOM     13  C   UNL     1      44.760   2.190   9.106  0.00  0.00    +0.000 A 
ATOM     14  C   UNL     1      45.289   2.720   7.938  0.00  0.00    +0.000 A 
ATOM     15  C   UNL     1      45.713   4.041   7.953  0.00  0.00    +0.000 A 
ATOM     16  N   UNL     1      45.648   4.843   9.041  0.00  0.00    +0.000 NA
ENDBRANCH  10  11
BRANCH  10  18
ATOM     17  C   UNL     1      42.556   5.561  11.704  0.00  0.00    +0.000 C 
ATOM     18  C   UNL     1      43.894   6.194  11.344  0.00  0.00    +0.000 C 
ENDBRANCH  10  18
ENDBRANCH   8  10
ENDBRANCH   7   8
ENDBRANCH   1   7
BRANCH   4  19
ATOM     19  C   UNL     1      50.197   8.429  16.224  0.00  0.00    +0.000 C 
BRANCH  19  20
ATOM     20  N   UNL     1      50.978   7.256  16.516  0.00  0.00    +0.000 N 
ATOM     21  C   UNL     1      50.672   6.453  17.584  0.00  0.00    +0.000 C 
ATOM     22  O   UNL     1      49.699   6.671  18.302  0.00  0.00    +0.000 OA
ATOM     23  H   UNL     1      51.890   7.185  16.076  0.00  0.00    +0.000 HD
BRANCH  21  24
ATOM     24  C   UNL     1      51.529   5.281  17.793  0.00  0.00    +0.000 A 
ATOM     25  C   UNL     1      52.829   5.458  18.249  0.00  0.00    +0.000 A 
ATOM     26  S   UNL     1      53.677   3.998  18.485  0.00  0.00    +0.000 S 
ATOM     27  C   UNL     1      52.354   3.078  17.941  0.00  0.00    +0.000 A 
ATOM     28  N   UNL     1      52.430   1.722  17.869  0.00  0.00    +0.000 NA
ATOM     29  C   UNL     1      51.366   1.153  17.409  0.00  0.00    +0.000 A 
ATOM     30  N   UNL     1      50.231   1.816  17.021  0.00  0.00    +0.000 N 
ATOM     31  C   UNL     1      50.099   3.182  17.101  0.00  0.00    +0.000 A 
ATOM     32  O   UNL     1      49.054   3.740  16.780  0.00  0.00    +0.000 OA
ATOM     33  C   UNL     1      51.272   3.873  17.600  0.00  0.00    +0.000 A 
ATOM     34  H   UNL     1      49.429   1.310  16.676  0.00  0.00    +0.000 HD
ENDBRANCH  21  24
ENDBRANCH  19  20
ENDBRANCH   4  19
TORSDOF 8
ENDMDL
MODEL 7
REMARK VINA RESULT:    -6.495      3.056      7.944
REMARK INTER + INTRA:         -10.586
REMARK INTER:                  -8.681
REMARK INTRA:                  -1.905
REMARK UNBOUND:                -1.054
REMARK  Name = 
REMARK  9 active torsions:
REMARK  status: ('A' for Active; 'I' for Inactive)
REMARK    1  A    between atoms: C_1  and  C_2
REMARK    2  A    between atoms: C_2  and  C_3
REMARK    3  A    between atoms: C_3  and  N_4
REMARK    4  A    between atoms: C_3  and  C_26
REMARK    5  A    between atoms: N_4  and  C_5
REMARK    6  A    between atoms: C_5  and  C_6
REMARK    7  A    between atoms: C_9  and  C_10
REMARK    8  A    between atoms: C_10  and  N_11
REMARK    9  A    between atoms: C_12  and  C_14
REMARK                            x       y       z     vdW  Elec       q    Type
REMARK                         _______ _______ _______ _____ _____    ______ ____
ROOT
ATOM      1  C   UNL     1      51.332   7.067  16.899  0.00  0.00    +0.000 A 
ATOM      2  C   UNL     1      50.288   7.613  17.660  0.00  0.00    +0.000 A 
ATOM      3  C   UNL     1      49.235   8.291  17.044  0.00  0.00    +0.000 A 
ATOM      4  C   UNL     1      49.205   8.433  15.650  0.00  0.00    +0.000 A 
ATOM      5  C   UNL     1      50.265   7.919  14.893  0.00  0.00    +0.000 A 
ATOM      6  C   UNL     1      51.317   7.239  15.509  0.00  0.00    +0.000 A 
ENDROOT
BRANCH   1   7
ATOM      7  C   UNL     1      52.488   6.368  17.574  0.00  0.00    +0.000 C 
BRANCH   7   8
ATOM      8  N   UNL     1      52.028   5.305  18.468  0.00  0.00    +0.000 NA
ATOM      9  H   UNL     1      51.101   5.565  18.812  0.00  0.00    +0.000 HD
BRANCH   8  10
ATOM     10  C   UNL     1      51.897   3.990  17.796  0.00  0.00    +0.000 C 
BRANCH  10  11
ATOM     11  C   UNL     1      50.417   3.615  17.654  0.00  0.00    +0.000 A 
ATOM     12  C   UNL     1      49.450   4.172  18.495  0.00  0.00    +0.000 A 
ATOM     13  C   UNL     1      48.121   3.788  18.353  0.00  0.00    +0.000 A 
ATOM     14  C   UNL     1      47.783   2.861  17.377  0.00  0.00    +0.000 A 
ATOM     15  C   UNL     1      48.796   2.358  16.574  0.00  0.00    +0.000 A 
ATOM     16  N   UNL     1      50.097   2.713  16.689  0.00  0.00    +0.000 NA
ENDBRANCH  10  11
BRANCH  10  18
ATOM     17  C   UNL     1      53.280   1.826  17.614  0.00  0.00    +0.000 C 
ATOM     18  C   UNL     1      52.681   2.880  18.536  0.00  0.00    +0.000 C 
ENDBRANCH  10  18
ENDBRANCH   8  10
ENDBRANCH   7   8
ENDBRANCH   1   7
BRANCH   4  19
ATOM     19  C   UNL     1      48.079   9.167  14.975  0.00  0.00    +0.000 C 
BRANCH  19  20
ATOM     20  N   UNL     1      47.137   8.246  14.393  0.00  0.00    +0.000 N 
ATOM     21  C   UNL     1      47.002   8.141  13.034  0.00  0.00    +0.000 C 
ATOM     22  O   UNL     1      47.706   8.785  12.260  0.00  0.00    +0.000 OA
ATOM     23  H   UNL     1      46.414   7.876  15.003  0.00  0.00    +0.000 HD
BRANCH  21  24
ATOM     24  C   UNL     1      46.016   7.171  12.543  0.00  0.00    +0.000 A 
ATOM     25  C   UNL     1      44.927   7.619  11.807  0.00  0.00    +0.000 A 
ATOM     26  S   UNL     1      43.901   6.367  11.271  0.00  0.00    +0.000 S 
ATOM     27  C   UNL     1      44.850   5.186  12.045  0.00  0.00    +0.000 A 
ATOM     28  N   UNL     1      44.502   3.872  11.998  0.00  0.00    +0.000 NA
ATOM     29  C   UNL     1      45.291   3.087  12.654  0.00  0.00    +0.000 A 
ATOM     30  N   UNL     1      46.400   3.498  13.347  0.00  0.00    +0.000 N 
ATOM     31  C   UNL     1      46.806   4.810  13.400  0.00  0.00    +0.000 A 
ATOM     32  O   UNL     1      47.825   5.138  13.998  0.00  0.00    +0.000 OA
ATOM     33  C   UNL     1      45.945   5.736  12.689  0.00  0.00    +0.000 A 
ATOM     34  H   UNL     1      46.981   2.832  13.833  0.00  0.00    +0.000 HD
ENDBRANCH  21  24
ENDBRANCH  19  20
ENDBRANCH   4  19
TORSDOF 8
ENDMDL
MODEL 8
REMARK VINA RESULT:    -6.471      3.236      8.516
REMARK INTER + INTRA:         -10.551
REMARK INTER:                  -9.077
REMARK INTRA:                  -1.474
REMARK UNBOUND:                -1.054
REMARK  Name = 
REMARK  9 active torsions:
REMARK  status: ('A' for Active; 'I' for Inactive)
REMARK    1  A    between atoms: C_1  and  C_2
REMARK    2  A    between atoms: C_2  and  C_3
REMARK    3  A    between atoms: C_3  and  N_4
REMARK    4  A    between atoms: C_3  and  C_26
REMARK    5  A    between atoms: N_4  and  C_5
REMARK    6  A    between atoms: C_5  and  C_6
REMARK    7  A    between atoms: C_9  and  C_10
REMARK    8  A    between atoms: C_10  and  N_11
REMARK    9  A    between atoms: C_12  and  C_14
REMARK                            x       y       z     vdW  Elec       q    Type
REMARK                         _______ _______ _______ _____ _____    ______ ____
ROOT
ATOM      1  C   UNL     1      48.634   6.272  17.480  0.00  0.00    +0.000 A 
ATOM      2  C   UNL     1      48.251   5.322  16.522  0.00  0.00    +0.000 A 
ATOM      3  C   UNL     1      48.178   5.663  15.170  0.00  0.00    +0.000 A 
ATOM      4  C   UNL     1      48.490   6.963  14.751  0.00  0.00    +0.000 A 
ATOM      5  C   UNL     1      48.836   7.921  15.712  0.00  0.00    +0.000 A 
ATOM      6  C   UNL     1      48.912   7.579  17.063  0.00  0.00    +0.000 A 
ENDROOT
BRANCH   1   7
ATOM      7  C   UNL     1      48.674   5.907  18.946  0.00  0.00    +0.000 C 
BRANCH   7   8
ATOM      8  N   UNL     1      49.554   4.765  19.193  0.00  0.00    +0.000 NA
ATOM      9  H   UNL     1      49.130   3.942  18.758  0.00  0.00    +0.000 HD
BRANCH   8  10
ATOM     10  C   UNL     1      50.905   4.928  18.606  0.00  0.00    +0.000 C 
BRANCH  10  11
ATOM     11  C   UNL     1      51.487   3.559  18.231  0.00  0.00    +0.000 A 
ATOM     12  C   UNL     1      52.796   3.214  18.580  0.00  0.00    +0.000 A 
ATOM     13  C   UNL     1      53.297   1.974  18.200  0.00  0.00    +0.000 A 
ATOM     14  C   UNL     1      52.487   1.105  17.483  0.00  0.00    +0.000 A 
ATOM     15  C   UNL     1      51.196   1.513  17.182  0.00  0.00    +0.000 A 
ATOM     16  N   UNL     1      50.681   2.713  17.537  0.00  0.00    +0.000 NA
ENDBRANCH  10  11
BRANCH  10  18
ATOM     17  C   UNL     1      51.950   7.187  19.263  0.00  0.00    +0.000 C 
ATOM     18  C   UNL     1      51.860   5.694  19.552  0.00  0.00    +0.000 C 
ENDBRANCH  10  18
ENDBRANCH   8  10
ENDBRANCH   7   8
ENDBRANCH   1   7
BRANCH   4  19
ATOM     19  C   UNL     1      48.408   7.344  13.298  0.00  0.00    +0.000 C 
BRANCH  19  20
ATOM     20  N   UNL     1      47.633   6.385  12.555  0.00  0.00    +0.000 N 
ATOM     21  C   UNL     1      46.593   6.785  11.757  0.00  0.00    +0.000 C 
ATOM     22  O   UNL     1      46.311   7.971  11.605  0.00  0.00    +0.000 OA
ATOM     23  H   UNL     1      47.711   5.411  12.832  0.00  0.00    +0.000 HD
BRANCH  21  24
ATOM     24  C   UNL     1      45.869   5.729  11.040  0.00  0.00    +0.000 A 
ATOM     25  C   UNL     1      45.952   5.663   9.656  0.00  0.00    +0.000 A 
ATOM     26  S   UNL     1      45.095   4.354   8.979  0.00  0.00    +0.000 S 
ATOM     27  C   UNL     1      44.540   3.857  10.508  0.00  0.00    +0.000 A 
ATOM     28  N   UNL     1      43.717   2.782  10.636  0.00  0.00    +0.000 NA
ATOM     29  C   UNL     1      43.347   2.534  11.849  0.00  0.00    +0.000 A 
ATOM     30  N   UNL     1      43.731   3.262  12.945  0.00  0.00    +0.000 N 
ATOM     31  C   UNL     1      44.581   4.339  12.868  0.00  0.00    +0.000 A 
ATOM     32  O   UNL     1      44.934   4.944  13.875  0.00  0.00    +0.000 OA
ATOM     33  C   UNL     1      45.018   4.667  11.525  0.00  0.00    +0.000 A 
ATOM     34  H   UNL     1      43.412   3.010  13.869  0.00  0.00    +0.000 HD
ENDBRANCH  21  24
ENDBRANCH  19  20
ENDBRANCH   4  19
TORSDOF 8
ENDMDL
MODEL 9
REMARK VINA RESULT:    -6.344      3.546      9.064
REMARK INTER + INTRA:         -10.364
REMARK INTER:                  -9.240
REMARK INTRA:                  -1.125
REMARK UNBOUND:                -1.054
REMARK  Name = 
REMARK  9 active torsions:
REMARK  status: ('A' for Active; 'I' for Inactive)
REMARK    1  A    between atoms: C_1  and  C_2
REMARK    2  A    between atoms: C_2  and  C_3
REMARK    3  A    between atoms: C_3  and  N_4
REMARK    4  A    between atoms: C_3  and  C_26
REMARK    5  A    between atoms: N_4  and  C_5
REMARK    6  A    between atoms: C_5  and  C_6
REMARK    7  A    between atoms: C_9  and  C_10
REMARK    8  A    between atoms: C_10  and  N_11
REMARK    9  A    between atoms: C_12  and  C_14
REMARK                            x       y       z     vdW  Elec       q    Type
REMARK                         _______ _______ _______ _____ _____    ______ ____
ROOT
ATOM      1  C   UNL     1      48.002   6.607  14.606  0.00  0.00    +0.000 A 
ATOM      2  C   UNL     1      47.416   5.388  14.235  0.00  0.00    +0.000 A 
ATOM      3  C   UNL     1      46.612   5.301  13.096  0.00  0.00    +0.000 A 
ATOM      4  C   UNL     1      46.381   6.434  12.306  0.00  0.00    +0.000 A 
ATOM      5  C   UNL     1      46.936   7.659  12.697  0.00  0.00    +0.000 A 
ATOM      6  C   UNL     1      47.743   7.745  13.833  0.00  0.00    +0.000 A 
ENDROOT
BRANCH   1   7
ATOM      7  C   UNL     1      48.840   6.704  15.859  0.00  0.00    +0.000 C 
BRANCH   7   8
ATOM      8  N   UNL     1      49.192   5.381  16.375  0.00  0.00    +0.000 NA
ATOM      9  H   UNL     1      49.528   4.817  15.590  0.00  0.00    +0.000 HD
BRANCH   8  10
ATOM     10  C   UNL     1      50.273   5.416  17.389  0.00  0.00    +0.000 C 
BRANCH  10  11
ATOM     11  C   UNL     1      50.926   4.034  17.513  0.00  0.00    +0.000 A 
ATOM     12  C   UNL     1      52.186   3.884  18.100  0.00  0.00    +0.000 A 
ATOM     13  C   UNL     1      52.757   2.618  18.171  0.00  0.00    +0.000 A 
ATOM     14  C   UNL     1      52.064   1.530  17.660  0.00  0.00    +0.000 A 
ATOM     15  C   UNL     1      50.815   1.755  17.102  0.00  0.00    +0.000 A 
ATOM     16  N   UNL     1      50.233   2.975  17.017  0.00  0.00    +0.000 NA
ENDBRANCH  10  11
BRANCH  10  18
ATOM     17  C   UNL     1      48.775   4.970  19.434  0.00  0.00    +0.000 C 
ATOM     18  C   UNL     1      49.765   5.913  18.763  0.00  0.00    +0.000 C 
ENDBRANCH  10  18
ENDBRANCH   8  10
ENDBRANCH   7   8
ENDBRANCH   1   7
BRANCH   4  19
ATOM     19  C   UNL     1      45.511   6.354  11.081  0.00  0.00    +0.000 C 
BRANCH  19  20
ATOM     20  N   UNL     1      45.769   5.146  10.342  0.00  0.00    +0.000 N 
ATOM     21  C   UNL     1      44.741   4.404   9.823  0.00  0.00    +0.000 C 
ATOM     22  O   UNL     1      43.569   4.760   9.923  0.00  0.00    +0.000 OA
ATOM     23  H   UNL     1      46.692   4.734  10.434  0.00  0.00    +0.000 HD
BRANCH  21  24
ATOM     24  C   UNL     1      45.111   3.192   9.083  0.00  0.00    +0.000 A 
ATOM     25  C   UNL     1      44.481   1.991   9.383  0.00  0.00    +0.000 A 
ATOM     26  S   UNL     1      44.988   0.690   8.406  0.00  0.00    +0.000 S 
ATOM     27  C   UNL     1      46.103   1.673   7.580  0.00  0.00    +0.000 A 
ATOM     28  N   UNL     1      46.900   1.158   6.606  0.00  0.00    +0.000 NA
ATOM     29  C   UNL     1      47.721   2.007   6.084  0.00  0.00    +0.000 A 
ATOM     30  N   UNL     1      47.812   3.327   6.443  0.00  0.00    +0.000 N 
ATOM     31  C   UNL     1      47.010   3.898   7.402  0.00  0.00    +0.000 A 
ATOM     32  O   UNL     1      47.092   5.091   7.673  0.00  0.00    +0.000 OA
ATOM     33  C   UNL     1      46.077   2.982   8.030  0.00  0.00    +0.000 A 
ATOM     34  H   UNL     1      48.472   3.941   5.989  0.00  0.00    +0.000 HD
ENDBRANCH  21  24
ENDBRANCH  19  20
ENDBRANCH   4  19
TORSDOF 8
ENDMDL
