MODEL 1
REMARK VINA RESULT:    -7.202      0.000      0.000
REMARK INTER + INTRA:         -10.029
REMARK INTER:                  -9.518
REMARK INTRA:                  -0.511
REMARK UNBOUND:                -0.511
REMARK  Name = 
REMARK  6 active torsions:
REMARK  status: ('A' for Active; 'I' for Inactive)
REMARK    1  A    between atoms: N_1  and  C_2
REMARK    2  A    between atoms: C_2  and  C_3
REMARK    3  A    between atoms: C_3  and  C_4
REMARK    4  A    between atoms: C_7  and  O_8
REMARK    5  A    between atoms: O_8  and  C_9
REMARK    6  A    between atoms: C_9  and  C_10
REMARK                            x       y       z     vdW  Elec       q    Type
REMARK                         _______ _______ _______ _____ _____    ______ ____
ROOT
ATOM      1  C   UNL     1      46.187   2.189   7.899  0.00  0.00    +0.000 A 
ATOM      2  C   UNL     1      45.247   1.645   8.784  0.00  0.00    +0.000 A 
ATOM      3  C   UNL     1      44.375   2.480   9.488  0.00  0.00    +0.000 A 
ATOM      4  C   UNL     1      44.437   3.864   9.321  0.00  0.00    +0.000 A 
ATOM      5  C   UNL     1      45.317   4.402   8.380  0.00  0.00    +0.000 A 
ATOM      6  C   UNL     1      46.194   3.572   7.682  0.00  0.00    +0.000 A 
ENDROOT
BRANCH   1   7
ATOM      7  C   UNL     1      47.184   1.312   7.184  0.00  0.00    +0.000 C 
BRANCH   7   8
ATOM      8  C   UNL     1      48.352   2.113   6.606  0.00  0.00    +0.000 C 
BRANCH   8   9
ATOM      9  N   UNL     1      48.386   1.998   5.148  0.00  0.00    +0.000 NA
ATOM     10  H   UNL     1      48.265   1.020   4.886  0.00  0.00    +0.000 HD
ATOM     11  H   UNL     1      49.306   2.272   4.805  0.00  0.00    +0.000 HD
ENDBRANCH   8   9
ENDBRANCH   7   8
ENDBRANCH   1   7
BRANCH   4  12
ATOM     12  O   UNL     1      43.608   4.603  10.125  0.00  0.00    +0.000 OA
BRANCH  12  13
ATOM     13  C   UNL     1      43.472   4.097  11.456  0.00  0.00    +0.000 C 
BRANCH  13  14
ATOM     14  C   UNL     1      44.685   4.446  12.269  0.00  0.00    +0.000 A 
ATOM     15  C   UNL     1      45.091   5.768  12.459  0.00  0.00    +0.000 A 
ATOM     16  C   UNL     1      46.247   6.034  13.188  0.00  0.00    +0.000 A 
ATOM     17  C   UNL     1      46.960   4.964  13.704  0.00  0.00    +0.000 A 
ATOM     18  N   UNL     1      46.597   3.674  13.544  0.00  0.00    +0.000 NA
ATOM     19  C   UNL     1      45.470   3.446  12.835  0.00  0.00    +0.000 A 
ENDBRANCH  13  14
ENDBRANCH  12  13
ENDBRANCH   4  12
TORSDOF 6
ENDMDL
MODEL 2
REMARK VINA RESULT:    -7.176      0.430      1.246
REMARK INTER + INTRA:          -9.995
REMARK INTER:                  -9.431
REMARK INTRA:                  -0.564
REMARK UNBOUND:                -0.511
REMARK  Name = 
REMARK  6 active torsions:
REMARK  status: ('A' for Active; 'I' for Inactive)
REMARK    1  A    between atoms: N_1  and  C_2
REMARK    2  A    between atoms: C_2  and  C_3
REMARK    3  A    between atoms: C_3  and  C_4
REMARK    4  A    between atoms: C_7  and  O_8
REMARK    5  A    between atoms: O_8  and  C_9
REMARK    6  A    between atoms: C_9  and  C_10
REMARK                            x       y       z     vdW  Elec       q    Type
REMARK                         _______ _______ _______ _____ _____    ______ ____
ROOT
ATOM      1  C   UNL     1      46.190   2.240   7.964  0.00  0.00    +0.000 A 
ATOM      2  C   UNL     1      46.249   3.633   7.825  0.00  0.00    +0.000 A 
ATOM      3  C   UNL     1      45.343   4.449   8.507  0.00  0.00    +0.000 A 
ATOM      4  C   UNL     1      44.367   3.884   9.329  0.00  0.00    +0.000 A 
ATOM      5  C   UNL     1      44.358   2.503   9.531  0.00  0.00    +0.000 A 
ATOM      6  C   UNL     1      45.256   1.685   8.846  0.00  0.00    +0.000 A 
ENDROOT
BRANCH   1   7
ATOM      7  C   UNL     1      47.111   1.338   7.182  0.00  0.00    +0.000 C 
BRANCH   7   8
ATOM      8  C   UNL     1      48.336   2.083   6.647  0.00  0.00    +0.000 C 
BRANCH   8   9
ATOM      9  N   UNL     1      48.403   1.988   5.189  0.00  0.00    +0.000 NA
ATOM     10  H   UNL     1      48.925   1.152   4.931  0.00  0.00    +0.000 HD
ATOM     11  H   UNL     1      48.929   2.778   4.819  0.00  0.00    +0.000 HD
ENDBRANCH   8   9
ENDBRANCH   7   8
ENDBRANCH   1   7
BRANCH   4  12
ATOM     12  O   UNL     1      43.465   4.759   9.878  0.00  0.00    +0.000 OA
BRANCH  12  13
ATOM     13  C   UNL     1      43.181   4.525  11.260  0.00  0.00    +0.000 C 
BRANCH  13  14
ATOM     14  C   UNL     1      44.361   4.911  12.103  0.00  0.00    +0.000 A 
ATOM     15  C   UNL     1      44.900   6.199  12.073  0.00  0.00    +0.000 A 
ATOM     16  C   UNL     1      46.021   6.493  12.845  0.00  0.00    +0.000 A 
ATOM     17  C   UNL     1      46.566   5.485  13.623  0.00  0.00    +0.000 A 
ATOM     18  N   UNL     1      46.072   4.230  13.681  0.00  0.00    +0.000 NA
ATOM     19  C   UNL     1      44.982   3.975  12.924  0.00  0.00    +0.000 A 
ENDBRANCH  13  14
ENDBRANCH  12  13
ENDBRANCH   4  12
TORSDOF 6
ENDMDL
MODEL 3
REMARK VINA RESULT:    -6.683      1.843      6.257
REMARK INTER + INTRA:          -9.344
REMARK INTER:                  -8.825
REMARK INTRA:                  -0.518
REMARK UNBOUND:                -0.511
REMARK  Name = 
REMARK  6 active torsions:
REMARK  status: ('A' for Active; 'I' for Inactive)
REMARK    1  A    between atoms: N_1  and  C_2
REMARK    2  A    between atoms: C_2  and  C_3
REMARK    3  A    between atoms: C_3  and  C_4
REMARK    4  A    between atoms: C_7  and  O_8
REMARK    5  A    between atoms: O_8  and  C_9
REMARK    6  A    between atoms: C_9  and  C_10
REMARK                            x       y       z     vdW  Elec       q    Type
REMARK                         _______ _______ _______ _____ _____    ______ ____
ROOT
ATOM      1  C   UNL     1      46.429   5.743  12.553  0.00  0.00    +0.000 A 
ATOM      2  C   UNL     1      46.241   6.296  11.279  0.00  0.00    +0.000 A 
ATOM      3  C   UNL     1      45.503   5.607  10.313  0.00  0.00    +0.000 A 
ATOM      4  C   UNL     1      44.951   4.360  10.606  0.00  0.00    +0.000 A 
ATOM      5  C   UNL     1      45.068   3.845  11.898  0.00  0.00    +0.000 A 
ATOM      6  C   UNL     1      45.811   4.526  12.862  0.00  0.00    +0.000 A 
ENDROOT
BRANCH   1   7
ATOM      7  C   UNL     1      47.281   6.435  13.586  0.00  0.00    +0.000 C 
BRANCH   7   8
ATOM      8  C   UNL     1      47.484   7.918  13.272  0.00  0.00    +0.000 C 
BRANCH   8   9
ATOM      9  N   UNL     1      47.002   8.751  14.374  0.00  0.00    +0.000 NA
ATOM     10  H   UNL     1      47.178   9.731  14.155  0.00  0.00    +0.000 HD
ATOM     11  H   UNL     1      47.538   8.546  15.217  0.00  0.00    +0.000 HD
ENDBRANCH   8   9
ENDBRANCH   7   8
ENDBRANCH   1   7
BRANCH   4  12
ATOM     12  O   UNL     1      44.328   3.721   9.565  0.00  0.00    +0.000 OA
BRANCH  12  13
ATOM     13  C   UNL     1      44.766   2.376   9.349  0.00  0.00    +0.000 C 
BRANCH  13  14
ATOM     14  C   UNL     1      45.732   2.325   8.202  0.00  0.00    +0.000 A 
ATOM     15  C   UNL     1      45.876   3.388   7.309  0.00  0.00    +0.000 A 
ATOM     16  C   UNL     1      46.757   3.272   6.238  0.00  0.00    +0.000 A 
ATOM     17  C   UNL     1      47.468   2.091   6.096  0.00  0.00    +0.000 A 
ATOM     18  N   UNL     1      47.358   1.043   6.939  0.00  0.00    +0.000 NA
ATOM     19  C   UNL     1      46.498   1.186   7.971  0.00  0.00    +0.000 A 
ENDBRANCH  13  14
ENDBRANCH  12  13
ENDBRANCH   4  12
TORSDOF 6
ENDMDL
MODEL 4
REMARK VINA RESULT:    -5.566      2.753      6.272
REMARK INTER + INTRA:          -7.867
REMARK INTER:                  -7.244
REMARK INTRA:                  -0.622
REMARK UNBOUND:                -0.511
REMARK  Name = 
REMARK  6 active torsions:
REMARK  status: ('A' for Active; 'I' for Inactive)
REMARK    1  A    between atoms: N_1  and  C_2
REMARK    2  A    between atoms: C_2  and  C_3
REMARK    3  A    between atoms: C_3  and  C_4
REMARK    4  A    between atoms: C_7  and  O_8
REMARK    5  A    between atoms: O_8  and  C_9
REMARK    6  A    between atoms: C_9  and  C_10
REMARK                            x       y       z     vdW  Elec       q    Type
REMARK                         _______ _______ _______ _____ _____    ______ ____
ROOT
ATOM      1  C   UNL     1      46.672   7.791  12.313  0.00  0.00    +0.000 A 
ATOM      2  C   UNL     1      45.426   7.885  11.678  0.00  0.00    +0.000 A 
ATOM      3  C   UNL     1      44.647   6.742  11.480  0.00  0.00    +0.000 A 
ATOM      4  C   UNL     1      45.104   5.496  11.910  0.00  0.00    +0.000 A 
ATOM      5  C   UNL     1      46.306   5.412  12.614  0.00  0.00    +0.000 A 
ATOM      6  C   UNL     1      47.090   6.550  12.805  0.00  0.00    +0.000 A 
ENDROOT
BRANCH   1   7
ATOM      7  C   UNL     1      47.560   9.000  12.472  0.00  0.00    +0.000 C 
BRANCH   7   8
ATOM      8  C   UNL     1      47.025  10.216  11.716  0.00  0.00    +0.000 C 
BRANCH   8   9
ATOM      9  N   UNL     1      46.743  11.316  12.638  0.00  0.00    +0.000 NA
ATOM     10  H   UNL     1      47.619  11.768  12.898  0.00  0.00    +0.000 HD
ATOM     11  H   UNL     1      46.347  10.945  13.501  0.00  0.00    +0.000 HD
ENDBRANCH   8   9
ENDBRANCH   7   8
ENDBRANCH   1   7
BRANCH   4  12
ATOM     12  O   UNL     1      44.314   4.423  11.585  0.00  0.00    +0.000 OA
BRANCH  12  13
ATOM     13  C   UNL     1      43.839   4.426  10.236  0.00  0.00    +0.000 C 
BRANCH  13  14
ATOM     14  C   UNL     1      44.787   3.668   9.353  0.00  0.00    +0.000 A 
ATOM     15  C   UNL     1      45.533   4.300   8.357  0.00  0.00    +0.000 A 
ATOM     16  C   UNL     1      46.366   3.543   7.538  0.00  0.00    +0.000 A 
ATOM     17  C   UNL     1      46.425   2.174   7.745  0.00  0.00    +0.000 A 
ATOM     18  N   UNL     1      45.722   1.528   8.699  0.00  0.00    +0.000 NA
ATOM     19  C   UNL     1      44.924   2.288   9.480  0.00  0.00    +0.000 A 
ENDBRANCH  13  14
ENDBRANCH  12  13
ENDBRANCH   4  12
TORSDOF 6
ENDMDL
MODEL 5
REMARK VINA RESULT:    -5.514      2.588      7.139
REMARK INTER + INTRA:          -7.798
REMARK INTER:                  -7.352
REMARK INTRA:                  -0.446
REMARK UNBOUND:                -0.511
REMARK  Name = 
REMARK  6 active torsions:
REMARK  status: ('A' for Active; 'I' for Inactive)
REMARK    1  A    between atoms: N_1  and  C_2
REMARK    2  A    between atoms: C_2  and  C_3
REMARK    3  A    between atoms: C_3  and  C_4
REMARK    4  A    between atoms: C_7  and  O_8
REMARK    5  A    between atoms: O_8  and  C_9
REMARK    6  A    between atoms: C_9  and  C_10
REMARK                            x       y       z     vdW  Elec       q    Type
REMARK                         _______ _______ _______ _____ _____    ______ ____
ROOT
ATOM      1  C   UNL     1      47.887   5.291  15.558  0.00  0.00    +0.000 A 
ATOM      2  C   UNL     1      47.063   4.366  14.903  0.00  0.00    +0.000 A 
ATOM      3  C   UNL     1      46.617   4.616  13.602  0.00  0.00    +0.000 A 
ATOM      4  C   UNL     1      46.984   5.791  12.946  0.00  0.00    +0.000 A 
ATOM      5  C   UNL     1      47.869   6.674  13.565  0.00  0.00    +0.000 A 
ATOM      6  C   UNL     1      48.310   6.432  14.866  0.00  0.00    +0.000 A 
ENDROOT
BRANCH   1   7
ATOM      7  C   UNL     1      48.321   5.075  16.986  0.00  0.00    +0.000 C 
BRANCH   7   8
ATOM      8  C   UNL     1      47.243   4.385  17.822  0.00  0.00    +0.000 C 
BRANCH   8   9
ATOM      9  N   UNL     1      46.519   5.359  18.639  0.00  0.00    +0.000 NA
ATOM     10  H   UNL     1      46.223   6.136  18.049  0.00  0.00    +0.000 HD
ATOM     11  H   UNL     1      47.147   5.754  19.337  0.00  0.00    +0.000 HD
ENDBRANCH   8   9
ENDBRANCH   7   8
ENDBRANCH   1   7
BRANCH   4  12
ATOM     12  O   UNL     1      46.419   5.990  11.712  0.00  0.00    +0.000 OA
BRANCH  12  13
ATOM     13  C   UNL     1      45.142   5.370  11.540  0.00  0.00    +0.000 C 
BRANCH  13  14
ATOM     14  C   UNL     1      45.115   4.586  10.260  0.00  0.00    +0.000 A 
ATOM     15  C   UNL     1      44.528   3.323  10.180  0.00  0.00    +0.000 A 
ATOM     16  C   UNL     1      44.567   2.621   8.978  0.00  0.00    +0.000 A 
ATOM     17  C   UNL     1      45.195   3.212   7.893  0.00  0.00    +0.000 A 
ATOM     18  N   UNL     1      45.771   4.432   7.931  0.00  0.00    +0.000 NA
ATOM     19  C   UNL     1      45.715   5.090   9.109  0.00  0.00    +0.000 A 
ENDBRANCH  13  14
ENDBRANCH  12  13
ENDBRANCH   4  12
TORSDOF 6
ENDMDL
MODEL 6
REMARK VINA RESULT:    -5.487      2.360      3.069
REMARK INTER + INTRA:          -7.763
REMARK INTER:                  -7.300
REMARK INTRA:                  -0.463
REMARK UNBOUND:                -0.511
REMARK  Name = 
REMARK  6 active torsions:
REMARK  status: ('A' for Active; 'I' for Inactive)
REMARK    1  A    between atoms: N_1  and  C_2
REMARK    2  A    between atoms: C_2  and  C_3
REMARK    3  A    between atoms: C_3  and  C_4
REMARK    4  A    between atoms: C_7  and  O_8
REMARK    5  A    between atoms: O_8  and  C_9
REMARK    6  A    between atoms: C_9  and  C_10
REMARK                            x       y       z     vdW  Elec       q    Type
REMARK                         _______ _______ _______ _____ _____    ______ ____
ROOT
ATOM      1  C   UNL     1      45.274   2.702   9.103  0.00  0.00    +0.000 A 
ATOM      2  C   UNL     1      44.748   2.892  10.387  0.00  0.00    +0.000 A 
ATOM      3  C   UNL     1      44.738   4.164  10.965  0.00  0.00    +0.000 A 
ATOM      4  C   UNL     1      45.257   5.257  10.270  0.00  0.00    +0.000 A 
ATOM      5  C   UNL     1      45.707   5.084   8.960  0.00  0.00    +0.000 A 
ATOM      6  C   UNL     1      45.726   3.814   8.384  0.00  0.00    +0.000 A 
ENDROOT
BRANCH   1   7
ATOM      7  C   UNL     1      45.360   1.327   8.490  0.00  0.00    +0.000 C 
BRANCH   7   8
ATOM      8  C   UNL     1      46.692   1.091   7.777  0.00  0.00    +0.000 C 
BRANCH   8   9
ATOM      9  N   UNL     1      47.044  -0.328   7.794  0.00  0.00    +0.000 NA
ATOM     10  H   UNL     1      46.377  -0.846   7.223  0.00  0.00    +0.000 HD
ATOM     11  H   UNL     1      46.950  -0.693   8.742  0.00  0.00    +0.000 HD
ENDBRANCH   8   9
ENDBRANCH   7   8
ENDBRANCH   1   7
BRANCH   4  12
ATOM     12  O   UNL     1      45.290   6.443  10.956  0.00  0.00    +0.000 OA
BRANCH  12  13
ATOM     13  C   UNL     1      45.499   6.305  12.365  0.00  0.00    +0.000 C 
BRANCH  13  14
ATOM     14  C   UNL     1      46.744   7.034  12.777  0.00  0.00    +0.000 A 
ATOM     15  C   UNL     1      47.995   6.415  12.780  0.00  0.00    +0.000 A 
ATOM     16  C   UNL     1      49.113   7.124  13.211  0.00  0.00    +0.000 A 
ATOM     17  C   UNL     1      48.939   8.435  13.626  0.00  0.00    +0.000 A 
ATOM     18  N   UNL     1      47.747   9.068  13.635  0.00  0.00    +0.000 NA
ATOM     19  C   UNL     1      46.682   8.356  13.208  0.00  0.00    +0.000 A 
ENDBRANCH  13  14
ENDBRANCH  12  13
ENDBRANCH   4  12
TORSDOF 6
ENDMDL
MODEL 7
REMARK VINA RESULT:    -5.468      2.170      3.248
REMARK INTER + INTRA:          -7.738
REMARK INTER:                  -7.321
REMARK INTRA:                  -0.418
REMARK UNBOUND:                -0.511
REMARK  Name = 
REMARK  6 active torsions:
REMARK  status: ('A' for Active; 'I' for Inactive)
REMARK    1  A    between atoms: N_1  and  C_2
REMARK    2  A    between atoms: C_2  and  C_3
REMARK    3  A    between atoms: C_3  and  C_4
REMARK    4  A    between atoms: C_7  and  O_8
REMARK    5  A    between atoms: O_8  and  C_9
REMARK    6  A    between atoms: C_9  and  C_10
REMARK                            x       y       z     vdW  Elec       q    Type
REMARK                         _______ _______ _______ _____ _____    ______ ____
ROOT
ATOM      1  C   UNL     1      45.016   3.975   9.168  0.00  0.00    +0.000 A 
ATOM      2  C   UNL     1      44.504   3.188  10.208  0.00  0.00    +0.000 A 
ATOM      3  C   UNL     1      44.609   3.616  11.533  0.00  0.00    +0.000 A 
ATOM      4  C   UNL     1      45.230   4.829  11.835  0.00  0.00    +0.000 A 
ATOM      5  C   UNL     1      45.668   5.651  10.796  0.00  0.00    +0.000 A 
ATOM      6  C   UNL     1      45.572   5.223   9.472  0.00  0.00    +0.000 A 
ENDROOT
BRANCH   1   7
ATOM      7  C   UNL     1      44.977   3.499   7.737  0.00  0.00    +0.000 C 
BRANCH   7   8
ATOM      8  C   UNL     1      46.353   3.060   7.234  0.00  0.00    +0.000 C 
BRANCH   8   9
ATOM      9  N   UNL     1      46.896   4.039   6.293  0.00  0.00    +0.000 NA
ATOM     10  H   UNL     1      46.974   3.610   5.371  0.00  0.00    +0.000 HD
ATOM     11  H   UNL     1      47.844   4.291   6.571  0.00  0.00    +0.000 HD
ENDBRANCH   8   9
ENDBRANCH   7   8
ENDBRANCH   1   7
BRANCH   4  12
ATOM     12  O   UNL     1      45.370   5.115  13.169  0.00  0.00    +0.000 OA
BRANCH  12  13
ATOM     13  C   UNL     1      46.143   4.160  13.900  0.00  0.00    +0.000 C 
BRANCH  13  14
ATOM     14  C   UNL     1      47.189   4.859  14.719  0.00  0.00    +0.000 A 
ATOM     15  C   UNL     1      47.467   4.486  16.035  0.00  0.00    +0.000 A 
ATOM     16  C   UNL     1      48.419   5.194  16.764  0.00  0.00    +0.000 A 
ATOM     17  C   UNL     1      49.062   6.256  16.147  0.00  0.00    +0.000 A 
ATOM     18  N   UNL     1      48.823   6.643  14.877  0.00  0.00    +0.000 NA
ATOM     19  C   UNL     1      47.897   5.936  14.194  0.00  0.00    +0.000 A 
ENDBRANCH  13  14
ENDBRANCH  12  13
ENDBRANCH   4  12
TORSDOF 6
ENDMDL
MODEL 8
REMARK VINA RESULT:    -5.049      3.393      5.229
REMARK INTER + INTRA:          -7.184
REMARK INTER:                  -6.759
REMARK INTRA:                  -0.425
REMARK UNBOUND:                -0.511
REMARK  Name = 
REMARK  6 active torsions:
REMARK  status: ('A' for Active; 'I' for Inactive)
REMARK    1  A    between atoms: N_1  and  C_2
REMARK    2  A    between atoms: C_2  and  C_3
REMARK    3  A    between atoms: C_3  and  C_4
REMARK    4  A    between atoms: C_7  and  O_8
REMARK    5  A    between atoms: O_8  and  C_9
REMARK    6  A    between atoms: C_9  and  C_10
REMARK                            x       y       z     vdW  Elec       q    Type
REMARK                         _______ _______ _______ _____ _____    ______ ____
ROOT
ATOM      1  C   UNL     1      44.931   4.844  11.364  0.00  0.00    +0.000 A 
ATOM      2  C   UNL     1      44.837   4.010  12.485  0.00  0.00    +0.000 A 
ATOM      3  C   UNL     1      45.718   4.168  13.558  0.00  0.00    +0.000 A 
ATOM      4  C   UNL     1      46.704   5.155  13.520  0.00  0.00    +0.000 A 
ATOM      5  C   UNL     1      46.746   6.039  12.441  0.00  0.00    +0.000 A 
ATOM      6  C   UNL     1      45.873   5.879  11.365  0.00  0.00    +0.000 A 
ENDROOT
BRANCH   1   7
ATOM      7  C   UNL     1      44.037   4.645  10.166  0.00  0.00    +0.000 C 
BRANCH   7   8
ATOM      8  C   UNL     1      44.731   3.868   9.046  0.00  0.00    +0.000 C 
BRANCH   8   9
ATOM      9  N   UNL     1      44.566   2.427   9.237  0.00  0.00    +0.000 NA
ATOM     10  H   UNL     1      43.608   2.235   9.525  0.00  0.00    +0.000 HD
ATOM     11  H   UNL     1      45.162   2.114  10.002  0.00  0.00    +0.000 HD
ENDBRANCH   8   9
ENDBRANCH   7   8
ENDBRANCH   1   7
BRANCH   4  12
ATOM     12  O   UNL     1      47.580   5.169  14.575  0.00  0.00    +0.000 OA
BRANCH  12  13
ATOM     13  C   UNL     1      47.135   4.439  15.721  0.00  0.00    +0.000 C 
BRANCH  13  14
ATOM     14  C   UNL     1      48.274   3.660  16.312  0.00  0.00    +0.000 A 
ATOM     15  C   UNL     1      49.121   4.208  17.276  0.00  0.00    +0.000 A 
ATOM     16  C   UNL     1      50.188   3.456  17.761  0.00  0.00    +0.000 A 
ATOM     17  C   UNL     1      50.371   2.176  17.262  0.00  0.00    +0.000 A 
ATOM     18  N   UNL     1      49.572   1.612  16.332  0.00  0.00    +0.000 NA
ATOM     19  C   UNL     1      48.544   2.363  15.883  0.00  0.00    +0.000 A 
ENDBRANCH  13  14
ENDBRANCH  12  13
ENDBRANCH   4  12
TORSDOF 6
ENDMDL
MODEL 9
REMARK VINA RESULT:    -5.041      4.216      8.572
REMARK INTER + INTRA:          -7.173
REMARK INTER:                  -6.809
REMARK INTRA:                  -0.363
REMARK UNBOUND:                -0.511
REMARK  Name = 
REMARK  6 active torsions:
REMARK  status: ('A' for Active; 'I' for Inactive)
REMARK    1  A    between atoms: N_1  and  C_2
REMARK    2  A    between atoms: C_2  and  C_3
REMARK    3  A    between atoms: C_3  and  C_4
REMARK    4  A    between atoms: C_7  and  O_8
REMARK    5  A    between atoms: O_8  and  C_9
REMARK    6  A    between atoms: C_9  and  C_10
REMARK                            x       y       z     vdW  Elec       q    Type
REMARK                         _______ _______ _______ _____ _____    ______ ____
ROOT
ATOM      1  C   UNL     1      49.033   4.443  18.041  0.00  0.00    +0.000 A 
ATOM      2  C   UNL     1      48.590   5.466  17.192  0.00  0.00    +0.000 A 
ATOM      3  C   UNL     1      47.851   5.162  16.046  0.00  0.00    +0.000 A 
ATOM      4  C   UNL     1      47.550   3.836  15.734  0.00  0.00    +0.000 A 
ATOM      5  C   UNL     1      47.919   2.823  16.620  0.00  0.00    +0.000 A 
ATOM      6  C   UNL     1      48.665   3.122  17.760  0.00  0.00    +0.000 A 
ENDROOT
BRANCH   1   7
ATOM      7  C   UNL     1      49.892   4.743  19.243  0.00  0.00    +0.000 C 
BRANCH   7   8
ATOM      8  C   UNL     1      49.075   5.268  20.424  0.00  0.00    +0.000 C 
BRANCH   8   9
ATOM      9  N   UNL     1      48.402   4.170  21.117  0.00  0.00    +0.000 NA
ATOM     10  H   UNL     1      48.719   4.140  22.085  0.00  0.00    +0.000 HD
ATOM     11  H   UNL     1      48.679   3.282  20.699  0.00  0.00    +0.000 HD
ENDBRANCH   8   9
ENDBRANCH   7   8
ENDBRANCH   1   7
BRANCH   4  12
ATOM     12  O   UNL     1      46.905   3.632  14.541  0.00  0.00    +0.000 OA
BRANCH  12  13
ATOM     13  C   UNL     1      46.502   4.832  13.875  0.00  0.00    +0.000 C 
BRANCH  13  14
ATOM     14  C   UNL     1      45.257   4.586  13.074  0.00  0.00    +0.000 A 
ATOM     15  C   UNL     1      45.037   3.382  12.402  0.00  0.00    +0.000 A 
ATOM     16  C   UNL     1      43.883   3.221  11.640  0.00  0.00    +0.000 A 
ATOM     17  C   UNL     1      42.985   4.275  11.576  0.00  0.00    +0.000 A 
ATOM     18  N   UNL     1      43.162   5.451  12.214  0.00  0.00    +0.000 NA
ATOM     19  C   UNL     1      44.288   5.577  12.948  0.00  0.00    +0.000 A 
ENDBRANCH  13  14
ENDBRANCH  12  13
ENDBRANCH   4  12
TORSDOF 6
ENDMDL
