MODEL 1
REMARK VINA RESULT:    -8.235      0.000      0.000
REMARK INTER + INTRA:         -11.670
REMARK INTER:                 -10.642
REMARK INTRA:                  -1.028
REMARK UNBOUND:                -1.028
REMARK  Name = 
REMARK  10 active torsions:
REMARK  status: ('A' for Active; 'I' for Inactive)
REMARK    1  A    between atoms: C_1  and  C_2
REMARK    2  A    between atoms: C_2  and  C_3
REMARK    3  A    between atoms: C_2  and  C_4
REMARK    4  A    between atoms: C_2  and  C_5
REMARK    5  A    between atoms: C_8  and  C_9
REMARK    6  A    between atoms: C_9  and  C_10
REMARK    7  A    between atoms: C_9  and  C_11
REMARK    8  A    between atoms: C_9  and  C_12
REMARK    9  A    between atoms: C_12  and  N_13
REMARK   10  A    between atoms: C_17  and  C_18
REMARK                            x       y       z     vdW  Elec       q    Type
REMARK                         _______ _______ _______ _____ _____    ______ ____
ROOT
ATOM      1  C   UNL     1      43.399   3.967  10.885  0.00  0.00    +0.000 C 
ENDROOT
BRANCH   1   2
ATOM      2  N   UNL     1      43.807   4.504   9.593  0.00  0.00    +0.000 N 
ATOM      3  C   UNL     1      44.828   3.874   8.898  0.00  0.00    +0.000 A 
ATOM      4  C   UNL     1      45.081   2.497   8.929  0.00  0.00    +0.000 A 
ATOM      5  N   UNL     1      46.047   1.876   8.200  0.00  0.00    +0.000 NA
ATOM      6  C   UNL     1      46.754   2.707   7.392  0.00  0.00    +0.000 A 
ATOM      7  C   UNL     1      46.517   4.074   7.341  0.00  0.00    +0.000 A 
ATOM      8  N   UNL     1      45.559   4.676   8.097  0.00  0.00    +0.000 NA
ATOM      9  H   UNL     1      43.984   5.505   9.540  0.00  0.00    +0.000 HD
BRANCH   6  10
ATOM     10  C   UNL     1      47.802   2.099   6.531  0.00  0.00    +0.000 C 
ATOM     11  N   UNL     1      48.137   2.798   5.406  0.00  0.00    +0.000 N 
ATOM     12  O   UNL     1      48.339   1.032   6.811  0.00  0.00    +0.000 OA
ATOM     13  H   UNL     1      47.687   3.688   5.211  0.00  0.00    +0.000 HD
ATOM     14  H   UNL     1      48.860   2.440   4.796  0.00  0.00    +0.000 HD
ENDBRANCH   6  10
ENDBRANCH   1   2
BRANCH   1  15
ATOM     15  C   UNL     1      43.400   5.012  12.047  0.00  0.00    +0.000 C 
ATOM     16  C   UNL     1      43.170   4.276  13.385  0.00  0.00    +0.000 C 
ATOM     17  C   UNL     1      42.265   6.035  11.809  0.00  0.00    +0.000 C 
BRANCH  15  21
ATOM     18  C   UNL     1      47.219   7.199  12.423  0.00  0.00    +0.000 A 
ATOM     19  C   UNL     1      46.055   7.838  11.978  0.00  0.00    +0.000 A 
ATOM     20  C   UNL     1      44.846   7.150  11.831  0.00  0.00    +0.000 A 
ATOM     21  C   UNL     1      44.740   5.783  12.123  0.00  0.00    +0.000 A 
ATOM     22  C   UNL     1      45.917   5.131  12.527  0.00  0.00    +0.000 A 
ATOM     23  C   UNL     1      47.126   5.822  12.674  0.00  0.00    +0.000 A 
BRANCH  18  25
ATOM     24  C   UNL     1      48.316   9.463  12.937  0.00  0.00    +0.000 C 
ATOM     25  C   UNL     1      48.533   7.956  12.667  0.00  0.00    +0.000 C 
ATOM     26  C   UNL     1      49.466   7.839  11.444  0.00  0.00    +0.000 C 
ATOM     27  C   UNL     1      49.249   7.356  13.897  0.00  0.00    +0.000 C 
ENDBRANCH  18  25
ENDBRANCH  15  21
ENDBRANCH   1  15
TORSDOF 5
ENDMDL
MODEL 2
REMARK VINA RESULT:    -7.170      4.266      7.195
REMARK INTER + INTRA:         -10.294
REMARK INTER:                  -9.504
REMARK INTRA:                  -0.790
REMARK UNBOUND:                -1.028
REMARK  Name = 
REMARK  10 active torsions:
REMARK  status: ('A' for Active; 'I' for Inactive)
REMARK    1  A    between atoms: C_1  and  C_2
REMARK    2  A    between atoms: C_2  and  C_3
REMARK    3  A    between atoms: C_2  and  C_4
REMARK    4  A    between atoms: C_2  and  C_5
REMARK    5  A    between atoms: C_8  and  C_9
REMARK    6  A    between atoms: C_9  and  C_10
REMARK    7  A    between atoms: C_9  and  C_11
REMARK    8  A    between atoms: C_9  and  C_12
REMARK    9  A    between atoms: C_12  and  N_13
REMARK   10  A    between atoms: C_17  and  C_18
REMARK                            x       y       z     vdW  Elec       q    Type
REMARK                         _______ _______ _______ _____ _____    ______ ____
ROOT
ATOM      1  C   UNL     1      44.969   4.696  12.862  0.00  0.00    +0.000 C 
ENDROOT
BRANCH   1   2
ATOM      2  N   UNL     1      46.090   5.417  13.453  0.00  0.00    +0.000 N 
ATOM      3  C   UNL     1      46.844   4.793  14.435  0.00  0.00    +0.000 A 
ATOM      4  C   UNL     1      47.095   3.416  14.492  0.00  0.00    +0.000 A 
ATOM      5  N   UNL     1      47.883   2.817  15.423  0.00  0.00    +0.000 NA
ATOM      6  C   UNL     1      48.452   3.676  16.307  0.00  0.00    +0.000 A 
ATOM      7  C   UNL     1      48.222   5.044  16.266  0.00  0.00    +0.000 A 
ATOM      8  N   UNL     1      47.411   5.619  15.338  0.00  0.00    +0.000 NA
ATOM      9  H   UNL     1      45.916   6.368  13.770  0.00  0.00    +0.000 HD
BRANCH   6  10
ATOM     10  C   UNL     1      49.362   3.103  17.333  0.00  0.00    +0.000 C 
ATOM     11  N   UNL     1      48.961   3.232  18.633  0.00  0.00    +0.000 N 
ATOM     12  O   UNL     1      50.412   2.544  17.035  0.00  0.00    +0.000 OA
ATOM     13  H   UNL     1      48.076   3.683  18.847  0.00  0.00    +0.000 HD
ATOM     14  H   UNL     1      49.533   2.840  19.369  0.00  0.00    +0.000 HD
ENDBRANCH   6  10
ENDBRANCH   1   2
BRANCH   1  15
ATOM     15  C   UNL     1      44.461   5.292  11.510  0.00  0.00    +0.000 C 
ATOM     16  C   UNL     1      44.927   6.760  11.402  0.00  0.00    +0.000 C 
ATOM     17  C   UNL     1      42.917   5.227  11.475  0.00  0.00    +0.000 C 
BRANCH  15  21
ATOM     18  C   UNL     1      46.131   2.980   8.137  0.00  0.00    +0.000 A 
ATOM     19  C   UNL     1      46.212   4.377   8.172  0.00  0.00    +0.000 A 
ATOM     20  C   UNL     1      45.664   5.122   9.222  0.00  0.00    +0.000 A 
ATOM     21  C   UNL     1      45.007   4.503  10.295  0.00  0.00    +0.000 A 
ATOM     22  C   UNL     1      44.888   3.104  10.240  0.00  0.00    +0.000 A 
ATOM     23  C   UNL     1      45.436   2.361   9.187  0.00  0.00    +0.000 A 
BRANCH  18  25
ATOM     24  C   UNL     1      48.274   2.529   6.797  0.00  0.00    +0.000 C 
ATOM     25  C   UNL     1      46.796   2.143   7.034  0.00  0.00    +0.000 C 
ATOM     26  C   UNL     1      46.055   2.320   5.693  0.00  0.00    +0.000 C 
ATOM     27  C   UNL     1      46.758   0.651   7.430  0.00  0.00    +0.000 C 
ENDBRANCH  18  25
ENDBRANCH  15  21
ENDBRANCH   1  15
TORSDOF 5
ENDMDL
MODEL 3
REMARK VINA RESULT:    -6.821      3.694      6.940
REMARK INTER + INTRA:          -9.842
REMARK INTER:                  -9.021
REMARK INTRA:                  -0.821
REMARK UNBOUND:                -1.028
REMARK  Name = 
REMARK  10 active torsions:
REMARK  status: ('A' for Active; 'I' for Inactive)
REMARK    1  A    between atoms: C_1  and  C_2
REMARK    2  A    between atoms: C_2  and  C_3
REMARK    3  A    between atoms: C_2  and  C_4
REMARK    4  A    between atoms: C_2  and  C_5
REMARK    5  A    between atoms: C_8  and  C_9
REMARK    6  A    between atoms: C_9  and  C_10
REMARK    7  A    between atoms: C_9  and  C_11
REMARK    8  A    between atoms: C_9  and  C_12
REMARK    9  A    between atoms: C_12  and  N_13
REMARK   10  A    between atoms: C_17  and  C_18
REMARK                            x       y       z     vdW  Elec       q    Type
REMARK                         _______ _______ _______ _____ _____    ______ ____
ROOT
ATOM      1  C   UNL     1      45.146   4.824  12.426  0.00  0.00    +0.000 C 
ENDROOT
BRANCH   1   2
ATOM      2  N   UNL     1      45.417   6.252  12.324  0.00  0.00    +0.000 N 
ATOM      3  C   UNL     1      46.613   6.744  12.824  0.00  0.00    +0.000 A 
ATOM      4  C   UNL     1      47.824   6.040  12.828  0.00  0.00    +0.000 A 
ATOM      5  N   UNL     1      49.007   6.548  13.267  0.00  0.00    +0.000 NA
ATOM      6  C   UNL     1      48.936   7.837  13.688  0.00  0.00    +0.000 A 
ATOM      7  C   UNL     1      47.749   8.556  13.687  0.00  0.00    +0.000 A 
ATOM      8  N   UNL     1      46.572   8.018  13.264  0.00  0.00    +0.000 NA
ATOM      9  H   UNL     1      44.683   6.888  12.628  0.00  0.00    +0.000 HD
BRANCH   6  10
ATOM     10  C   UNL     1      50.197   8.480  14.144  0.00  0.00    +0.000 C 
ATOM     11  N   UNL     1      51.213   7.634  14.488  0.00  0.00    +0.000 N 
ATOM     12  O   UNL     1      50.322   9.698  14.207  0.00  0.00    +0.000 OA
ATOM     13  H   UNL     1      51.085   6.629  14.407  0.00  0.00    +0.000 HD
ATOM     14  H   UNL     1      52.100   8.020  14.784  0.00  0.00    +0.000 HD
ENDBRANCH   6  10
ENDBRANCH   1   2
BRANCH   1  15
ATOM     15  C   UNL     1      44.106   4.289  11.389  0.00  0.00    +0.000 C 
ATOM     16  C   UNL     1      43.135   5.431  11.018  0.00  0.00    +0.000 C 
ATOM     17  C   UNL     1      43.320   3.116  12.018  0.00  0.00    +0.000 C 
BRANCH  15  21
ATOM     18  C   UNL     1      46.192   2.784   7.799  0.00  0.00    +0.000 A 
ATOM     19  C   UNL     1      45.975   4.153   7.994  0.00  0.00    +0.000 A 
ATOM     20  C   UNL     1      45.294   4.640   9.114  0.00  0.00    +0.000 A 
ATOM     21  C   UNL     1      44.794   3.778  10.100  0.00  0.00    +0.000 A 
ATOM     22  C   UNL     1      44.972   2.401   9.884  0.00  0.00    +0.000 A 
ATOM     23  C   UNL     1      45.654   1.916   8.761  0.00  0.00    +0.000 A 
BRANCH  18  25
ATOM     24  C   UNL     1      46.463   2.705   5.247  0.00  0.00    +0.000 C 
ATOM     25  C   UNL     1      47.007   2.238   6.616  0.00  0.00    +0.000 C 
ATOM     26  C   UNL     1      46.997   0.696   6.612  0.00  0.00    +0.000 C 
ATOM     27  C   UNL     1      48.468   2.725   6.733  0.00  0.00    +0.000 C 
ENDBRANCH  18  25
ENDBRANCH  15  21
ENDBRANCH   1  15
TORSDOF 5
ENDMDL
MODEL 4
REMARK VINA RESULT:    -6.295      5.612      7.338
REMARK INTER + INTRA:          -9.162
REMARK INTER:                  -8.435
REMARK INTRA:                  -0.727
REMARK UNBOUND:                -1.028
REMARK  Name = 
REMARK  10 active torsions:
REMARK  status: ('A' for Active; 'I' for Inactive)
REMARK    1  A    between atoms: C_1  and  C_2
REMARK    2  A    between atoms: C_2  and  C_3
REMARK    3  A    between atoms: C_2  and  C_4
REMARK    4  A    between atoms: C_2  and  C_5
REMARK    5  A    between atoms: C_8  and  C_9
REMARK    6  A    between atoms: C_9  and  C_10
REMARK    7  A    between atoms: C_9  and  C_11
REMARK    8  A    between atoms: C_9  and  C_12
REMARK    9  A    between atoms: C_12  and  N_13
REMARK   10  A    between atoms: C_17  and  C_18
REMARK                            x       y       z     vdW  Elec       q    Type
REMARK                         _______ _______ _______ _____ _____    ______ ____
ROOT
ATOM      1  C   UNL     1      47.766   3.614  15.608  0.00  0.00    +0.000 C 
ENDROOT
BRANCH   1   2
ATOM      2  N   UNL     1      47.068   4.793  15.114  0.00  0.00    +0.000 N 
ATOM      3  C   UNL     1      46.513   4.760  13.844  0.00  0.00    +0.000 A 
ATOM      4  C   UNL     1      45.978   3.616  13.237  0.00  0.00    +0.000 A 
ATOM      5  N   UNL     1      45.384   3.600  12.015  0.00  0.00    +0.000 NA
ATOM      6  C   UNL     1      45.316   4.816  11.414  0.00  0.00    +0.000 A 
ATOM      7  C   UNL     1      45.833   5.964  11.998  0.00  0.00    +0.000 A 
ATOM      8  N   UNL     1      46.445   5.951  13.213  0.00  0.00    +0.000 NA
ATOM      9  H   UNL     1      47.542   5.689  15.208  0.00  0.00    +0.000 HD
BRANCH   6  10
ATOM     10  C   UNL     1      44.641   4.891  10.092  0.00  0.00    +0.000 C 
ATOM     11  N   UNL     1      45.451   5.128   9.016  0.00  0.00    +0.000 N 
ATOM     12  O   UNL     1      43.429   4.747   9.968  0.00  0.00    +0.000 OA
ATOM     13  H   UNL     1      46.453   5.223   9.149  0.00  0.00    +0.000 HD
ATOM     14  H   UNL     1      45.045   5.166   8.090  0.00  0.00    +0.000 HD
ENDBRANCH   6  10
ENDBRANCH   1   2
BRANCH   1  15
ATOM     15  C   UNL     1      48.167   3.687  17.117  0.00  0.00    +0.000 C 
ATOM     16  C   UNL     1      47.283   2.708  17.919  0.00  0.00    +0.000 C 
ATOM     17  C   UNL     1      47.950   5.129  17.629  0.00  0.00    +0.000 C 
BRANCH  15  21
ATOM     18  C   UNL     1      52.365   2.534  17.862  0.00  0.00    +0.000 A 
ATOM     19  C   UNL     1      51.929   3.851  18.046  0.00  0.00    +0.000 A 
ATOM     20  C   UNL     1      50.607   4.234  17.790  0.00  0.00    +0.000 A 
ATOM     21  C   UNL     1      49.653   3.313  17.334  0.00  0.00    +0.000 A 
ATOM     22  C   UNL     1      50.100   2.001  17.107  0.00  0.00    +0.000 A 
ATOM     23  C   UNL     1      51.423   1.621  17.365  0.00  0.00    +0.000 A 
BRANCH  18  25
ATOM     24  C   UNL     1      54.854   2.635  17.242  0.00  0.00    +0.000 C 
ATOM     25  C   UNL     1      53.789   2.080  18.216  0.00  0.00    +0.000 C 
ATOM     26  C   UNL     1      53.896   0.542  18.183  0.00  0.00    +0.000 C 
ATOM     27  C   UNL     1      54.147   2.574  19.635  0.00  0.00    +0.000 C 
ENDBRANCH  18  25
ENDBRANCH  15  21
ENDBRANCH   1  15
TORSDOF 5
ENDMDL
MODEL 5
REMARK VINA RESULT:    -6.118      3.471      5.630
REMARK INTER + INTRA:          -8.934
REMARK INTER:                  -8.314
REMARK INTRA:                  -0.619
REMARK UNBOUND:                -1.028
REMARK  Name = 
REMARK  10 active torsions:
REMARK  status: ('A' for Active; 'I' for Inactive)
REMARK    1  A    between atoms: C_1  and  C_2
REMARK    2  A    between atoms: C_2  and  C_3
REMARK    3  A    between atoms: C_2  and  C_4
REMARK    4  A    between atoms: C_2  and  C_5
REMARK    5  A    between atoms: C_8  and  C_9
REMARK    6  A    between atoms: C_9  and  C_10
REMARK    7  A    between atoms: C_9  and  C_11
REMARK    8  A    between atoms: C_9  and  C_12
REMARK    9  A    between atoms: C_12  and  N_13
REMARK   10  A    between atoms: C_17  and  C_18
REMARK                            x       y       z     vdW  Elec       q    Type
REMARK                         _______ _______ _______ _____ _____    ______ ____
ROOT
ATOM      1  C   UNL     1      46.595   8.200  13.176  0.00  0.00    +0.000 C 
ENDROOT
BRANCH   1   2
ATOM      2  N   UNL     1      46.169   7.793  11.843  0.00  0.00    +0.000 N 
ATOM      3  C   UNL     1      45.623   6.530  11.669  0.00  0.00    +0.000 A 
ATOM      4  C   UNL     1      44.855   5.856  12.628  0.00  0.00    +0.000 A 
ATOM      5  N   UNL     1      44.274   4.643  12.432  0.00  0.00    +0.000 NA
ATOM      6  C   UNL     1      44.472   4.125  11.193  0.00  0.00    +0.000 A 
ATOM      7  C   UNL     1      45.223   4.777  10.226  0.00  0.00    +0.000 A 
ATOM      8  N   UNL     1      45.815   5.982  10.452  0.00  0.00    +0.000 NA
ATOM      9  H   UNL     1      46.825   7.941  11.079  0.00  0.00    +0.000 HD
BRANCH   6  10
ATOM     10  C   UNL     1      43.833   2.819  10.885  0.00  0.00    +0.000 C 
ATOM     11  N   UNL     1      44.388   2.103   9.862  0.00  0.00    +0.000 N 
ATOM     12  O   UNL     1      42.865   2.402  11.513  0.00  0.00    +0.000 OA
ATOM     13  H   UNL     1      45.202   2.466   9.374  0.00  0.00    +0.000 HD
ATOM     14  H   UNL     1      44.005   1.197   9.626  0.00  0.00    +0.000 HD
ENDBRANCH   6  10
ENDBRANCH   1   2
BRANCH   1  15
ATOM     15  C   UNL     1      48.069   7.816  13.525  0.00  0.00    +0.000 C 
ATOM     16  C   UNL     1      48.819   9.082  13.995  0.00  0.00    +0.000 C 
ATOM     17  C   UNL     1      48.754   7.239  12.266  0.00  0.00    +0.000 C 
BRANCH  15  21
ATOM     18  C   UNL     1      48.405   4.749  16.685  0.00  0.00    +0.000 A 
ATOM     19  C   UNL     1      47.611   4.541  15.551  0.00  0.00    +0.000 A 
ATOM     20  C   UNL     1      47.476   5.515  14.556  0.00  0.00    +0.000 A 
ATOM     21  C   UNL     1      48.134   6.750  14.646  0.00  0.00    +0.000 A 
ATOM     22  C   UNL     1      48.896   6.977  15.803  0.00  0.00    +0.000 A 
ATOM     23  C   UNL     1      49.029   6.000  16.798  0.00  0.00    +0.000 A 
BRANCH  18  25
ATOM     24  C   UNL     1      48.808   4.239  19.169  0.00  0.00    +0.000 C 
ATOM     25  C   UNL     1      48.628   3.661  17.746  0.00  0.00    +0.000 C 
ATOM     26  C   UNL     1      49.890   2.834  17.425  0.00  0.00    +0.000 C 
ATOM     27  C   UNL     1      47.408   2.714  17.774  0.00  0.00    +0.000 C 
ENDBRANCH  18  25
ENDBRANCH  15  21
ENDBRANCH   1  15
TORSDOF 5
ENDMDL
MODEL 6
REMARK VINA RESULT:    -5.908      5.041      8.030
REMARK INTER + INTRA:          -8.662
REMARK INTER:                  -7.696
REMARK INTRA:                  -0.966
REMARK UNBOUND:                -1.028
REMARK  Name = 
REMARK  10 active torsions:
REMARK  status: ('A' for Active; 'I' for Inactive)
REMARK    1  A    between atoms: C_1  and  C_2
REMARK    2  A    between atoms: C_2  and  C_3
REMARK    3  A    between atoms: C_2  and  C_4
REMARK    4  A    between atoms: C_2  and  C_5
REMARK    5  A    between atoms: C_8  and  C_9
REMARK    6  A    between atoms: C_9  and  C_10
REMARK    7  A    between atoms: C_9  and  C_11
REMARK    8  A    between atoms: C_9  and  C_12
REMARK    9  A    between atoms: C_12  and  N_13
REMARK   10  A    between atoms: C_17  and  C_18
REMARK                            x       y       z     vdW  Elec       q    Type
REMARK                         _______ _______ _______ _____ _____    ______ ____
ROOT
ATOM      1  C   UNL     1      48.761   8.649  13.874  0.00  0.00    +0.000 C 
ENDROOT
BRANCH   1   2
ATOM      2  N   UNL     1      49.911   7.817  14.203  0.00  0.00    +0.000 N 
ATOM      3  C   UNL     1      49.831   6.964  15.293  0.00  0.00    +0.000 A 
ATOM      4  C   UNL     1      48.659   6.326  15.721  0.00  0.00    +0.000 A 
ATOM      5  N   UNL     1      48.596   5.446  16.754  0.00  0.00    +0.000 NA
ATOM      6  C   UNL     1      49.793   5.196  17.346  0.00  0.00    +0.000 A 
ATOM      7  C   UNL     1      50.968   5.811  16.935  0.00  0.00    +0.000 A 
ATOM      8  N   UNL     1      51.002   6.707  15.912  0.00  0.00    +0.000 NA
ATOM      9  H   UNL     1      50.819   8.275  14.250  0.00  0.00    +0.000 HD
BRANCH   6  10
ATOM     10  C   UNL     1      49.816   4.211  18.459  0.00  0.00    +0.000 C 
ATOM     11  N   UNL     1      50.745   3.214  18.360  0.00  0.00    +0.000 N 
ATOM     12  O   UNL     1      49.050   4.287  19.413  0.00  0.00    +0.000 OA
ATOM     13  H   UNL     1      51.378   3.189  17.566  0.00  0.00    +0.000 HD
ATOM     14  H   UNL     1      50.818   2.530  19.101  0.00  0.00    +0.000 HD
ENDBRANCH   6  10
ENDBRANCH   1   2
BRANCH   1  15
ATOM     15  C   UNL     1      48.289   8.537  12.388  0.00  0.00    +0.000 C 
ATOM     16  C   UNL     1      49.441   7.960  11.538  0.00  0.00    +0.000 C 
ATOM     17  C   UNL     1      47.909   9.943  11.870  0.00  0.00    +0.000 C 
BRANCH  15  21
ATOM     18  C   UNL     1      44.824   5.852  11.855  0.00  0.00    +0.000 A 
ATOM     19  C   UNL     1      44.700   7.237  11.702  0.00  0.00    +0.000 A 
ATOM     20  C   UNL     1      45.785   8.100  11.893  0.00  0.00    +0.000 A 
ATOM     21  C   UNL     1      47.052   7.617  12.247  0.00  0.00    +0.000 A 
ATOM     22  C   UNL     1      47.167   6.232  12.444  0.00  0.00    +0.000 A 
ATOM     23  C   UNL     1      46.080   5.370  12.253  0.00  0.00    +0.000 A 
BRANCH  18  25
ATOM     24  C   UNL     1      42.277   5.536  11.769  0.00  0.00    +0.000 C 
ATOM     25  C   UNL     1      43.665   4.884  11.571  0.00  0.00    +0.000 C 
ATOM     26  C   UNL     1      43.734   3.660  12.507  0.00  0.00    +0.000 C 
ATOM     27  C   UNL     1      43.751   4.397  10.108  0.00  0.00    +0.000 C 
ENDBRANCH  18  25
ENDBRANCH  15  21
ENDBRANCH   1  15
TORSDOF 5
ENDMDL
MODEL 7
REMARK VINA RESULT:    -5.906      5.655      8.774
REMARK INTER + INTRA:          -8.660
REMARK INTER:                  -7.743
REMARK INTRA:                  -0.917
REMARK UNBOUND:                -1.028
REMARK  Name = 
REMARK  10 active torsions:
REMARK  status: ('A' for Active; 'I' for Inactive)
REMARK    1  A    between atoms: C_1  and  C_2
REMARK    2  A    between atoms: C_2  and  C_3
REMARK    3  A    between atoms: C_2  and  C_4
REMARK    4  A    between atoms: C_2  and  C_5
REMARK    5  A    between atoms: C_8  and  C_9
REMARK    6  A    between atoms: C_9  and  C_10
REMARK    7  A    between atoms: C_9  and  C_11
REMARK    8  A    between atoms: C_9  and  C_12
REMARK    9  A    between atoms: C_12  and  N_13
REMARK   10  A    between atoms: C_17  and  C_18
REMARK                            x       y       z     vdW  Elec       q    Type
REMARK                         _______ _______ _______ _____ _____    ______ ____
ROOT
ATOM      1  C   UNL     1      49.383   7.007  14.120  0.00  0.00    +0.000 C 
ENDROOT
BRANCH   1   2
ATOM      2  N   UNL     1      49.461   7.710  15.395  0.00  0.00    +0.000 N 
ATOM      3  C   UNL     1      49.084   7.043  16.551  0.00  0.00    +0.000 A 
ATOM      4  C   UNL     1      49.248   5.669  16.767  0.00  0.00    +0.000 A 
ATOM      5  N   UNL     1      48.931   5.030  17.924  0.00  0.00    +0.000 NA
ATOM      6  C   UNL     1      48.454   5.847  18.899  0.00  0.00    +0.000 A 
ATOM      7  C   UNL     1      48.290   7.212  18.709  0.00  0.00    +0.000 A 
ATOM      8  N   UNL     1      48.593   7.826  17.533  0.00  0.00    +0.000 NA
ATOM      9  H   UNL     1      49.049   8.639  15.440  0.00  0.00    +0.000 HD
BRANCH   6  10
ATOM     10  C   UNL     1      48.123   5.231  20.210  0.00  0.00    +0.000 C 
ATOM     11  N   UNL     1      48.612   3.973  20.425  0.00  0.00    +0.000 N 
ATOM     12  O   UNL     1      47.452   5.816  21.054  0.00  0.00    +0.000 OA
ATOM     13  H   UNL     1      49.181   3.523  19.713  0.00  0.00    +0.000 HD
ATOM     14  H   UNL     1      48.434   3.517  21.310  0.00  0.00    +0.000 HD
ENDBRANCH   6  10
ENDBRANCH   1   2
BRANCH   1  15
ATOM     15  C   UNL     1      48.384   7.637  13.097  0.00  0.00    +0.000 C 
ATOM     16  C   UNL     1      49.167   8.096  11.848  0.00  0.00    +0.000 C 
ATOM     17  C   UNL     1      47.686   8.850  13.753  0.00  0.00    +0.000 C 
BRANCH  15  21
ATOM     18  C   UNL     1      45.170   4.871  11.860  0.00  0.00    +0.000 A 
ATOM     19  C   UNL     1      45.765   4.776  13.124  0.00  0.00    +0.000 A 
ATOM     20  C   UNL     1      46.801   5.631  13.518  0.00  0.00    +0.000 A 
ATOM     21  C   UNL     1      47.294   6.626  12.663  0.00  0.00    +0.000 A 
ATOM     22  C   UNL     1      46.729   6.694  11.380  0.00  0.00    +0.000 A 
ATOM     23  C   UNL     1      45.692   5.838  10.987  0.00  0.00    +0.000 A 
BRANCH  18  25
ATOM     24  C   UNL     1      43.699   2.848  12.439  0.00  0.00    +0.000 C 
ATOM     25  C   UNL     1      43.979   3.996  11.442  0.00  0.00    +0.000 C 
ATOM     26  C   UNL     1      44.232   3.353  10.062  0.00  0.00    +0.000 C 
ATOM     27  C   UNL     1      42.707   4.867  11.359  0.00  0.00    +0.000 C 
ENDBRANCH  18  25
ENDBRANCH  15  21
ENDBRANCH   1  15
TORSDOF 5
ENDMDL
MODEL 8
REMARK VINA RESULT:    -5.801      3.202      5.660
REMARK INTER + INTRA:          -8.525
REMARK INTER:                  -7.683
REMARK INTRA:                  -0.842
REMARK UNBOUND:                -1.028
REMARK  Name = 
REMARK  10 active torsions:
REMARK  status: ('A' for Active; 'I' for Inactive)
REMARK    1  A    between atoms: C_1  and  C_2
REMARK    2  A    between atoms: C_2  and  C_3
REMARK    3  A    between atoms: C_2  and  C_4
REMARK    4  A    between atoms: C_2  and  C_5
REMARK    5  A    between atoms: C_8  and  C_9
REMARK    6  A    between atoms: C_9  and  C_10
REMARK    7  A    between atoms: C_9  and  C_11
REMARK    8  A    between atoms: C_9  and  C_12
REMARK    9  A    between atoms: C_12  and  N_13
REMARK   10  A    between atoms: C_17  and  C_18
REMARK                            x       y       z     vdW  Elec       q    Type
REMARK                         _______ _______ _______ _____ _____    ______ ____
ROOT
ATOM      1  C   UNL     1      46.581   8.552  12.400  0.00  0.00    +0.000 C 
ENDROOT
BRANCH   1   2
ATOM      2  N   UNL     1      45.896   7.563  13.223  0.00  0.00    +0.000 N 
ATOM      3  C   UNL     1      45.382   6.428  12.617  0.00  0.00    +0.000 A 
ATOM      4  C   UNL     1      45.949   5.793  11.504  0.00  0.00    +0.000 A 
ATOM      5  N   UNL     1      45.474   4.646  10.949  0.00  0.00    +0.000 NA
ATOM      6  C   UNL     1      44.393   4.126  11.585  0.00  0.00    +0.000 A 
ATOM      7  C   UNL     1      43.818   4.734  12.693  0.00  0.00    +0.000 A 
ATOM      8  N   UNL     1      44.298   5.895  13.217  0.00  0.00    +0.000 NA
ATOM      9  H   UNL     1      45.185   7.905  13.866  0.00  0.00    +0.000 HD
BRANCH   6  10
ATOM     10  C   UNL     1      43.838   2.849  11.064  0.00  0.00    +0.000 C 
ATOM     11  N   UNL     1      44.479   2.311   9.984  0.00  0.00    +0.000 N 
ATOM     12  O   UNL     1      42.863   2.306  11.572  0.00  0.00    +0.000 OA
ATOM     13  H   UNL     1      45.296   2.776   9.597  0.00  0.00    +0.000 HD
ATOM     14  H   UNL     1      44.156   1.431   9.603  0.00  0.00    +0.000 HD
ENDBRANCH   6  10
ENDBRANCH   1   2
BRANCH   1  15
ATOM     15  C   UNL     1      48.102   8.713  12.720  0.00  0.00    +0.000 C 
ATOM     16  C   UNL     1      48.506  10.189  12.510  0.00  0.00    +0.000 C 
ATOM     17  C   UNL     1      48.919   7.807  11.770  0.00  0.00    +0.000 C 
BRANCH  15  21
ATOM     18  C   UNL     1      48.912   7.451  16.874  0.00  0.00    +0.000 A 
ATOM     19  C   UNL     1      48.427   8.732  16.585  0.00  0.00    +0.000 A 
ATOM     20  C   UNL     1      48.190   9.152  15.271  0.00  0.00    +0.000 A 
ATOM     21  C   UNL     1      48.428   8.307  14.178  0.00  0.00    +0.000 A 
ATOM     22  C   UNL     1      48.956   7.037  14.464  0.00  0.00    +0.000 A 
ATOM     23  C   UNL     1      49.192   6.619  15.780  0.00  0.00    +0.000 A 
BRANCH  18  25
ATOM     24  C   UNL     1      49.553   8.061  19.284  0.00  0.00    +0.000 C 
ATOM     25  C   UNL     1      49.100   6.947  18.313  0.00  0.00    +0.000 C 
ATOM     26  C   UNL     1      50.164   5.832  18.366  0.00  0.00    +0.000 C 
ATOM     27  C   UNL     1      47.761   6.382  18.837  0.00  0.00    +0.000 C 
ENDBRANCH  18  25
ENDBRANCH  15  21
ENDBRANCH   1  15
TORSDOF 5
ENDMDL
MODEL 9
REMARK VINA RESULT:    -5.782      3.156      5.804
REMARK INTER + INTRA:          -8.500
REMARK INTER:                  -7.751
REMARK INTRA:                  -0.749
REMARK UNBOUND:                -1.028
REMARK  Name = 
REMARK  10 active torsions:
REMARK  status: ('A' for Active; 'I' for Inactive)
REMARK    1  A    between atoms: C_1  and  C_2
REMARK    2  A    between atoms: C_2  and  C_3
REMARK    3  A    between atoms: C_2  and  C_4
REMARK    4  A    between atoms: C_2  and  C_5
REMARK    5  A    between atoms: C_8  and  C_9
REMARK    6  A    between atoms: C_9  and  C_10
REMARK    7  A    between atoms: C_9  and  C_11
REMARK    8  A    between atoms: C_9  and  C_12
REMARK    9  A    between atoms: C_12  and  N_13
REMARK   10  A    between atoms: C_17  and  C_18
REMARK                            x       y       z     vdW  Elec       q    Type
REMARK                         _______ _______ _______ _____ _____    ______ ____
ROOT
ATOM      1  C   UNL     1      48.123   6.591  14.315  0.00  0.00    +0.000 C 
ENDROOT
BRANCH   1   2
ATOM      2  N   UNL     1      46.816   6.831  13.715  0.00  0.00    +0.000 N 
ATOM      3  C   UNL     1      46.178   5.789  13.060  0.00  0.00    +0.000 A 
ATOM      4  C   UNL     1      46.283   4.438  13.420  0.00  0.00    +0.000 A 
ATOM      5  N   UNL     1      45.610   3.426  12.811  0.00  0.00    +0.000 NA
ATOM      6  C   UNL     1      44.780   3.830  11.815  0.00  0.00    +0.000 A 
ATOM      7  C   UNL     1      44.655   5.162  11.446  0.00  0.00    +0.000 A 
ATOM      8  N   UNL     1      45.356   6.156  12.055  0.00  0.00    +0.000 NA
ATOM      9  H   UNL     1      46.718   7.656  13.127  0.00  0.00    +0.000 HD
BRANCH   6  10
ATOM     10  C   UNL     1      43.975   2.787  11.127  0.00  0.00    +0.000 C 
ATOM     11  N   UNL     1      44.498   2.293   9.965  0.00  0.00    +0.000 N 
ATOM     12  O   UNL     1      42.905   2.387  11.574  0.00  0.00    +0.000 OA
ATOM     13  H   UNL     1      45.397   2.630   9.631  0.00  0.00    +0.000 HD
ATOM     14  H   UNL     1      44.002   1.565   9.468  0.00  0.00    +0.000 HD
ENDBRANCH   6  10
ENDBRANCH   1   2
BRANCH   1  15
ATOM     15  C   UNL     1      49.005   7.871  14.469  0.00  0.00    +0.000 C 
ATOM     16  C   UNL     1      49.759   7.802  15.814  0.00  0.00    +0.000 C 
ATOM     17  C   UNL     1      48.095   9.120  14.442  0.00  0.00    +0.000 C 
BRANCH  15  21
ATOM     18  C   UNL     1      51.960   8.075  11.193  0.00  0.00    +0.000 A 
ATOM     19  C   UNL     1      52.271   8.523  12.482  0.00  0.00    +0.000 A 
ATOM     20  C   UNL     1      51.335   8.487  13.521  0.00  0.00    +0.000 A 
ATOM     21  C   UNL     1      50.037   7.998  13.322  0.00  0.00    +0.000 A 
ATOM     22  C   UNL     1      49.710   7.588  12.019  0.00  0.00    +0.000 A 
ATOM     23  C   UNL     1      50.648   7.625  10.980  0.00  0.00    +0.000 A 
BRANCH  18  25
ATOM     24  C   UNL     1      52.904   6.747   9.209  0.00  0.00    +0.000 C 
ATOM     25  C   UNL     1      52.999   8.032  10.062  0.00  0.00    +0.000 C 
ATOM     26  C   UNL     1      54.430   8.099  10.632  0.00  0.00    +0.000 C 
ATOM     27  C   UNL     1      52.781   9.238   9.121  0.00  0.00    +0.000 C 
ENDBRANCH  18  25
ENDBRANCH  15  21
ENDBRANCH   1  15
TORSDOF 5
ENDMDL
