MODEL 1
REMARK VINA RESULT:    -8.192      0.000      0.000
REMARK INTER + INTRA:         -11.278
REMARK INTER:                 -10.586
REMARK INTRA:                  -0.691
REMARK UNBOUND:                -0.691
REMARK  Name = 
REMARK  5 active torsions:
REMARK  status: ('A' for Active; 'I' for Inactive)
REMARK    1  A    between atoms: C_2  and  C_4
REMARK    2  A    between atoms: C_7  and  O_8
REMARK    3  A    between atoms: O_8  and  C_9
REMARK    4  A    between atoms: C_9  and  C_10
REMARK    5  A    between atoms: C_14  and  C_15
REMARK                            x       y       z     vdW  Elec       q    Type
REMARK                         _______ _______ _______ _____ _____    ______ ____
ROOT
ATOM      1  C   UNL     1      46.390   2.759   7.239  0.00  0.00    +0.000 A 
ATOM      2  N   UNL     1      45.852   4.002   7.460  0.00  0.00    +0.000 NA
ATOM      3  C   UNL     1      44.985   4.119   8.488  0.00  0.00    +0.000 A 
ATOM      4  C   UNL     1      44.630   3.075   9.334  0.00  0.00    +0.000 A 
ATOM      5  C   UNL     1      45.149   1.812   9.058  0.00  0.00    +0.000 A 
ATOM      6  C   UNL     1      46.055   1.640   8.003  0.00  0.00    +0.000 A 
ATOM      7 CL   UNL     1      46.686   0.056   7.764  0.00  0.00    +0.000 Cl
ENDROOT
BRANCH   1   9
ATOM      8  N   UNL     1      48.683   2.526   6.473  0.00  0.00    +0.000 N 
ATOM      9  C   UNL     1      47.376   2.733   6.100  0.00  0.00    +0.000 C 
ATOM     10  O   UNL     1      47.090   2.875   4.925  0.00  0.00    +0.000 OA
ATOM     11  H   UNL     1      49.399   2.512   5.761  0.00  0.00    +0.000 HD
ATOM     12  H   UNL     1      48.921   2.416   7.451  0.00  0.00    +0.000 HD
ENDBRANCH   1   9
BRANCH   4  13
ATOM     13  O   UNL     1      43.822   3.185  10.433  0.00  0.00    +0.000 OA
BRANCH  13  14
ATOM     14  C   UNL     1      43.706   4.523  10.929  0.00  0.00    +0.000 C 
BRANCH  14  15
ATOM     15  C   UNL     1      44.855   4.894  11.831  0.00  0.00    +0.000 A 
ATOM     16  C   UNL     1      45.249   3.998  12.837  0.00  0.00    +0.000 A 
ATOM     17  C   UNL     1      46.357   4.267  13.636  0.00  0.00    +0.000 A 
ATOM     18  C   UNL     1      47.101   5.425  13.421  0.00  0.00    +0.000 A 
ATOM     19  C   UNL     1      46.741   6.327  12.408  0.00  0.00    +0.000 A 
ATOM     20  C   UNL     1      45.605   6.058  11.626  0.00  0.00    +0.000 A 
BRANCH  19  21
ATOM     21  C   UNL     1      47.572   7.552  12.122  0.00  0.00    +0.000 C 
ATOM     22  F   UNL     1      48.431   7.396  11.076  0.00  0.00    +0.000 F 
ATOM     23  F   UNL     1      46.803   8.633  11.811  0.00  0.00    +0.000 F 
ATOM     24  F   UNL     1      48.337   7.928  13.183  0.00  0.00    +0.000 F 
ENDBRANCH  19  21
ENDBRANCH  14  15
ENDBRANCH  13  14
ENDBRANCH   4  13
TORSDOF 5
ENDMDL
MODEL 2
REMARK VINA RESULT:    -7.728      4.653      6.855
REMARK INTER + INTRA:         -10.679
REMARK INTER:                 -10.328
REMARK INTRA:                  -0.351
REMARK UNBOUND:                -0.691
REMARK  Name = 
REMARK  5 active torsions:
REMARK  status: ('A' for Active; 'I' for Inactive)
REMARK    1  A    between atoms: C_2  and  C_4
REMARK    2  A    between atoms: C_7  and  O_8
REMARK    3  A    between atoms: O_8  and  C_9
REMARK    4  A    between atoms: C_9  and  C_10
REMARK    5  A    between atoms: C_14  and  C_15
REMARK                            x       y       z     vdW  Elec       q    Type
REMARK                         _______ _______ _______ _____ _____    ______ ____
ROOT
ATOM      1  C   UNL     1      46.694   5.539  13.634  0.00  0.00    +0.000 A 
ATOM      2  N   UNL     1      46.540   4.176  13.614  0.00  0.00    +0.000 NA
ATOM      3  C   UNL     1      45.484   3.690  12.929  0.00  0.00    +0.000 A 
ATOM      4  C   UNL     1      44.572   4.477  12.236  0.00  0.00    +0.000 A 
ATOM      5  C   UNL     1      44.720   5.860  12.313  0.00  0.00    +0.000 A 
ATOM      6  C   UNL     1      45.802   6.413  13.011  0.00  0.00    +0.000 A 
ATOM      7 CL   UNL     1      45.936   8.130  13.014  0.00  0.00    +0.000 Cl
ENDROOT
BRANCH   1   9
ATOM      8  N   UNL     1      47.846   5.844  15.751  0.00  0.00    +0.000 N 
ATOM      9  C   UNL     1      47.921   5.988  14.386  0.00  0.00    +0.000 C 
ATOM     10  O   UNL     1      48.926   6.445  13.873  0.00  0.00    +0.000 OA
ATOM     11  H   UNL     1      48.627   6.139  16.319  0.00  0.00    +0.000 HD
ATOM     12  H   UNL     1      47.006   5.471  16.177  0.00  0.00    +0.000 HD
ENDBRANCH   1   9
BRANCH   4  13
ATOM     13  O   UNL     1      43.545   4.007  11.464  0.00  0.00    +0.000 OA
BRANCH  13  14
ATOM     14  C   UNL     1      43.844   2.774  10.798  0.00  0.00    +0.000 C 
BRANCH  14  15
ATOM     15  C   UNL     1      44.703   2.984   9.578  0.00  0.00    +0.000 A 
ATOM     16  C   UNL     1      44.928   4.292   9.119  0.00  0.00    +0.000 A 
ATOM     17  C   UNL     1      45.781   4.532   8.046  0.00  0.00    +0.000 A 
ATOM     18  C   UNL     1      46.442   3.468   7.435  0.00  0.00    +0.000 A 
ATOM     19  C   UNL     1      46.251   2.154   7.887  0.00  0.00    +0.000 A 
ATOM     20  C   UNL     1      45.366   1.921   8.954  0.00  0.00    +0.000 A 
BRANCH  19  21
ATOM     21  C   UNL     1      47.007   1.000   7.278  0.00  0.00    +0.000 C 
ATOM     22  F   UNL     1      46.716  -0.202   7.848  0.00  0.00    +0.000 F 
ATOM     23  F   UNL     1      46.740   0.856   5.950  0.00  0.00    +0.000 F 
ATOM     24  F   UNL     1      48.356   1.146   7.376  0.00  0.00    +0.000 F 
ENDBRANCH  19  21
ENDBRANCH  14  15
ENDBRANCH  13  14
ENDBRANCH   4  13
TORSDOF 5
ENDMDL
MODEL 3
REMARK VINA RESULT:    -7.686      1.736      2.134
REMARK INTER + INTRA:         -10.624
REMARK INTER:                 -10.088
REMARK INTRA:                  -0.536
REMARK UNBOUND:                -0.691
REMARK  Name = 
REMARK  5 active torsions:
REMARK  status: ('A' for Active; 'I' for Inactive)
REMARK    1  A    between atoms: C_2  and  C_4
REMARK    2  A    between atoms: C_7  and  O_8
REMARK    3  A    between atoms: O_8  and  C_9
REMARK    4  A    between atoms: C_9  and  C_10
REMARK    5  A    between atoms: C_14  and  C_15
REMARK                            x       y       z     vdW  Elec       q    Type
REMARK                         _______ _______ _______ _____ _____    ______ ____
ROOT
ATOM      1  C   UNL     1      46.142   1.948   7.993  0.00  0.00    +0.000 A 
ATOM      2  N   UNL     1      45.350   1.442   8.993  0.00  0.00    +0.000 NA
ATOM      3  C   UNL     1      44.515   2.307   9.607  0.00  0.00    +0.000 A 
ATOM      4  C   UNL     1      44.399   3.651   9.275  0.00  0.00    +0.000 A 
ATOM      5  C   UNL     1      45.249   4.151   8.291  0.00  0.00    +0.000 A 
ATOM      6  C   UNL     1      46.132   3.293   7.623  0.00  0.00    +0.000 A 
ATOM      7 CL   UNL     1      47.111   3.985   6.388  0.00  0.00    +0.000 Cl
ENDROOT
BRANCH   1   9
ATOM      8  N   UNL     1      46.701  -0.394   7.669  0.00  0.00    +0.000 N 
ATOM      9  C   UNL     1      47.009   0.904   7.338  0.00  0.00    +0.000 C 
ATOM     10  O   UNL     1      47.922   1.138   6.566  0.00  0.00    +0.000 OA
ATOM     11  H   UNL     1      47.252  -1.145   7.277  0.00  0.00    +0.000 HD
ATOM     12  H   UNL     1      45.947  -0.588   8.317  0.00  0.00    +0.000 HD
ENDBRANCH   1   9
BRANCH   4  13
ATOM     13  O   UNL     1      43.501   4.528   9.821  0.00  0.00    +0.000 OA
BRANCH  13  14
ATOM     14  C   UNL     1      43.297   4.340  11.226  0.00  0.00    +0.000 C 
BRANCH  14  15
ATOM     15  C   UNL     1      44.423   4.917  12.044  0.00  0.00    +0.000 A 
ATOM     16  C   UNL     1      45.216   4.054  12.818  0.00  0.00    +0.000 A 
ATOM     17  C   UNL     1      46.315   4.537  13.522  0.00  0.00    +0.000 A 
ATOM     18  C   UNL     1      46.652   5.887  13.439  0.00  0.00    +0.000 A 
ATOM     19  C   UNL     1      45.890   6.766  12.656  0.00  0.00    +0.000 A 
ATOM     20  C   UNL     1      44.766   6.272  11.972  0.00  0.00    +0.000 A 
BRANCH  19  21
ATOM     21  C   UNL     1      46.278   8.215  12.506  0.00  0.00    +0.000 C 
ATOM     22  F   UNL     1      46.403   8.872  13.692  0.00  0.00    +0.000 F 
ATOM     23  F   UNL     1      47.475   8.363  11.872  0.00  0.00    +0.000 F 
ATOM     24  F   UNL     1      45.376   8.927  11.776  0.00  0.00    +0.000 F 
ENDBRANCH  19  21
ENDBRANCH  14  15
ENDBRANCH  13  14
ENDBRANCH   4  13
TORSDOF 5
ENDMDL
MODEL 4
REMARK VINA RESULT:    -7.613      2.323      2.956
REMARK INTER + INTRA:         -10.530
REMARK INTER:                  -9.964
REMARK INTRA:                  -0.566
REMARK UNBOUND:                -0.691
REMARK  Name = 
REMARK  5 active torsions:
REMARK  status: ('A' for Active; 'I' for Inactive)
REMARK    1  A    between atoms: C_2  and  C_4
REMARK    2  A    between atoms: C_7  and  O_8
REMARK    3  A    between atoms: O_8  and  C_9
REMARK    4  A    between atoms: C_9  and  C_10
REMARK    5  A    between atoms: C_14  and  C_15
REMARK                            x       y       z     vdW  Elec       q    Type
REMARK                         _______ _______ _______ _____ _____    ______ ____
ROOT
ATOM      1  C   UNL     1      46.159   1.924   7.968  0.00  0.00    +0.000 A 
ATOM      2  N   UNL     1      45.358   1.420   8.962  0.00  0.00    +0.000 NA
ATOM      3  C   UNL     1      44.520   2.286   9.569  0.00  0.00    +0.000 A 
ATOM      4  C   UNL     1      44.409   3.631   9.235  0.00  0.00    +0.000 A 
ATOM      5  C   UNL     1      45.268   4.129   8.259  0.00  0.00    +0.000 A 
ATOM      6  C   UNL     1      46.154   3.269   7.598  0.00  0.00    +0.000 A 
ATOM      7 CL   UNL     1      47.145   3.959   6.370  0.00  0.00    +0.000 Cl
ENDROOT
BRANCH   1   9
ATOM      8  N   UNL     1      46.751  -0.416   7.690  0.00  0.00    +0.000 N 
ATOM      9  C   UNL     1      47.030   0.878   7.321  0.00  0.00    +0.000 C 
ATOM     10  O   UNL     1      47.922   1.107   6.524  0.00  0.00    +0.000 OA
ATOM     11  H   UNL     1      47.306  -1.167   7.306  0.00  0.00    +0.000 HD
ATOM     12  H   UNL     1      46.015  -0.606   8.359  0.00  0.00    +0.000 HD
ENDBRANCH   1   9
BRANCH   4  13
ATOM     13  O   UNL     1      43.508   4.509   9.774  0.00  0.00    +0.000 OA
BRANCH  13  14
ATOM     14  C   UNL     1      43.421   4.439  11.202  0.00  0.00    +0.000 C 
BRANCH  14  15
ATOM     15  C   UNL     1      44.584   5.122  11.874  0.00  0.00    +0.000 A 
ATOM     16  C   UNL     1      44.874   6.456  11.546  0.00  0.00    +0.000 A 
ATOM     17  C   UNL     1      45.888   7.146  12.204  0.00  0.00    +0.000 A 
ATOM     18  C   UNL     1      46.607   6.519  13.219  0.00  0.00    +0.000 A 
ATOM     19  C   UNL     1      46.323   5.194  13.581  0.00  0.00    +0.000 A 
ATOM     20  C   UNL     1      45.316   4.498  12.890  0.00  0.00    +0.000 A 
BRANCH  19  21
ATOM     21  C   UNL     1      47.049   4.522  14.719  0.00  0.00    +0.000 C 
ATOM     22  F   UNL     1      48.189   5.166  15.094  0.00  0.00    +0.000 F 
ATOM     23  F   UNL     1      46.282   4.441  15.841  0.00  0.00    +0.000 F 
ATOM     24  F   UNL     1      47.419   3.245  14.425  0.00  0.00    +0.000 F 
ENDBRANCH  19  21
ENDBRANCH  14  15
ENDBRANCH  13  14
ENDBRANCH   4  13
TORSDOF 5
ENDMDL
MODEL 5
REMARK VINA RESULT:    -7.117      4.291      6.387
REMARK INTER + INTRA:          -9.889
REMARK INTER:                  -9.073
REMARK INTRA:                  -0.816
REMARK UNBOUND:                -0.691
REMARK  Name = 
REMARK  5 active torsions:
REMARK  status: ('A' for Active; 'I' for Inactive)
REMARK    1  A    between atoms: C_2  and  C_4
REMARK    2  A    between atoms: C_7  and  O_8
REMARK    3  A    between atoms: O_8  and  C_9
REMARK    4  A    between atoms: C_9  and  C_10
REMARK    5  A    between atoms: C_14  and  C_15
REMARK                            x       y       z     vdW  Elec       q    Type
REMARK                         _______ _______ _______ _____ _____    ______ ____
ROOT
ATOM      1  C   UNL     1      47.766   6.608  13.299  0.00  0.00    +0.000 A 
ATOM      2  N   UNL     1      47.411   5.340  13.684  0.00  0.00    +0.000 NA
ATOM      3  C   UNL     1      46.150   4.949  13.409  0.00  0.00    +0.000 A 
ATOM      4  C   UNL     1      45.213   5.736  12.750  0.00  0.00    +0.000 A 
ATOM      5  C   UNL     1      45.581   7.037  12.414  0.00  0.00    +0.000 A 
ATOM      6  C   UNL     1      46.880   7.489  12.677  0.00  0.00    +0.000 A 
ATOM      7 CL   UNL     1      47.265   9.093  12.184  0.00  0.00    +0.000 Cl
ENDROOT
BRANCH   1   9
ATOM      8  N   UNL     1      49.989   7.188  12.507  0.00  0.00    +0.000 N 
ATOM      9  C   UNL     1      49.203   6.943  13.608  0.00  0.00    +0.000 C 
ATOM     10  O   UNL     1      49.680   7.008  14.727  0.00  0.00    +0.000 OA
ATOM     11  H   UNL     1      50.967   7.403  12.641  0.00  0.00    +0.000 HD
ATOM     12  H   UNL     1      49.594   7.126  11.577  0.00  0.00    +0.000 HD
ENDBRANCH   1   9
BRANCH   4  13
ATOM     13  O   UNL     1      43.957   5.334  12.383  0.00  0.00    +0.000 OA
BRANCH  13  14
ATOM     14  C   UNL     1      43.721   5.404  10.972  0.00  0.00    +0.000 C 
BRANCH  14  15
ATOM     15  C   UNL     1      44.305   4.222  10.241  0.00  0.00    +0.000 A 
ATOM     16  C   UNL     1      43.812   2.938  10.518  0.00  0.00    +0.000 A 
ATOM     17  C   UNL     1      44.268   1.832   9.806  0.00  0.00    +0.000 A 
ATOM     18  C   UNL     1      45.205   2.001   8.789  0.00  0.00    +0.000 A 
ATOM     19  C   UNL     1      45.699   3.277   8.478  0.00  0.00    +0.000 A 
ATOM     20  C   UNL     1      45.251   4.382   9.222  0.00  0.00    +0.000 A 
BRANCH  19  21
ATOM     21  C   UNL     1      46.665   3.485   7.339  0.00  0.00    +0.000 C 
ATOM     22  F   UNL     1      47.706   2.607   7.341  0.00  0.00    +0.000 F 
ATOM     23  F   UNL     1      46.064   3.346   6.125  0.00  0.00    +0.000 F 
ATOM     24  F   UNL     1      47.221   4.727   7.343  0.00  0.00    +0.000 F 
ENDBRANCH  19  21
ENDBRANCH  14  15
ENDBRANCH  13  14
ENDBRANCH   4  13
TORSDOF 5
ENDMDL
MODEL 6
REMARK VINA RESULT:    -7.032      4.759      7.162
REMARK INTER + INTRA:          -9.778
REMARK INTER:                  -9.262
REMARK INTRA:                  -0.516
REMARK UNBOUND:                -0.691
REMARK  Name = 
REMARK  5 active torsions:
REMARK  status: ('A' for Active; 'I' for Inactive)
REMARK    1  A    between atoms: C_2  and  C_4
REMARK    2  A    between atoms: C_7  and  O_8
REMARK    3  A    between atoms: O_8  and  C_9
REMARK    4  A    between atoms: C_9  and  C_10
REMARK    5  A    between atoms: C_14  and  C_15
REMARK                            x       y       z     vdW  Elec       q    Type
REMARK                         _______ _______ _______ _____ _____    ______ ____
ROOT
ATOM      1  C   UNL     1      47.437   5.073  15.046  0.00  0.00    +0.000 A 
ATOM      2  N   UNL     1      46.455   4.296  14.487  0.00  0.00    +0.000 NA
ATOM      3  C   UNL     1      46.008   4.660  13.267  0.00  0.00    +0.000 A 
ATOM      4  C   UNL     1      46.493   5.746  12.548  0.00  0.00    +0.000 A 
ATOM      5  C   UNL     1      47.453   6.549  13.158  0.00  0.00    +0.000 A 
ATOM      6  C   UNL     1      47.951   6.211  14.423  0.00  0.00    +0.000 A 
ATOM      7 CL   UNL     1      49.172   7.232  15.082  0.00  0.00    +0.000 Cl
ENDROOT
BRANCH   1   9
ATOM      8  N   UNL     1      47.058   4.848  17.435  0.00  0.00    +0.000 N 
ATOM      9  C   UNL     1      47.902   4.568  16.387  0.00  0.00    +0.000 C 
ATOM     10  O   UNL     1      48.935   3.952  16.582  0.00  0.00    +0.000 OA
ATOM     11  H   UNL     1      47.316   4.552  18.366  0.00  0.00    +0.000 HD
ATOM     12  H   UNL     1      46.203   5.367  17.274  0.00  0.00    +0.000 HD
ENDBRANCH   1   9
BRANCH   4  13
ATOM     13  O   UNL     1      46.119   6.086  11.276  0.00  0.00    +0.000 OA
BRANCH  13  14
ATOM     14  C   UNL     1      44.860   5.531  10.880  0.00  0.00    +0.000 C 
BRANCH  14  15
ATOM     15  C   UNL     1      45.027   4.288  10.044  0.00  0.00    +0.000 A 
ATOM     16  C   UNL     1      44.282   3.143  10.366  0.00  0.00    +0.000 A 
ATOM     17  C   UNL     1      44.348   2.003   9.570  0.00  0.00    +0.000 A 
ATOM     18  C   UNL     1      45.141   2.003   8.425  0.00  0.00    +0.000 A 
ATOM     19  C   UNL     1      45.880   3.141   8.068  0.00  0.00    +0.000 A 
ATOM     20  C   UNL     1      45.827   4.277   8.895  0.00  0.00    +0.000 A 
BRANCH  19  21
ATOM     21  C   UNL     1      46.693   3.179   6.799  0.00  0.00    +0.000 C 
ATOM     22  F   UNL     1      46.808   4.426   6.263  0.00  0.00    +0.000 F 
ATOM     23  F   UNL     1      47.967   2.739   6.992  0.00  0.00    +0.000 F 
ATOM     24  F   UNL     1      46.170   2.395   5.817  0.00  0.00    +0.000 F 
ENDBRANCH  19  21
ENDBRANCH  14  15
ENDBRANCH  13  14
ENDBRANCH   4  13
TORSDOF 5
ENDMDL
MODEL 7
REMARK VINA RESULT:    -7.012      4.456      6.726
REMARK INTER + INTRA:          -9.753
REMARK INTER:                  -9.031
REMARK INTRA:                  -0.722
REMARK UNBOUND:                -0.691
REMARK  Name = 
REMARK  5 active torsions:
REMARK  status: ('A' for Active; 'I' for Inactive)
REMARK    1  A    between atoms: C_2  and  C_4
REMARK    2  A    between atoms: C_7  and  O_8
REMARK    3  A    between atoms: O_8  and  C_9
REMARK    4  A    between atoms: C_9  and  C_10
REMARK    5  A    between atoms: C_14  and  C_15
REMARK                            x       y       z     vdW  Elec       q    Type
REMARK                         _______ _______ _______ _____ _____    ______ ____
ROOT
ATOM      1  C   UNL     1      47.561   6.260  14.083  0.00  0.00    +0.000 A 
ATOM      2  N   UNL     1      47.180   7.142  13.105  0.00  0.00    +0.000 NA
ATOM      3  C   UNL     1      46.125   6.789  12.341  0.00  0.00    +0.000 A 
ATOM      4  C   UNL     1      45.402   5.613  12.502  0.00  0.00    +0.000 A 
ATOM      5  C   UNL     1      45.839   4.710  13.468  0.00  0.00    +0.000 A 
ATOM      6  C   UNL     1      46.929   5.032  14.288  0.00  0.00    +0.000 A 
ATOM      7 CL   UNL     1      47.372   3.881  15.489  0.00  0.00    +0.000 Cl
ENDROOT
BRANCH   1   9
ATOM      8  N   UNL     1      48.414   7.033  16.223  0.00  0.00    +0.000 N 
ATOM      9  C   UNL     1      48.719   6.755  14.911  0.00  0.00    +0.000 C 
ATOM     10  O   UNL     1      49.855   6.910  14.501  0.00  0.00    +0.000 OA
ATOM     11  H   UNL     1      49.141   7.384  16.831  0.00  0.00    +0.000 HD
ATOM     12  H   UNL     1      47.468   6.912  16.561  0.00  0.00    +0.000 HD
ENDBRANCH   1   9
BRANCH   4  13
ATOM     13  O   UNL     1      44.278   5.271  11.800  0.00  0.00    +0.000 OA
BRANCH  13  14
ATOM     14  C   UNL     1      44.408   5.448  10.385  0.00  0.00    +0.000 C 
BRANCH  14  15
ATOM     15  C   UNL     1      44.847   4.182   9.695  0.00  0.00    +0.000 A 
ATOM     16  C   UNL     1      44.302   2.956  10.108  0.00  0.00    +0.000 A 
ATOM     17  C   UNL     1      44.621   1.776   9.443  0.00  0.00    +0.000 A 
ATOM     18  C   UNL     1      45.468   1.811   8.337  0.00  0.00    +0.000 A 
ATOM     19  C   UNL     1      46.009   3.025   7.890  0.00  0.00    +0.000 A 
ATOM     20  C   UNL     1      45.702   4.207   8.588  0.00  0.00    +0.000 A 
BRANCH  19  21
ATOM     21  C   UNL     1      46.876   3.089   6.658  0.00  0.00    +0.000 C 
ATOM     22  F   UNL     1      48.196   2.863   6.909  0.00  0.00    +0.000 F 
ATOM     23  F   UNL     1      46.512   2.164   5.726  0.00  0.00    +0.000 F 
ATOM     24  F   UNL     1      46.813   4.296   6.033  0.00  0.00    +0.000 F 
ENDBRANCH  19  21
ENDBRANCH  14  15
ENDBRANCH  13  14
ENDBRANCH   4  13
TORSDOF 5
ENDMDL
MODEL 8
REMARK VINA RESULT:    -6.689      5.043      7.346
REMARK INTER + INTRA:          -9.335
REMARK INTER:                  -8.845
REMARK INTRA:                  -0.491
REMARK UNBOUND:                -0.691
REMARK  Name = 
REMARK  5 active torsions:
REMARK  status: ('A' for Active; 'I' for Inactive)
REMARK    1  A    between atoms: C_2  and  C_4
REMARK    2  A    between atoms: C_7  and  O_8
REMARK    3  A    between atoms: O_8  and  C_9
REMARK    4  A    between atoms: C_9  and  C_10
REMARK    5  A    between atoms: C_14  and  C_15
REMARK                            x       y       z     vdW  Elec       q    Type
REMARK                         _______ _______ _______ _____ _____    ______ ____
ROOT
ATOM      1  C   UNL     1      47.832   4.236  16.089  0.00  0.00    +0.000 A 
ATOM      2  N   UNL     1      47.196   3.662  15.018  0.00  0.00    +0.000 NA
ATOM      3  C   UNL     1      47.042   4.427  13.917  0.00  0.00    +0.000 A 
ATOM      4  C   UNL     1      47.503   5.733  13.801  0.00  0.00    +0.000 A 
ATOM      5  C   UNL     1      48.101   6.310  14.919  0.00  0.00    +0.000 A 
ATOM      6  C   UNL     1      48.285   5.556  16.085  0.00  0.00    +0.000 A 
ATOM      7 CL   UNL     1      49.077   6.333  17.402  0.00  0.00    +0.000 Cl
ENDROOT
BRANCH   1   9
ATOM      8  N   UNL     1      46.824   2.759  17.733  0.00  0.00    +0.000 N 
ATOM      9  C   UNL     1      47.996   3.297  17.256  0.00  0.00    +0.000 C 
ATOM     10  O   UNL     1      49.058   3.001  17.772  0.00  0.00    +0.000 OA
ATOM     11  H   UNL     1      46.858   2.132  18.524  0.00  0.00    +0.000 HD
ATOM     12  H   UNL     1      45.939   3.011  17.309  0.00  0.00    +0.000 HD
ENDBRANCH   1   9
BRANCH   4  13
ATOM     13  O   UNL     1      47.438   6.499  12.669  0.00  0.00    +0.000 OA
BRANCH  13  14
ATOM     14  C   UNL     1      46.131   7.022  12.405  0.00  0.00    +0.000 C 
BRANCH  14  15
ATOM     15  C   UNL     1      45.273   6.044  11.644  0.00  0.00    +0.000 A 
ATOM     16  C   UNL     1      43.926   5.891  12.007  0.00  0.00    +0.000 A 
ATOM     17  C   UNL     1      43.082   5.059  11.278  0.00  0.00    +0.000 A 
ATOM     18  C   UNL     1      43.569   4.389  10.157  0.00  0.00    +0.000 A 
ATOM     19  C   UNL     1      44.906   4.541   9.759  0.00  0.00    +0.000 A 
ATOM     20  C   UNL     1      45.755   5.363  10.520  0.00  0.00    +0.000 A 
BRANCH  19  21
ATOM     21  C   UNL     1      45.431   3.874   8.513  0.00  0.00    +0.000 C 
ATOM     22  F   UNL     1      44.500   3.754   7.526  0.00  0.00    +0.000 F 
ATOM     23  F   UNL     1      46.470   4.561   7.962  0.00  0.00    +0.000 F 
ATOM     24  F   UNL     1      45.895   2.616   8.747  0.00  0.00    +0.000 F 
ENDBRANCH  19  21
ENDBRANCH  14  15
ENDBRANCH  13  14
ENDBRANCH   4  13
TORSDOF 5
ENDMDL
MODEL 9
REMARK VINA RESULT:    -6.125      6.224      8.347
REMARK INTER + INTRA:          -8.607
REMARK INTER:                  -8.005
REMARK INTRA:                  -0.602
REMARK UNBOUND:                -0.691
REMARK  Name = 
REMARK  5 active torsions:
REMARK  status: ('A' for Active; 'I' for Inactive)
REMARK    1  A    between atoms: C_2  and  C_4
REMARK    2  A    between atoms: C_7  and  O_8
REMARK    3  A    between atoms: O_8  and  C_9
REMARK    4  A    between atoms: C_9  and  C_10
REMARK    5  A    between atoms: C_14  and  C_15
REMARK                            x       y       z     vdW  Elec       q    Type
REMARK                         _______ _______ _______ _____ _____    ______ ____
ROOT
ATOM      1  C   UNL     1      49.954   4.200  18.110  0.00  0.00    +0.000 A 
ATOM      2  N   UNL     1      49.126   5.287  17.986  0.00  0.00    +0.000 NA
ATOM      3  C   UNL     1      48.085   5.168  17.136  0.00  0.00    +0.000 A 
ATOM      4  C   UNL     1      47.797   4.020  16.407  0.00  0.00    +0.000 A 
ATOM      5  C   UNL     1      48.681   2.949  16.511  0.00  0.00    +0.000 A 
ATOM      6  C   UNL     1      49.775   3.022  17.383  0.00  0.00    +0.000 A 
ATOM      7 CL   UNL     1      50.788   1.634  17.486  0.00  0.00    +0.000 Cl
ENDROOT
BRANCH   1   9
ATOM      8  N   UNL     1      50.649   4.486  20.420  0.00  0.00    +0.000 N 
ATOM      9  C   UNL     1      51.061   4.408  19.111  0.00  0.00    +0.000 C 
ATOM     10  O   UNL     1      52.243   4.502  18.835  0.00  0.00    +0.000 OA
ATOM     11  H   UNL     1      51.338   4.640  21.143  0.00  0.00    +0.000 HD
ATOM     12  H   UNL     1      49.665   4.416  20.649  0.00  0.00    +0.000 HD
ENDBRANCH   1   9
BRANCH   4  13
ATOM     13  O   UNL     1      46.703   3.844  15.605  0.00  0.00    +0.000 OA
BRANCH  13  14
ATOM     14  C   UNL     1      47.030   3.558  14.240  0.00  0.00    +0.000 C 
BRANCH  14  15
ATOM     15  C   UNL     1      46.442   4.573  13.293  0.00  0.00    +0.000 A 
ATOM     16  C   UNL     1      47.173   5.734  12.998  0.00  0.00    +0.000 A 
ATOM     17  C   UNL     1      46.701   6.655  12.067  0.00  0.00    +0.000 A 
ATOM     18  C   UNL     1      45.504   6.411  11.397  0.00  0.00    +0.000 A 
ATOM     19  C   UNL     1      44.764   5.247  11.658  0.00  0.00    +0.000 A 
ATOM     20  C   UNL     1      45.237   4.339  12.621  0.00  0.00    +0.000 A 
BRANCH  19  21
ATOM     21  C   UNL     1      43.500   4.939  10.897  0.00  0.00    +0.000 C 
ATOM     22  F   UNL     1      43.717   4.583   9.601  0.00  0.00    +0.000 F 
ATOM     23  F   UNL     1      42.805   3.907  11.454  0.00  0.00    +0.000 F 
ATOM     24  F   UNL     1      42.639   5.992  10.859  0.00  0.00    +0.000 F 
ENDBRANCH  19  21
ENDBRANCH  14  15
ENDBRANCH  13  14
ENDBRANCH   4  13
TORSDOF 5
ENDMDL
