MODEL 1
REMARK VINA RESULT:    -8.177      0.000      0.000
REMARK INTER + INTRA:         -11.408
REMARK INTER:                 -10.806
REMARK INTRA:                  -0.601
REMARK UNBOUND:                -0.601
REMARK  Name = 
REMARK  6 active torsions:
REMARK  status: ('A' for Active; 'I' for Inactive)
REMARK    1  A    between atoms: N_1  and  C_2
REMARK    2  A    between atoms: C_2  and  C_3
REMARK    3  A    between atoms: C_3  and  C_4
REMARK    4  A    between atoms: C_7  and  C_8
REMARK    5  A    between atoms: C_8  and  N_9
REMARK    6  A    between atoms: C_15  and  C_16
REMARK                            x       y       z     vdW  Elec       q    Type
REMARK                         _______ _______ _______ _____ _____    ______ ____
ROOT
ATOM      1  N   UNL     1      45.239   4.481  12.637  0.00  0.00    +0.000 N 
ATOM      2  N   UNL     1      45.994   3.538  13.254  0.00  0.00    +0.000 NA
ATOM      3  C   UNL     1      46.942   4.254  13.876  0.00  0.00    +0.000 A 
ATOM      4  C   UNL     1      46.814   5.635  13.645  0.00  0.00    +0.000 A 
ATOM      5  N   UNL     1      47.575   6.681  14.044  0.00  0.00    +0.000 NA
ATOM      6  C   UNL     1      47.154   7.888  13.584  0.00  0.00    +0.000 A 
ATOM      7  C   UNL     1      46.035   8.114  12.782  0.00  0.00    +0.000 A 
ATOM      8  C   UNL     1      45.253   7.019  12.396  0.00  0.00    +0.000 A 
ATOM      9  C   UNL     1      45.688   5.766  12.845  0.00  0.00    +0.000 A 
ENDROOT
BRANCH   7  10
ATOM     10  C   UNL     1      45.747   9.508  12.360  0.00  0.00    +0.000 C 
ATOM     11  N   UNL     1      44.491  10.006  12.555  0.00  0.00    +0.000 N 
ATOM     12  O   UNL     1      46.609  10.204  11.840  0.00  0.00    +0.000 OA
ATOM     13  H   UNL     1      43.710   9.512  12.957  0.00  0.00    +0.000 HD
ATOM     14  H   UNL     1      44.328  10.955  12.240  0.00  0.00    +0.000 HD
ENDBRANCH   7  10
BRANCH   1  15
ATOM     15  C   UNL     1      44.207   4.067  11.692  0.00  0.00    +0.000 C 
BRANCH  15  19
ATOM     16  C   UNL     1      45.826   3.099   7.788  0.00  0.00    +0.000 A 
ATOM     17  C   UNL     1      45.333   2.087   8.622  0.00  0.00    +0.000 A 
ATOM     18  C   UNL     1      44.806   2.392   9.880  0.00  0.00    +0.000 A 
ATOM     19  C   UNL     1      44.758   3.718  10.332  0.00  0.00    +0.000 A 
ATOM     20  C   UNL     1      45.233   4.731   9.487  0.00  0.00    +0.000 A 
ATOM     21  C   UNL     1      45.752   4.426   8.225  0.00  0.00    +0.000 A 
BRANCH  16  22
ATOM     22  C   UNL     1      46.448   2.760   6.453  0.00  0.00    +0.000 C 
BRANCH  22  23
ATOM     23  C   UNL     1      47.439   1.594   6.528  0.00  0.00    +0.000 C 
BRANCH  23  24
ATOM     24  N   UNL     1      48.606   1.848   5.682  0.00  0.00    +0.000 NA
ATOM     25  H   UNL     1      49.447   1.867   6.259  0.00  0.00    +0.000 HD
ATOM     26  H   UNL     1      48.531   2.773   5.258  0.00  0.00    +0.000 HD
ENDBRANCH  23  24
ENDBRANCH  22  23
ENDBRANCH  16  22
ENDBRANCH  15  19
ENDBRANCH   1  15
TORSDOF 6
ENDMDL
MODEL 2
REMARK VINA RESULT:    -7.692      2.308      3.499
REMARK INTER + INTRA:         -10.766
REMARK INTER:                 -10.201
REMARK INTRA:                  -0.565
REMARK UNBOUND:                -0.601
REMARK  Name = 
REMARK  6 active torsions:
REMARK  status: ('A' for Active; 'I' for Inactive)
REMARK    1  A    between atoms: N_1  and  C_2
REMARK    2  A    between atoms: C_2  and  C_3
REMARK    3  A    between atoms: C_3  and  C_4
REMARK    4  A    between atoms: C_7  and  C_8
REMARK    5  A    between atoms: C_8  and  N_9
REMARK    6  A    between atoms: C_15  and  C_16
REMARK                            x       y       z     vdW  Elec       q    Type
REMARK                         _______ _______ _______ _____ _____    ______ ____
ROOT
ATOM      1  N   UNL     1      45.494   5.990  11.821  0.00  0.00    +0.000 N 
ATOM      2  N   UNL     1      45.624   7.277  11.412  0.00  0.00    +0.000 NA
ATOM      3  C   UNL     1      46.525   7.787  12.264  0.00  0.00    +0.000 A 
ATOM      4  C   UNL     1      46.951   6.851  13.222  0.00  0.00    +0.000 A 
ATOM      5  N   UNL     1      47.802   6.970  14.269  0.00  0.00    +0.000 NA
ATOM      6  C   UNL     1      47.939   5.839  15.010  0.00  0.00    +0.000 A 
ATOM      7  C   UNL     1      47.308   4.619  14.767  0.00  0.00    +0.000 A 
ATOM      8  C   UNL     1      46.446   4.514  13.669  0.00  0.00    +0.000 A 
ATOM      9  C   UNL     1      46.278   5.679  12.909  0.00  0.00    +0.000 A 
ENDROOT
BRANCH   7  10
ATOM     10  C   UNL     1      47.568   3.498  15.706  0.00  0.00    +0.000 C 
ATOM     11  N   UNL     1      46.910   3.479  16.901  0.00  0.00    +0.000 N 
ATOM     12  O   UNL     1      48.360   2.608  15.427  0.00  0.00    +0.000 OA
ATOM     13  H   UNL     1      46.254   4.169  17.232  0.00  0.00    +0.000 HD
ATOM     14  H   UNL     1      47.124   2.707  17.522  0.00  0.00    +0.000 HD
ENDBRANCH   7  10
BRANCH   1  15
ATOM     15  C   UNL     1      44.444   5.158  11.244  0.00  0.00    +0.000 C 
BRANCH  15  19
ATOM     16  C   UNL     1      45.904   2.654   8.020  0.00  0.00    +0.000 A 
ATOM     17  C   UNL     1      45.258   2.083   9.123  0.00  0.00    +0.000 A 
ATOM     18  C   UNL     1      44.781   2.884  10.165  0.00  0.00    +0.000 A 
ATOM     19  C   UNL     1      44.938   4.276  10.125  0.00  0.00    +0.000 A 
ATOM     20  C   UNL     1      45.567   4.847   9.009  0.00  0.00    +0.000 A 
ATOM     21  C   UNL     1      46.036   4.046   7.964  0.00  0.00    +0.000 A 
BRANCH  16  22
ATOM     22  C   UNL     1      46.470   1.781   6.924  0.00  0.00    +0.000 C 
BRANCH  22  23
ATOM     23  C   UNL     1      47.357   2.548   5.938  0.00  0.00    +0.000 C 
BRANCH  23  24
ATOM     24  N   UNL     1      48.593   1.812   5.667  0.00  0.00    +0.000 NA
ATOM     25  H   UNL     1      48.686   1.047   6.334  0.00  0.00    +0.000 HD
ATOM     26  H   UNL     1      49.397   2.420   5.818  0.00  0.00    +0.000 HD
ENDBRANCH  23  24
ENDBRANCH  22  23
ENDBRANCH  16  22
ENDBRANCH  15  19
ENDBRANCH   1  15
TORSDOF 6
ENDMDL
MODEL 3
REMARK VINA RESULT:    -7.043      1.852      3.053
REMARK INTER + INTRA:          -9.909
REMARK INTER:                  -9.395
REMARK INTRA:                  -0.514
REMARK UNBOUND:                -0.601
REMARK  Name = 
REMARK  6 active torsions:
REMARK  status: ('A' for Active; 'I' for Inactive)
REMARK    1  A    between atoms: N_1  and  C_2
REMARK    2  A    between atoms: C_2  and  C_3
REMARK    3  A    between atoms: C_3  and  C_4
REMARK    4  A    between atoms: C_7  and  C_8
REMARK    5  A    between atoms: C_8  and  N_9
REMARK    6  A    between atoms: C_15  and  C_16
REMARK                            x       y       z     vdW  Elec       q    Type
REMARK                         _______ _______ _______ _____ _____    ______ ____
ROOT
ATOM      1  N   UNL     1      44.458   6.343  11.409  0.00  0.00    +0.000 N 
ATOM      2  N   UNL     1      43.515   7.244  11.038  0.00  0.00    +0.000 NA
ATOM      3  C   UNL     1      44.043   8.420  11.406  0.00  0.00    +0.000 A 
ATOM      4  C   UNL     1      45.297   8.278  12.026  0.00  0.00    +0.000 A 
ATOM      5  N   UNL     1      46.130   9.194  12.574  0.00  0.00    +0.000 NA
ATOM      6  C   UNL     1      47.255   8.668  13.125  0.00  0.00    +0.000 A 
ATOM      7  C   UNL     1      47.602   7.317  13.148  0.00  0.00    +0.000 A 
ATOM      8  C   UNL     1      46.733   6.390  12.560  0.00  0.00    +0.000 A 
ATOM      9  C   UNL     1      45.558   6.916  12.007  0.00  0.00    +0.000 A 
ENDROOT
BRANCH   7  10
ATOM     10  C   UNL     1      48.869   6.931  13.820  0.00  0.00    +0.000 C 
ATOM     11  N   UNL     1      50.051   7.343  13.276  0.00  0.00    +0.000 N 
ATOM     12  O   UNL     1      48.865   6.251  14.837  0.00  0.00    +0.000 OA
ATOM     13  H   UNL     1      50.162   7.889  12.437  0.00  0.00    +0.000 HD
ATOM     14  H   UNL     1      50.895   7.048  13.753  0.00  0.00    +0.000 HD
ENDBRANCH   7  10
BRANCH   1  15
ATOM     15  C   UNL     1      44.154   4.918  11.342  0.00  0.00    +0.000 C 
BRANCH  15  19
ATOM     16  C   UNL     1      45.883   2.935   7.894  0.00  0.00    +0.000 A 
ATOM     17  C   UNL     1      46.000   4.323   8.047  0.00  0.00    +0.000 A 
ATOM     18  C   UNL     1      45.450   4.968   9.158  0.00  0.00    +0.000 A 
ATOM     19  C   UNL     1      44.769   4.240  10.143  0.00  0.00    +0.000 A 
ATOM     20  C   UNL     1      44.670   2.848   9.998  0.00  0.00    +0.000 A 
ATOM     21  C   UNL     1      45.229   2.202   8.891  0.00  0.00    +0.000 A 
BRANCH  16  22
ATOM     22  C   UNL     1      46.428   2.249   6.664  0.00  0.00    +0.000 C 
BRANCH  22  23
ATOM     23  C   UNL     1      47.859   1.731   6.846  0.00  0.00    +0.000 C 
BRANCH  23  24
ATOM     24  N   UNL     1      48.594   1.779   5.581  0.00  0.00    +0.000 NA
ATOM     25  H   UNL     1      48.132   2.425   4.943  0.00  0.00    +0.000 HD
ATOM     26  H   UNL     1      48.566   0.865   5.130  0.00  0.00    +0.000 HD
ENDBRANCH  23  24
ENDBRANCH  22  23
ENDBRANCH  16  22
ENDBRANCH  15  19
ENDBRANCH   1  15
TORSDOF 6
ENDMDL
MODEL 4
REMARK VINA RESULT:    -6.595      2.522      6.969
REMARK INTER + INTRA:          -9.317
REMARK INTER:                  -8.728
REMARK INTRA:                  -0.589
REMARK UNBOUND:                -0.601
REMARK  Name = 
REMARK  6 active torsions:
REMARK  status: ('A' for Active; 'I' for Inactive)
REMARK    1  A    between atoms: N_1  and  C_2
REMARK    2  A    between atoms: C_2  and  C_3
REMARK    3  A    between atoms: C_3  and  C_4
REMARK    4  A    between atoms: C_7  and  C_8
REMARK    5  A    between atoms: C_8  and  N_9
REMARK    6  A    between atoms: C_15  and  C_16
REMARK                            x       y       z     vdW  Elec       q    Type
REMARK                         _______ _______ _______ _____ _____    ______ ____
ROOT
ATOM      1  N   UNL     1      44.385   5.621  11.372  0.00  0.00    +0.000 N 
ATOM      2  N   UNL     1      43.423   5.240  12.250  0.00  0.00    +0.000 NA
ATOM      3  C   UNL     1      43.130   3.988  11.870  0.00  0.00    +0.000 A 
ATOM      4  C   UNL     1      43.873   3.577  10.749  0.00  0.00    +0.000 A 
ATOM      5  N   UNL     1      43.850   2.426  10.036  0.00  0.00    +0.000 NA
ATOM      6  C   UNL     1      44.698   2.408   8.976  0.00  0.00    +0.000 A 
ATOM      7  C   UNL     1      45.564   3.435   8.601  0.00  0.00    +0.000 A 
ATOM      8  C   UNL     1      45.584   4.609   9.363  0.00  0.00    +0.000 A 
ATOM      9  C   UNL     1      44.697   4.651  10.447  0.00  0.00    +0.000 A 
ENDROOT
BRANCH   7  10
ATOM     10  C   UNL     1      46.404   3.236   7.392  0.00  0.00    +0.000 C 
ATOM     11  N   UNL     1      47.101   2.070   7.263  0.00  0.00    +0.000 N 
ATOM     12  O   UNL     1      46.483   4.097   6.526  0.00  0.00    +0.000 OA
ATOM     13  H   UNL     1      47.117   1.309   7.924  0.00  0.00    +0.000 HD
ATOM     14  H   UNL     1      47.675   1.977   6.433  0.00  0.00    +0.000 HD
ENDBRANCH   7  10
BRANCH   1  15
ATOM     15  C   UNL     1      44.826   7.012  11.351  0.00  0.00    +0.000 C 
BRANCH  15  19
ATOM     16  C   UNL     1      48.251   7.752  13.905  0.00  0.00    +0.000 A 
ATOM     17  C   UNL     1      48.209   6.615  13.088  0.00  0.00    +0.000 A 
ATOM     18  C   UNL     1      47.110   6.372  12.259  0.00  0.00    +0.000 A 
ATOM     19  C   UNL     1      46.028   7.263  12.227  0.00  0.00    +0.000 A 
ATOM     20  C   UNL     1      46.082   8.411  13.031  0.00  0.00    +0.000 A 
ATOM     21  C   UNL     1      47.185   8.658  13.853  0.00  0.00    +0.000 A 
BRANCH  16  22
ATOM     22  C   UNL     1      49.414   7.982  14.842  0.00  0.00    +0.000 C 
BRANCH  22  23
ATOM     23  C   UNL     1      49.606   6.849  15.855  0.00  0.00    +0.000 C 
BRANCH  23  24
ATOM     24  N   UNL     1      48.463   6.764  16.765  0.00  0.00    +0.000 NA
ATOM     25  H   UNL     1      48.219   7.697  17.093  0.00  0.00    +0.000 HD
ATOM     26  H   UNL     1      48.720   6.229  17.594  0.00  0.00    +0.000 HD
ENDBRANCH  23  24
ENDBRANCH  22  23
ENDBRANCH  16  22
ENDBRANCH  15  19
ENDBRANCH   1  15
TORSDOF 6
ENDMDL
MODEL 5
REMARK VINA RESULT:    -6.555      1.717      2.343
REMARK INTER + INTRA:          -9.264
REMARK INTER:                  -8.606
REMARK INTRA:                  -0.658
REMARK UNBOUND:                -0.601
REMARK  Name = 
REMARK  6 active torsions:
REMARK  status: ('A' for Active; 'I' for Inactive)
REMARK    1  A    between atoms: N_1  and  C_2
REMARK    2  A    between atoms: C_2  and  C_3
REMARK    3  A    between atoms: C_3  and  C_4
REMARK    4  A    between atoms: C_7  and  C_8
REMARK    5  A    between atoms: C_8  and  N_9
REMARK    6  A    between atoms: C_15  and  C_16
REMARK                            x       y       z     vdW  Elec       q    Type
REMARK                         _______ _______ _______ _____ _____    ______ ____
ROOT
ATOM      1  N   UNL     1      45.747   5.589  13.296  0.00  0.00    +0.000 N 
ATOM      2  N   UNL     1      45.830   4.547  14.160  0.00  0.00    +0.000 NA
ATOM      3  C   UNL     1      47.028   4.715  14.738  0.00  0.00    +0.000 A 
ATOM      4  C   UNL     1      47.716   5.835  14.239  0.00  0.00    +0.000 A 
ATOM      5  N   UNL     1      48.949   6.322  14.518  0.00  0.00    +0.000 NA
ATOM      6  C   UNL     1      49.293   7.419  13.795  0.00  0.00    +0.000 A 
ATOM      7  C   UNL     1      48.496   8.058  12.845  0.00  0.00    +0.000 A 
ATOM      8  C   UNL     1      47.219   7.547  12.585  0.00  0.00    +0.000 A 
ATOM      9  C   UNL     1      46.859   6.402  13.308  0.00  0.00    +0.000 A 
ENDROOT
BRANCH   7  10
ATOM     10  C   UNL     1      49.058   9.237  12.139  0.00  0.00    +0.000 C 
ATOM     11  N   UNL     1      50.362   9.573  12.360  0.00  0.00    +0.000 N 
ATOM     12  O   UNL     1      48.373   9.905  11.376  0.00  0.00    +0.000 OA
ATOM     13  H   UNL     1      51.003   9.100  12.978  0.00  0.00    +0.000 HD
ATOM     14  H   UNL     1      50.706  10.393  11.873  0.00  0.00    +0.000 HD
ENDBRANCH   7  10
BRANCH   1  15
ATOM     15  C   UNL     1      44.650   5.639  12.336  0.00  0.00    +0.000 C 
BRANCH  15  19
ATOM     16  C   UNL     1      45.469   3.485   8.663  0.00  0.00    +0.000 A 
ATOM     17  C   UNL     1      45.879   4.817   8.810  0.00  0.00    +0.000 A 
ATOM     18  C   UNL     1      45.622   5.516   9.993  0.00  0.00    +0.000 A 
ATOM     19  C   UNL     1      44.950   4.898  11.057  0.00  0.00    +0.000 A 
ATOM     20  C   UNL     1      44.559   3.559  10.915  0.00  0.00    +0.000 A 
ATOM     21  C   UNL     1      44.824   2.857   9.735  0.00  0.00    +0.000 A 
BRANCH  16  22
ATOM     22  C   UNL     1      45.697   2.750   7.362  0.00  0.00    +0.000 C 
BRANCH  22  23
ATOM     23  C   UNL     1      46.960   1.883   7.372  0.00  0.00    +0.000 C 
BRANCH  23  24
ATOM     24  N   UNL     1      46.653   0.522   7.813  0.00  0.00    +0.000 NA
ATOM     25  H   UNL     1      46.597   0.498   8.830  0.00  0.00    +0.000 HD
ATOM     26  H   UNL     1      47.416  -0.105   7.556  0.00  0.00    +0.000 HD
ENDBRANCH  23  24
ENDBRANCH  22  23
ENDBRANCH  16  22
ENDBRANCH  15  19
ENDBRANCH   1  15
TORSDOF 6
ENDMDL
MODEL 6
REMARK VINA RESULT:    -6.326      2.904      4.333
REMARK INTER + INTRA:          -8.962
REMARK INTER:                  -8.889
REMARK INTRA:                  -0.073
REMARK UNBOUND:                -0.601
REMARK  Name = 
REMARK  6 active torsions:
REMARK  status: ('A' for Active; 'I' for Inactive)
REMARK    1  A    between atoms: N_1  and  C_2
REMARK    2  A    between atoms: C_2  and  C_3
REMARK    3  A    between atoms: C_3  and  C_4
REMARK    4  A    between atoms: C_7  and  C_8
REMARK    5  A    between atoms: C_8  and  N_9
REMARK    6  A    between atoms: C_15  and  C_16
REMARK                            x       y       z     vdW  Elec       q    Type
REMARK                         _______ _______ _______ _____ _____    ______ ____
ROOT
ATOM      1  N   UNL     1      46.548   5.717  13.388  0.00  0.00    +0.000 N 
ATOM      2  N   UNL     1      47.056   6.809  12.764  0.00  0.00    +0.000 NA
ATOM      3  C   UNL     1      48.100   7.151  13.533  0.00  0.00    +0.000 A 
ATOM      4  C   UNL     1      48.248   6.307  14.648  0.00  0.00    +0.000 A 
ATOM      5  N   UNL     1      49.130   6.332  15.675  0.00  0.00    +0.000 NA
ATOM      6  C   UNL     1      48.936   5.359  16.603  0.00  0.00    +0.000 A 
ATOM      7  C   UNL     1      47.950   4.373  16.563  0.00  0.00    +0.000 A 
ATOM      8  C   UNL     1      47.060   4.357  15.483  0.00  0.00    +0.000 A 
ATOM      9  C   UNL     1      47.234   5.368  14.529  0.00  0.00    +0.000 A 
ENDROOT
BRANCH   7  10
ATOM     10  C   UNL     1      47.881   3.406  17.687  0.00  0.00    +0.000 C 
ATOM     11  N   UNL     1      46.801   2.576  17.773  0.00  0.00    +0.000 N 
ATOM     12  O   UNL     1      48.768   3.349  18.529  0.00  0.00    +0.000 OA
ATOM     13  H   UNL     1      46.014   2.555  17.144  0.00  0.00    +0.000 HD
ATOM     14  H   UNL     1      46.782   1.940  18.562  0.00  0.00    +0.000 HD
ENDBRANCH   7  10
BRANCH   1  15
ATOM     15  C   UNL     1      45.272   5.167  12.943  0.00  0.00    +0.000 C 
BRANCH  15  19
ATOM     16  C   UNL     1      45.320   3.753   8.845  0.00  0.00    +0.000 A 
ATOM     17  C   UNL     1      45.627   5.088   9.137  0.00  0.00    +0.000 A 
ATOM     18  C   UNL     1      45.618   5.550  10.457  0.00  0.00    +0.000 A 
ATOM     19  C   UNL     1      45.302   4.686  11.514  0.00  0.00    +0.000 A 
ATOM     20  C   UNL     1      45.015   3.345  11.220  0.00  0.00    +0.000 A 
ATOM     21  C   UNL     1      45.033   2.881   9.902  0.00  0.00    +0.000 A 
BRANCH  16  22
ATOM     22  C   UNL     1      45.274   3.271   7.413  0.00  0.00    +0.000 C 
BRANCH  22  23
ATOM     23  C   UNL     1      46.517   2.473   7.005  0.00  0.00    +0.000 C 
BRANCH  23  24
ATOM     24  N   UNL     1      47.680   3.353   6.874  0.00  0.00    +0.000 NA
ATOM     25  H   UNL     1      48.256   3.281   7.711  0.00  0.00    +0.000 HD
ATOM     26  H   UNL     1      47.374   4.324   6.821  0.00  0.00    +0.000 HD
ENDBRANCH  23  24
ENDBRANCH  22  23
ENDBRANCH  16  22
ENDBRANCH  15  19
ENDBRANCH   1  15
TORSDOF 6
ENDMDL
MODEL 7
REMARK VINA RESULT:    -6.101      3.517      7.674
REMARK INTER + INTRA:          -8.665
REMARK INTER:                  -8.300
REMARK INTRA:                  -0.364
REMARK UNBOUND:                -0.601
REMARK  Name = 
REMARK  6 active torsions:
REMARK  status: ('A' for Active; 'I' for Inactive)
REMARK    1  A    between atoms: N_1  and  C_2
REMARK    2  A    between atoms: C_2  and  C_3
REMARK    3  A    between atoms: C_3  and  C_4
REMARK    4  A    between atoms: C_7  and  C_8
REMARK    5  A    between atoms: C_8  and  N_9
REMARK    6  A    between atoms: C_15  and  C_16
REMARK                            x       y       z     vdW  Elec       q    Type
REMARK                         _______ _______ _______ _____ _____    ______ ____
ROOT
ATOM      1  N   UNL     1      46.524   6.725  12.844  0.00  0.00    +0.000 N 
ATOM      2  N   UNL     1      46.284   8.060  12.862  0.00  0.00    +0.000 NA
ATOM      3  C   UNL     1      45.075   8.169  12.294  0.00  0.00    +0.000 A 
ATOM      4  C   UNL     1      44.553   6.925  11.895  0.00  0.00    +0.000 A 
ATOM      5  N   UNL     1      43.403   6.604  11.256  0.00  0.00    +0.000 NA
ATOM      6  C   UNL     1      43.257   5.278  10.999  0.00  0.00    +0.000 A 
ATOM      7  C   UNL     1      44.159   4.272  11.347  0.00  0.00    +0.000 A 
ATOM      8  C   UNL     1      45.333   4.626  12.022  0.00  0.00    +0.000 A 
ATOM      9  C   UNL     1      45.507   5.993  12.274  0.00  0.00    +0.000 A 
ENDROOT
BRANCH   7  10
ATOM     10  C   UNL     1      43.834   2.876  10.959  0.00  0.00    +0.000 C 
ATOM     11  N   UNL     1      44.487   2.322   9.897  0.00  0.00    +0.000 N 
ATOM     12  O   UNL     1      42.993   2.228  11.568  0.00  0.00    +0.000 OA
ATOM     13  H   UNL     1      45.181   2.775   9.322  0.00  0.00    +0.000 HD
ATOM     14  H   UNL     1      44.228   1.374   9.651  0.00  0.00    +0.000 HD
ENDBRANCH   7  10
BRANCH   1  15
ATOM     15  C   UNL     1      47.846   6.229  13.212  0.00  0.00    +0.000 C 
BRANCH  15  19
ATOM     16  C   UNL     1      47.956   4.422  17.151  0.00  0.00    +0.000 A 
ATOM     17  C   UNL     1      48.648   5.613  16.899  0.00  0.00    +0.000 A 
ATOM     18  C   UNL     1      48.613   6.204  15.632  0.00  0.00    +0.000 A 
ATOM     19  C   UNL     1      47.884   5.617  14.589  0.00  0.00    +0.000 A 
ATOM     20  C   UNL     1      47.176   4.435  14.850  0.00  0.00    +0.000 A 
ATOM     21  C   UNL     1      47.204   3.849  16.119  0.00  0.00    +0.000 A 
BRANCH  16  22
ATOM     22  C   UNL     1      48.042   3.755  18.505  0.00  0.00    +0.000 C 
BRANCH  22  23
ATOM     23  C   UNL     1      48.665   4.651  19.580  0.00  0.00    +0.000 C 
BRANCH  23  24
ATOM     24  N   UNL     1      48.459   4.083  20.914  0.00  0.00    +0.000 NA
ATOM     25  H   UNL     1      48.885   3.158  20.959  0.00  0.00    +0.000 HD
ATOM     26  H   UNL     1      47.463   3.945  21.081  0.00  0.00    +0.000 HD
ENDBRANCH  23  24
ENDBRANCH  22  23
ENDBRANCH  16  22
ENDBRANCH  15  19
ENDBRANCH   1  15
TORSDOF 6
ENDMDL
MODEL 8
REMARK VINA RESULT:    -5.898      4.079      6.114
REMARK INTER + INTRA:          -8.395
REMARK INTER:                  -7.986
REMARK INTRA:                  -0.410
REMARK UNBOUND:                -0.601
REMARK  Name = 
REMARK  6 active torsions:
REMARK  status: ('A' for Active; 'I' for Inactive)
REMARK    1  A    between atoms: N_1  and  C_2
REMARK    2  A    between atoms: C_2  and  C_3
REMARK    3  A    between atoms: C_3  and  C_4
REMARK    4  A    between atoms: C_7  and  C_8
REMARK    5  A    between atoms: C_8  and  N_9
REMARK    6  A    between atoms: C_15  and  C_16
REMARK                            x       y       z     vdW  Elec       q    Type
REMARK                         _______ _______ _______ _____ _____    ______ ____
ROOT
ATOM      1  N   UNL     1      48.843   7.282  14.654  0.00  0.00    +0.000 N 
ATOM      2  N   UNL     1      49.129   8.596  14.830  0.00  0.00    +0.000 NA
ATOM      3  C   UNL     1      49.079   8.753  16.160  0.00  0.00    +0.000 A 
ATOM      4  C   UNL     1      48.743   7.564  16.831  0.00  0.00    +0.000 A 
ATOM      5  N   UNL     1      48.548   7.307  18.146  0.00  0.00    +0.000 NA
ATOM      6  C   UNL     1      48.189   6.025  18.418  0.00  0.00    +0.000 A 
ATOM      7  C   UNL     1      48.034   5.002  17.483  0.00  0.00    +0.000 A 
ATOM      8  C   UNL     1      48.258   5.287  16.131  0.00  0.00    +0.000 A 
ATOM      9  C   UNL     1      48.607   6.611  15.833  0.00  0.00    +0.000 A 
ENDROOT
BRANCH   7  10
ATOM     10  C   UNL     1      47.613   3.664  17.972  0.00  0.00    +0.000 C 
ATOM     11  N   UNL     1      48.253   3.131  19.053  0.00  0.00    +0.000 N 
ATOM     12  O   UNL     1      46.716   3.041  17.421  0.00  0.00    +0.000 OA
ATOM     13  H   UNL     1      49.011   3.554  19.566  0.00  0.00    +0.000 HD
ATOM     14  H   UNL     1      47.950   2.210  19.349  0.00  0.00    +0.000 HD
ENDBRANCH   7  10
BRANCH   1  15
ATOM     15  C   UNL     1      48.616   6.771  13.307  0.00  0.00    +0.000 C 
BRANCH  15  19
ATOM     16  C   UNL     1      44.626   5.175  12.728  0.00  0.00    +0.000 A 
ATOM     17  C   UNL     1      45.714   4.313  12.916  0.00  0.00    +0.000 A 
ATOM     18  C   UNL     1      47.002   4.820  13.108  0.00  0.00    +0.000 A 
ATOM     19  C   UNL     1      47.232   6.203  13.117  0.00  0.00    +0.000 A 
ATOM     20  C   UNL     1      46.138   7.064  12.949  0.00  0.00    +0.000 A 
ATOM     21  C   UNL     1      44.848   6.556  12.766  0.00  0.00    +0.000 A 
BRANCH  16  22
ATOM     22  C   UNL     1      43.245   4.623  12.463  0.00  0.00    +0.000 C 
BRANCH  22  23
ATOM     23  C   UNL     1      43.199   3.652  11.279  0.00  0.00    +0.000 C 
BRANCH  23  24
ATOM     24  N   UNL     1      43.053   2.271  11.742  0.00  0.00    +0.000 NA
ATOM     25  H   UNL     1      42.067   2.013  11.736  0.00  0.00    +0.000 HD
ATOM     26  H   UNL     1      43.360   2.198  12.712  0.00  0.00    +0.000 HD
ENDBRANCH  23  24
ENDBRANCH  22  23
ENDBRANCH  16  22
ENDBRANCH  15  19
ENDBRANCH   1  15
TORSDOF 6
ENDMDL
MODEL 9
REMARK VINA RESULT:    -5.691      3.628      6.330
REMARK INTER + INTRA:          -8.123
REMARK INTER:                  -7.472
REMARK INTRA:                  -0.651
REMARK UNBOUND:                -0.601
REMARK  Name = 
REMARK  6 active torsions:
REMARK  status: ('A' for Active; 'I' for Inactive)
REMARK    1  A    between atoms: N_1  and  C_2
REMARK    2  A    between atoms: C_2  and  C_3
REMARK    3  A    between atoms: C_3  and  C_4
REMARK    4  A    between atoms: C_7  and  C_8
REMARK    5  A    between atoms: C_8  and  N_9
REMARK    6  A    between atoms: C_15  and  C_16
REMARK                            x       y       z     vdW  Elec       q    Type
REMARK                         _______ _______ _______ _____ _____    ______ ____
ROOT
ATOM      1  N   UNL     1      47.528   6.196  13.830  0.00  0.00    +0.000 N 
ATOM      2  N   UNL     1      47.951   5.526  14.932  0.00  0.00    +0.000 NA
ATOM      3  C   UNL     1      47.360   4.329  14.816  0.00  0.00    +0.000 A 
ATOM      4  C   UNL     1      46.550   4.235  13.670  0.00  0.00    +0.000 A 
ATOM      5  N   UNL     1      45.761   3.234  13.214  0.00  0.00    +0.000 NA
ATOM      6  C   UNL     1      45.087   3.528  12.072  0.00  0.00    +0.000 A 
ATOM      7  C   UNL     1      45.163   4.726  11.361  0.00  0.00    +0.000 A 
ATOM      8  C   UNL     1      45.999   5.740  11.841  0.00  0.00    +0.000 A 
ATOM      9  C   UNL     1      46.684   5.459  13.031  0.00  0.00    +0.000 A 
ENDROOT
BRANCH   7  10
ATOM     10  C   UNL     1      44.330   4.869  10.140  0.00  0.00    +0.000 C 
ATOM     11  N   UNL     1      44.924   4.723   8.920  0.00  0.00    +0.000 N 
ATOM     12  O   UNL     1      43.134   5.121  10.215  0.00  0.00    +0.000 OA
ATOM     13  H   UNL     1      45.899   4.532   8.752  0.00  0.00    +0.000 HD
ATOM     14  H   UNL     1      44.327   4.843   8.110  0.00  0.00    +0.000 HD
ENDBRANCH   7  10
BRANCH   1  15
ATOM     15  C   UNL     1      47.816   7.621  13.704  0.00  0.00    +0.000 C 
BRANCH  15  19
ATOM     16  C   UNL     1      51.694   8.433  11.941  0.00  0.00    +0.000 A 
ATOM     17  C   UNL     1      51.469   8.677  13.302  0.00  0.00    +0.000 A 
ATOM     18  C   UNL     1      50.222   8.413  13.878  0.00  0.00    +0.000 A 
ATOM     19  C   UNL     1      49.173   7.898  13.106  0.00  0.00    +0.000 A 
ATOM     20  C   UNL     1      49.406   7.636  11.748  0.00  0.00    +0.000 A 
ATOM     21  C   UNL     1      50.656   7.892  11.174  0.00  0.00    +0.000 A 
BRANCH  16  22
ATOM     22  C   UNL     1      53.023   8.773  11.309  0.00  0.00    +0.000 C 
BRANCH  22  23
ATOM     23  C   UNL     1      53.557   7.667  10.394  0.00  0.00    +0.000 C 
BRANCH  23  24
ATOM     24  N   UNL     1      54.033   6.527  11.178  0.00  0.00    +0.000 NA
ATOM     25  H   UNL     1      53.391   5.744  11.064  0.00  0.00    +0.000 HD
ATOM     26  H   UNL     1      54.023   6.761  12.170  0.00  0.00    +0.000 HD
ENDBRANCH  23  24
ENDBRANCH  22  23
ENDBRANCH  16  22
ENDBRANCH  15  19
ENDBRANCH   1  15
TORSDOF 6
ENDMDL
