MODEL 1
REMARK VINA RESULT:    -8.193      0.000      0.000
REMARK INTER + INTRA:         -12.570
REMARK INTER:                 -11.546
REMARK INTRA:                  -1.025
REMARK UNBOUND:                -1.025
REMARK  Name = 
REMARK  7 active torsions:
REMARK  status: ('A' for Active; 'I' for Inactive)
REMARK    1  A    between atoms: C_2  and  C_3
REMARK    2  A    between atoms: C_5  and  C_6
REMARK    3  A    between atoms: C_6  and  N_7
REMARK    4  A    between atoms: C_8  and  C_10
REMARK    5  A    between atoms: C_17  and  C_18
REMARK    6  A    between atoms: C_18  and  N_19
REMARK    7  A    between atoms: C_20  and  C_22
REMARK                            x       y       z     vdW  Elec       q    Type
REMARK                         _______ _______ _______ _____ _____    ______ ____
ROOT
ATOM      1  C   UNL     1      45.285   8.099  12.040  0.00  0.00    +0.000 A 
ATOM      2  C   UNL     1      44.521   7.257  11.215  0.00  0.00    +0.000 A 
ATOM      3  C   UNL     1      44.799   5.886  11.126  0.00  0.00    +0.000 A 
ATOM      4  C   UNL     1      45.865   5.364  11.868  0.00  0.00    +0.000 A 
ATOM      5  C   UNL     1      46.625   6.195  12.695  0.00  0.00    +0.000 A 
ATOM      6  C   UNL     1      46.357   7.571  12.784  0.00  0.00    +0.000 A 
ENDROOT
BRANCH   1   8
ATOM      7  N   UNL     1      44.656  10.619  12.122  0.00  0.00    +0.000 NA
ATOM      8  C   UNL     1      44.945   9.496  12.084  0.00  0.00    +0.000 C 
ENDBRANCH   1   8
BRANCH   3   9
ATOM      9  C   UNL     1      43.972   5.001  10.230  0.00  0.00    +0.000 C 
BRANCH   9  10
ATOM     10  N   UNL     1      44.767   4.403   9.190  0.00  0.00    +0.000 N 
ATOM     11  C   UNL     1      44.961   3.045   9.073  0.00  0.00    +0.000 C 
ATOM     12  O   UNL     1      44.442   2.232   9.832  0.00  0.00    +0.000 OA
ATOM     13  H   UNL     1      45.181   4.990   8.476  0.00  0.00    +0.000 HD
BRANCH  11  14
ATOM     14  C   UNL     1      45.841   2.680   7.980  0.00  0.00    +0.000 A 
ATOM     15  C   UNL     1      46.183   3.344   6.817  0.00  0.00    +0.000 A 
ATOM     16  C   UNL     1      47.065   2.496   6.105  0.00  0.00    +0.000 A 
ATOM     17  C   UNL     1      47.209   1.364   6.871  0.00  0.00    +0.000 A 
ATOM     18  O   UNL     1      46.480   1.465   8.012  0.00  0.00    +0.000 OA
ENDBRANCH  11  14
ENDBRANCH   9  10
ENDBRANCH   3   9
BRANCH   6  19
ATOM     19  C   UNL     1      47.219   8.415  13.692  0.00  0.00    +0.000 C 
BRANCH  19  20
ATOM     20  N   UNL     1      47.690   7.667  14.828  0.00  0.00    +0.000 N 
ATOM     21  C   UNL     1      48.984   7.235  14.966  0.00  0.00    +0.000 C 
ATOM     22  O   UNL     1      49.832   7.418  14.097  0.00  0.00    +0.000 OA
ATOM     23  H   UNL     1      46.987   7.355  15.488  0.00  0.00    +0.000 HD
BRANCH  21  24
ATOM     24  C   UNL     1      49.324   6.604  16.250  0.00  0.00    +0.000 A 
ATOM     25  C   UNL     1      50.211   7.230  17.115  0.00  0.00    +0.000 A 
ATOM     26  S   UNL     1      50.422   6.407  18.596  0.00  0.00    +0.000 S 
ATOM     27  C   UNL     1      49.366   5.163  18.119  0.00  0.00    +0.000 A 
ATOM     28  N   UNL     1      49.092   4.120  18.948  0.00  0.00    +0.000 NA
ATOM     29  C   UNL     1      48.285   3.242  18.453  0.00  0.00    +0.000 A 
ATOM     30  N   UNL     1      47.733   3.307  17.200  0.00  0.00    +0.000 N 
ATOM     31  C   UNL     1      47.974   4.344  16.333  0.00  0.00    +0.000 A 
ATOM     32  O   UNL     1      47.450   4.382  15.224  0.00  0.00    +0.000 OA
ATOM     33  C   UNL     1      48.864   5.369  16.845  0.00  0.00    +0.000 A 
ATOM     34  H   UNL     1      47.106   2.588  16.871  0.00  0.00    +0.000 HD
ENDBRANCH  21  24
ENDBRANCH  19  20
ENDBRANCH   6  19
TORSDOF 7
ENDMDL
MODEL 2
REMARK VINA RESULT:    -7.603      2.447      3.671
REMARK INTER + INTRA:         -11.739
REMARK INTER:                 -10.839
REMARK INTRA:                  -0.899
REMARK UNBOUND:                -1.025
REMARK  Name = 
REMARK  7 active torsions:
REMARK  status: ('A' for Active; 'I' for Inactive)
REMARK    1  A    between atoms: C_2  and  C_3
REMARK    2  A    between atoms: C_5  and  C_6
REMARK    3  A    between atoms: C_6  and  N_7
REMARK    4  A    between atoms: C_8  and  C_10
REMARK    5  A    between atoms: C_17  and  C_18
REMARK    6  A    between atoms: C_18  and  N_19
REMARK    7  A    between atoms: C_20  and  C_22
REMARK                            x       y       z     vdW  Elec       q    Type
REMARK                         _______ _______ _______ _____ _____    ______ ____
ROOT
ATOM      1  C   UNL     1      46.941   5.155  13.686  0.00  0.00    +0.000 A 
ATOM      2  C   UNL     1      45.969   4.798  12.738  0.00  0.00    +0.000 A 
ATOM      3  C   UNL     1      45.756   5.577  11.591  0.00  0.00    +0.000 A 
ATOM      4  C   UNL     1      46.524   6.732  11.409  0.00  0.00    +0.000 A 
ATOM      5  C   UNL     1      47.496   7.091  12.346  0.00  0.00    +0.000 A 
ATOM      6  C   UNL     1      47.711   6.319  13.499  0.00  0.00    +0.000 A 
ENDROOT
BRANCH   1   8
ATOM      7  N   UNL     1      47.225   3.630  15.771  0.00  0.00    +0.000 NA
ATOM      8  C   UNL     1      47.107   4.311  14.839  0.00  0.00    +0.000 C 
ENDBRANCH   1   8
BRANCH   3   9
ATOM      9  C   UNL     1      44.703   5.180  10.590  0.00  0.00    +0.000 C 
BRANCH   9  10
ATOM     10  N   UNL     1      45.279   4.542   9.435  0.00  0.00    +0.000 N 
ATOM     11  C   UNL     1      45.208   3.187   9.207  0.00  0.00    +0.000 C 
ATOM     12  O   UNL     1      44.618   2.415   9.958  0.00  0.00    +0.000 OA
ATOM     13  H   UNL     1      45.729   5.106   8.724  0.00  0.00    +0.000 HD
BRANCH  11  14
ATOM     14  C   UNL     1      45.905   2.766   8.007  0.00  0.00    +0.000 A 
ATOM     15  C   UNL     1      46.085   3.388   6.785  0.00  0.00    +0.000 A 
ATOM     16  C   UNL     1      46.830   2.495   5.977  0.00  0.00    +0.000 A 
ATOM     17  C   UNL     1      47.061   1.382   6.749  0.00  0.00    +0.000 A 
ATOM     18  O   UNL     1      46.514   1.535   7.982  0.00  0.00    +0.000 OA
ENDBRANCH  11  14
ENDBRANCH   9  10
ENDBRANCH   3   9
BRANCH   6  19
ATOM     19  C   UNL     1      48.774   6.763  14.476  0.00  0.00    +0.000 C 
BRANCH  19  20
ATOM     20  N   UNL     1      48.256   6.868  15.815  0.00  0.00    +0.000 N 
ATOM     21  C   UNL     1      48.957   6.483  16.930  0.00  0.00    +0.000 C 
ATOM     22  O   UNL     1      50.072   5.974  16.859  0.00  0.00    +0.000 OA
ATOM     23  H   UNL     1      47.281   7.130  15.906  0.00  0.00    +0.000 HD
BRANCH  21  24
ATOM     24  C   UNL     1      48.333   6.786  18.226  0.00  0.00    +0.000 A 
ATOM     25  C   UNL     1      48.117   5.769  19.145  0.00  0.00    +0.000 A 
ATOM     26  S   UNL     1      47.469   6.309  20.629  0.00  0.00    +0.000 S 
ATOM     27  C   UNL     1      47.416   7.918  20.083  0.00  0.00    +0.000 A 
ATOM     28  N   UNL     1      46.959   8.916  20.887  0.00  0.00    +0.000 NA
ATOM     29  C   UNL     1      46.962  10.086  20.340  0.00  0.00    +0.000 A 
ATOM     30  N   UNL     1      47.370  10.348  19.058  0.00  0.00    +0.000 N 
ATOM     31  C   UNL     1      47.846   9.374  18.215  0.00  0.00    +0.000 A 
ATOM     32  O   UNL     1      48.221   9.644  17.078  0.00  0.00    +0.000 OA
ATOM     33  C   UNL     1      47.880   8.041  18.785  0.00  0.00    +0.000 A 
ATOM     34  H   UNL     1      47.350  11.287  18.688  0.00  0.00    +0.000 HD
ENDBRANCH  21  24
ENDBRANCH  19  20
ENDBRANCH   6  19
TORSDOF 7
ENDMDL
MODEL 3
REMARK VINA RESULT:    -7.523      1.736      2.242
REMARK INTER + INTRA:         -11.626
REMARK INTER:                 -10.570
REMARK INTRA:                  -1.056
REMARK UNBOUND:                -1.025
REMARK  Name = 
REMARK  7 active torsions:
REMARK  status: ('A' for Active; 'I' for Inactive)
REMARK    1  A    between atoms: C_2  and  C_3
REMARK    2  A    between atoms: C_5  and  C_6
REMARK    3  A    between atoms: C_6  and  N_7
REMARK    4  A    between atoms: C_8  and  C_10
REMARK    5  A    between atoms: C_17  and  C_18
REMARK    6  A    between atoms: C_18  and  N_19
REMARK    7  A    between atoms: C_20  and  C_22
REMARK                            x       y       z     vdW  Elec       q    Type
REMARK                         _______ _______ _______ _____ _____    ______ ____
ROOT
ATOM      1  C   UNL     1      45.389   8.133  12.103  0.00  0.00    +0.000 A 
ATOM      2  C   UNL     1      44.610   7.262  11.326  0.00  0.00    +0.000 A 
ATOM      3  C   UNL     1      44.906   5.893  11.257  0.00  0.00    +0.000 A 
ATOM      4  C   UNL     1      46.006   5.405  11.971  0.00  0.00    +0.000 A 
ATOM      5  C   UNL     1      46.783   6.265  12.750  0.00  0.00    +0.000 A 
ATOM      6  C   UNL     1      46.496   7.639  12.819  0.00  0.00    +0.000 A 
ENDROOT
BRANCH   1   8
ATOM      7  N   UNL     1      44.747  10.652  12.135  0.00  0.00    +0.000 NA
ATOM      8  C   UNL     1      45.029   9.526  12.129  0.00  0.00    +0.000 C 
ENDBRANCH   1   8
BRANCH   3   9
ATOM      9  C   UNL     1      44.061   4.976  10.412  0.00  0.00    +0.000 C 
BRANCH   9  10
ATOM     10  N   UNL     1      44.859   4.222   9.481  0.00  0.00    +0.000 N 
ATOM     11  C   UNL     1      44.789   2.853   9.361  0.00  0.00    +0.000 C 
ATOM     12  O   UNL     1      44.013   2.167  10.021  0.00  0.00    +0.000 OA
ATOM     13  H   UNL     1      45.481   4.709   8.846  0.00  0.00    +0.000 HD
BRANCH  11  14
ATOM     14  C   UNL     1      45.724   2.310   8.396  0.00  0.00    +0.000 A 
ATOM     15  C   UNL     1      46.431   2.906   7.368  0.00  0.00    +0.000 A 
ATOM     16  C   UNL     1      47.173   1.880   6.733  0.00  0.00    +0.000 A 
ATOM     17  C   UNL     1      46.875   0.720   7.406  0.00  0.00    +0.000 A 
ATOM     18  O   UNL     1      46.006   0.965   8.419  0.00  0.00    +0.000 OA
ENDBRANCH  11  14
ENDBRANCH   9  10
ENDBRANCH   3   9
BRANCH   6  19
ATOM     19  C   UNL     1      47.377   8.516  13.675  0.00  0.00    +0.000 C 
BRANCH  19  20
ATOM     20  N   UNL     1      47.676   7.899  14.941  0.00  0.00    +0.000 N 
ATOM     21  C   UNL     1      48.925   7.450  15.288  0.00  0.00    +0.000 C 
ATOM     22  O   UNL     1      49.878   7.503  14.515  0.00  0.00    +0.000 OA
ATOM     23  H   UNL     1      46.887   7.689  15.541  0.00  0.00    +0.000 HD
BRANCH  21  24
ATOM     24  C   UNL     1      49.082   6.971  16.670  0.00  0.00    +0.000 A 
ATOM     25  C   UNL     1      49.656   5.730  16.910  0.00  0.00    +0.000 A 
ATOM     26  S   UNL     1      49.846   5.371  18.568  0.00  0.00    +0.000 S 
ATOM     27  C   UNL     1      49.130   6.844  19.025  0.00  0.00    +0.000 A 
ATOM     28  N   UNL     1      48.987   7.176  20.337  0.00  0.00    +0.000 NA
ATOM     29  C   UNL     1      48.416   8.317  20.540  0.00  0.00    +0.000 A 
ATOM     30  N   UNL     1      47.966   9.151  19.550  0.00  0.00    +0.000 N 
ATOM     31  C   UNL     1      48.096   8.861  18.215  0.00  0.00    +0.000 A 
ATOM     32  O   UNL     1      47.699   9.639  17.352  0.00  0.00    +0.000 OA
ATOM     33  C   UNL     1      48.747   7.597  17.929  0.00  0.00    +0.000 A 
ATOM     34  H   UNL     1      47.529  10.033  19.774  0.00  0.00    +0.000 HD
ENDBRANCH  21  24
ENDBRANCH  19  20
ENDBRANCH   6  19
TORSDOF 7
ENDMDL
MODEL 4
REMARK VINA RESULT:    -7.514      1.757      2.464
REMARK INTER + INTRA:         -11.613
REMARK INTER:                 -10.553
REMARK INTRA:                  -1.061
REMARK UNBOUND:                -1.025
REMARK  Name = 
REMARK  7 active torsions:
REMARK  status: ('A' for Active; 'I' for Inactive)
REMARK    1  A    between atoms: C_2  and  C_3
REMARK    2  A    between atoms: C_5  and  C_6
REMARK    3  A    between atoms: C_6  and  N_7
REMARK    4  A    between atoms: C_8  and  C_10
REMARK    5  A    between atoms: C_17  and  C_18
REMARK    6  A    between atoms: C_18  and  N_19
REMARK    7  A    between atoms: C_20  and  C_22
REMARK                            x       y       z     vdW  Elec       q    Type
REMARK                         _______ _______ _______ _____ _____    ______ ____
ROOT
ATOM      1  C   UNL     1      46.928   6.909  12.167  0.00  0.00    +0.000 A 
ATOM      2  C   UNL     1      46.218   5.888  11.517  0.00  0.00    +0.000 A 
ATOM      3  C   UNL     1      44.865   6.048  11.182  0.00  0.00    +0.000 A 
ATOM      4  C   UNL     1      44.225   7.245  11.518  0.00  0.00    +0.000 A 
ATOM      5  C   UNL     1      44.927   8.268  12.160  0.00  0.00    +0.000 A 
ATOM      6  C   UNL     1      46.280   8.113  12.504  0.00  0.00    +0.000 A 
ENDROOT
BRANCH   1   8
ATOM      7  N   UNL     1      49.426   6.489  12.751  0.00  0.00    +0.000 NA
ATOM      8  C   UNL     1      48.313   6.679  12.482  0.00  0.00    +0.000 C 
ENDBRANCH   1   8
BRANCH   3   9
ATOM      9  C   UNL     1      44.119   4.937  10.490  0.00  0.00    +0.000 C 
BRANCH   9  10
ATOM     10  N   UNL     1      44.937   4.275   9.508  0.00  0.00    +0.000 N 
ATOM     11  C   UNL     1      44.833   2.933   9.219  0.00  0.00    +0.000 C 
ATOM     12  O   UNL     1      44.009   2.199   9.756  0.00  0.00    +0.000 OA
ATOM     13  H   UNL     1      45.601   4.813   8.965  0.00  0.00    +0.000 HD
BRANCH  11  14
ATOM     14  C   UNL     1      45.796   2.480   8.234  0.00  0.00    +0.000 A 
ATOM     15  C   UNL     1      46.348   3.108   7.133  0.00  0.00    +0.000 A 
ATOM     16  C   UNL     1      47.214   2.172   6.518  0.00  0.00    +0.000 A 
ATOM     17  C   UNL     1      47.139   1.028   7.275  0.00  0.00    +0.000 A 
ATOM     18  O   UNL     1      46.292   1.201   8.321  0.00  0.00    +0.000 OA
ENDBRANCH  11  14
ENDBRANCH   9  10
ENDBRANCH   3   9
BRANCH   6  19
ATOM     19  C   UNL     1      46.981   9.253  13.202  0.00  0.00    +0.000 C 
BRANCH  19  20
ATOM     20  N   UNL     1      47.140   8.999  14.611  0.00  0.00    +0.000 N 
ATOM     21  C   UNL     1      48.349   9.045  15.257  0.00  0.00    +0.000 C 
ATOM     22  O   UNL     1      49.401   9.263  14.662  0.00  0.00    +0.000 OA
ATOM     23  H   UNL     1      46.324   8.656  15.105  0.00  0.00    +0.000 HD
BRANCH  21  24
ATOM     24  C   UNL     1      48.310   8.894  16.719  0.00  0.00    +0.000 A 
ATOM     25  C   UNL     1      47.933   9.966  17.515  0.00  0.00    +0.000 A 
ATOM     26  S   UNL     1      47.854   9.592  19.179  0.00  0.00    +0.000 S 
ATOM     27  C   UNL     1      48.360   7.993  18.899  0.00  0.00    +0.000 A 
ATOM     28  N   UNL     1      48.496   7.111  19.927  0.00  0.00    +0.000 NA
ATOM     29  C   UNL     1      48.899   5.936  19.572  0.00  0.00    +0.000 A 
ATOM     30  N   UNL     1      49.189   5.566  18.285  0.00  0.00    +0.000 N 
ATOM     31  C   UNL     1      49.058   6.419  17.217  0.00  0.00    +0.000 A 
ATOM     32  O   UNL     1      49.308   6.050  16.074  0.00  0.00    +0.000 OA
ATOM     33  C   UNL     1      48.592   7.750  17.557  0.00  0.00    +0.000 A 
ATOM     34  H   UNL     1      49.498   4.629  18.072  0.00  0.00    +0.000 HD
ENDBRANCH  21  24
ENDBRANCH  19  20
ENDBRANCH   6  19
TORSDOF 7
ENDMDL
MODEL 5
REMARK VINA RESULT:    -7.448      3.385      5.110
REMARK INTER + INTRA:         -11.520
REMARK INTER:                 -10.474
REMARK INTRA:                  -1.046
REMARK UNBOUND:                -1.025
REMARK  Name = 
REMARK  7 active torsions:
REMARK  status: ('A' for Active; 'I' for Inactive)
REMARK    1  A    between atoms: C_2  and  C_3
REMARK    2  A    between atoms: C_5  and  C_6
REMARK    3  A    between atoms: C_6  and  N_7
REMARK    4  A    between atoms: C_8  and  C_10
REMARK    5  A    between atoms: C_17  and  C_18
REMARK    6  A    between atoms: C_18  and  N_19
REMARK    7  A    between atoms: C_20  and  C_22
REMARK                            x       y       z     vdW  Elec       q    Type
REMARK                         _______ _______ _______ _____ _____    ______ ____
ROOT
ATOM      1  C   UNL     1      46.081   5.790  12.862  0.00  0.00    +0.000 A 
ATOM      2  C   UNL     1      45.418   4.729  12.225  0.00  0.00    +0.000 A 
ATOM      3  C   UNL     1      44.389   4.968  11.303  0.00  0.00    +0.000 A 
ATOM      4  C   UNL     1      44.020   6.290  11.033  0.00  0.00    +0.000 A 
ATOM      5  C   UNL     1      44.678   7.351  11.659  0.00  0.00    +0.000 A 
ATOM      6  C   UNL     1      45.706   7.119  12.588  0.00  0.00    +0.000 A 
ENDROOT
BRANCH   1   8
ATOM      7  N   UNL     1      47.979   5.232  14.547  0.00  0.00    +0.000 NA
ATOM      8  C   UNL     1      47.127   5.473  13.797  0.00  0.00    +0.000 C 
ENDBRANCH   1   8
BRANCH   3   9
ATOM      9  C   UNL     1      43.685   3.815  10.635  0.00  0.00    +0.000 C 
BRANCH   9  10
ATOM     10  N   UNL     1      44.588   3.032   9.833  0.00  0.00    +0.000 N 
ATOM     11  C   UNL     1      45.246   3.529   8.732  0.00  0.00    +0.000 C 
ATOM     12  O   UNL     1      45.138   4.696   8.363  0.00  0.00    +0.000 OA
ATOM     13  H   UNL     1      44.792   2.076  10.099  0.00  0.00    +0.000 HD
BRANCH  11  14
ATOM     14  C   UNL     1      46.060   2.541   8.051  0.00  0.00    +0.000 A 
ATOM     15  C   UNL     1      46.903   2.641   6.960  0.00  0.00    +0.000 A 
ATOM     16  C   UNL     1      47.416   1.344   6.718  0.00  0.00    +0.000 A 
ATOM     17  C   UNL     1      46.857   0.528   7.672  0.00  0.00    +0.000 A 
ATOM     18  O   UNL     1      46.041   1.239   8.490  0.00  0.00    +0.000 OA
ENDBRANCH  11  14
ENDBRANCH   9  10
ENDBRANCH   3   9
BRANCH   6  19
ATOM     19  C   UNL     1      46.375   8.308  13.234  0.00  0.00    +0.000 C 
BRANCH  19  20
ATOM     20  N   UNL     1      47.465   8.807  12.435  0.00  0.00    +0.000 N 
ATOM     21  C   UNL     1      48.364   9.741  12.881  0.00  0.00    +0.000 C 
ATOM     22  O   UNL     1      48.275  10.259  13.990  0.00  0.00    +0.000 OA
ATOM     23  H   UNL     1      47.477   8.527  11.461  0.00  0.00    +0.000 HD
BRANCH  21  24
ATOM     24  C   UNL     1      49.493  10.035  11.984  0.00  0.00    +0.000 A 
ATOM     25  C   UNL     1      49.774  11.347  11.633  0.00  0.00    +0.000 A 
ATOM     26  S   UNL     1      51.168  11.516  10.663  0.00  0.00    +0.000 S 
ATOM     27  C   UNL     1      51.425   9.835  10.644  0.00  0.00    +0.000 A 
ATOM     28  N   UNL     1      52.482   9.295   9.979  0.00  0.00    +0.000 NA
ATOM     29  C   UNL     1      52.548   8.007  10.038  0.00  0.00    +0.000 A 
ATOM     30  N   UNL     1      51.646   7.208  10.691  0.00  0.00    +0.000 N 
ATOM     31  C   UNL     1      50.570   7.709  11.381  0.00  0.00    +0.000 A 
ATOM     32  O   UNL     1      49.791   6.967  11.971  0.00  0.00    +0.000 OA
ATOM     33  C   UNL     1      50.457   9.155  11.362  0.00  0.00    +0.000 A 
ATOM     34  H   UNL     1      51.754   6.204  10.702  0.00  0.00    +0.000 HD
ENDBRANCH  21  24
ENDBRANCH  19  20
ENDBRANCH   6  19
TORSDOF 7
ENDMDL
MODEL 6
REMARK VINA RESULT:    -7.432      4.559      9.392
REMARK INTER + INTRA:         -11.498
REMARK INTER:                 -10.654
REMARK INTRA:                  -0.844
REMARK UNBOUND:                -1.025
REMARK  Name = 
REMARK  7 active torsions:
REMARK  status: ('A' for Active; 'I' for Inactive)
REMARK    1  A    between atoms: C_2  and  C_3
REMARK    2  A    between atoms: C_5  and  C_6
REMARK    3  A    between atoms: C_6  and  N_7
REMARK    4  A    between atoms: C_8  and  C_10
REMARK    5  A    between atoms: C_17  and  C_18
REMARK    6  A    between atoms: C_18  and  N_19
REMARK    7  A    between atoms: C_20  and  C_22
REMARK                            x       y       z     vdW  Elec       q    Type
REMARK                         _______ _______ _______ _____ _____    ______ ____
ROOT
ATOM      1  C   UNL     1      49.260   4.244  17.995  0.00  0.00    +0.000 A 
ATOM      2  C   UNL     1      50.629   4.087  18.266  0.00  0.00    +0.000 A 
ATOM      3  C   UNL     1      51.335   2.969  17.801  0.00  0.00    +0.000 A 
ATOM      4  C   UNL     1      50.649   1.997  17.065  0.00  0.00    +0.000 A 
ATOM      5  C   UNL     1      49.289   2.148  16.787  0.00  0.00    +0.000 A 
ATOM      6  C   UNL     1      48.573   3.262  17.255  0.00  0.00    +0.000 A 
ENDROOT
BRANCH   1   8
ATOM      7  N   UNL     1      48.073   6.360  18.925  0.00  0.00    +0.000 NA
ATOM      8  C   UNL     1      48.597   5.415  18.503  0.00  0.00    +0.000 C 
ENDBRANCH   1   8
BRANCH   3   9
ATOM      9  C   UNL     1      52.802   2.817  18.108  0.00  0.00    +0.000 C 
BRANCH   9  10
ATOM     10  N   UNL     1      53.153   1.447  18.373  0.00  0.00    +0.000 N 
ATOM     11  C   UNL     1      54.077   0.746  17.632  0.00  0.00    +0.000 C 
ATOM     12  O   UNL     1      54.702   1.248  16.701  0.00  0.00    +0.000 OA
ATOM     13  H   UNL     1      52.738   0.968  19.164  0.00  0.00    +0.000 HD
BRANCH  11  14
ATOM     14  C   UNL     1      54.226  -0.634  18.050  0.00  0.00    +0.000 A 
ATOM     15  C   UNL     1      55.021  -1.658  17.569  0.00  0.00    +0.000 A 
ATOM     16  C   UNL     1      54.732  -2.802  18.351  0.00  0.00    +0.000 A 
ATOM     17  C   UNL     1      53.778  -2.414  19.260  0.00  0.00    +0.000 A 
ATOM     18  O   UNL     1      53.467  -1.103  19.095  0.00  0.00    +0.000 OA
ENDBRANCH  11  14
ENDBRANCH   9  10
ENDBRANCH   3   9
BRANCH   6  19
ATOM     19  C   UNL     1      47.103   3.365  16.925  0.00  0.00    +0.000 C 
BRANCH  19  20
ATOM     20  N   UNL     1      46.851   4.365  15.920  0.00  0.00    +0.000 N 
ATOM     21  C   UNL     1      46.915   4.117  14.573  0.00  0.00    +0.000 C 
ATOM     22  O   UNL     1      47.242   3.022  14.123  0.00  0.00    +0.000 OA
ATOM     23  H   UNL     1      46.739   5.318  16.247  0.00  0.00    +0.000 HD
BRANCH  21  24
ATOM     24  C   UNL     1      46.495   5.216  13.690  0.00  0.00    +0.000 A 
ATOM     25  C   UNL     1      47.362   6.269  13.436  0.00  0.00    +0.000 A 
ATOM     26  S   UNL     1      46.752   7.409  12.321  0.00  0.00    +0.000 S 
ATOM     27  C   UNL     1      45.289   6.555  12.167  0.00  0.00    +0.000 A 
ATOM     28  N   UNL     1      44.304   6.997  11.339  0.00  0.00    +0.000 NA
ATOM     29  C   UNL     1      43.244   6.259  11.329  0.00  0.00    +0.000 A 
ATOM     30  N   UNL     1      43.075   5.125  12.080  0.00  0.00    +0.000 N 
ATOM     31  C   UNL     1      44.044   4.638  12.922  0.00  0.00    +0.000 A 
ATOM     32  O   UNL     1      43.868   3.610  13.567  0.00  0.00    +0.000 OA
ATOM     33  C   UNL     1      45.265   5.421  12.960  0.00  0.00    +0.000 A 
ATOM     34  H   UNL     1      42.221   4.590  12.027  0.00  0.00    +0.000 HD
ENDBRANCH  21  24
ENDBRANCH  19  20
ENDBRANCH   6  19
TORSDOF 7
ENDMDL
MODEL 7
REMARK VINA RESULT:    -7.381      3.318      4.979
REMARK INTER + INTRA:         -11.426
REMARK INTER:                 -10.185
REMARK INTRA:                  -1.241
REMARK UNBOUND:                -1.025
REMARK  Name = 
REMARK  7 active torsions:
REMARK  status: ('A' for Active; 'I' for Inactive)
REMARK    1  A    between atoms: C_2  and  C_3
REMARK    2  A    between atoms: C_5  and  C_6
REMARK    3  A    between atoms: C_6  and  N_7
REMARK    4  A    between atoms: C_8  and  C_10
REMARK    5  A    between atoms: C_17  and  C_18
REMARK    6  A    between atoms: C_18  and  N_19
REMARK    7  A    between atoms: C_20  and  C_22
REMARK                            x       y       z     vdW  Elec       q    Type
REMARK                         _______ _______ _______ _____ _____    ______ ____
ROOT
ATOM      1  C   UNL     1      46.803   5.124  13.720  0.00  0.00    +0.000 A 
ATOM      2  C   UNL     1      45.884   4.714  12.741  0.00  0.00    +0.000 A 
ATOM      3  C   UNL     1      45.647   5.493  11.600  0.00  0.00    +0.000 A 
ATOM      4  C   UNL     1      46.337   6.702  11.454  0.00  0.00    +0.000 A 
ATOM      5  C   UNL     1      47.256   7.114  12.421  0.00  0.00    +0.000 A 
ATOM      6  C   UNL     1      47.494   6.342  13.570  0.00  0.00    +0.000 A 
ENDROOT
BRANCH   1   8
ATOM      7  N   UNL     1      47.166   3.586  15.783  0.00  0.00    +0.000 NA
ATOM      8  C   UNL     1      46.997   4.277  14.867  0.00  0.00    +0.000 C 
ENDBRANCH   1   8
BRANCH   3   9
ATOM      9  C   UNL     1      44.653   5.038  10.564  0.00  0.00    +0.000 C 
BRANCH   9  10
ATOM     10  N   UNL     1      45.300   4.422   9.436  0.00  0.00    +0.000 N 
ATOM     11  C   UNL     1      45.181   3.085   9.133  0.00  0.00    +0.000 C 
ATOM     12  O   UNL     1      44.484   2.315   9.787  0.00  0.00    +0.000 OA
ATOM     13  H   UNL     1      45.844   4.992   8.798  0.00  0.00    +0.000 HD
BRANCH  11  14
ATOM     14  C   UNL     1      45.966   2.682   7.983  0.00  0.00    +0.000 A 
ATOM     15  C   UNL     1      46.259   3.332   6.798  0.00  0.00    +0.000 A 
ATOM     16  C   UNL     1      47.049   2.445   6.028  0.00  0.00    +0.000 A 
ATOM     17  C   UNL     1      47.190   1.305   6.783  0.00  0.00    +0.000 A 
ATOM     18  O   UNL     1      46.547   1.436   7.971  0.00  0.00    +0.000 OA
ENDBRANCH  11  14
ENDBRANCH   9  10
ENDBRANCH   3   9
BRANCH   6  19
ATOM     19  C   UNL     1      48.496   6.845  14.582  0.00  0.00    +0.000 C 
BRANCH  19  20
ATOM     20  N   UNL     1      49.736   7.227  13.958  0.00  0.00    +0.000 N 
ATOM     21  C   UNL     1      50.243   8.501  13.999  0.00  0.00    +0.000 C 
ATOM     22  O   UNL     1      49.643   9.427  14.537  0.00  0.00    +0.000 OA
ATOM     23  H   UNL     1      50.180   6.533  13.368  0.00  0.00    +0.000 HD
BRANCH  21  24
ATOM     24  C   UNL     1      51.585   8.684  13.427  0.00  0.00    +0.000 A 
ATOM     25  C   UNL     1      52.599   9.230  14.203  0.00  0.00    +0.000 A 
ATOM     26  S   UNL     1      54.112   9.286  13.415  0.00  0.00    +0.000 S 
ATOM     27  C   UNL     1      53.459   8.620  11.994  0.00  0.00    +0.000 A 
ATOM     28  N   UNL     1      54.240   8.392  10.904  0.00  0.00    +0.000 NA
ATOM     29  C   UNL     1      53.611   7.895   9.891  0.00  0.00    +0.000 A 
ATOM     30  N   UNL     1      52.270   7.615   9.865  0.00  0.00    +0.000 N 
ATOM     31  C   UNL     1      51.445   7.821  10.943  0.00  0.00    +0.000 A 
ATOM     32  O   UNL     1      50.251   7.543  10.895  0.00  0.00    +0.000 OA
ATOM     33  C   UNL     1      52.104   8.364  12.116  0.00  0.00    +0.000 A 
ATOM     34  H   UNL     1      51.836   7.225   9.041  0.00  0.00    +0.000 HD
ENDBRANCH  21  24
ENDBRANCH  19  20
ENDBRANCH   6  19
TORSDOF 7
ENDMDL
MODEL 8
REMARK VINA RESULT:    -7.044      1.779      2.205
REMARK INTER + INTRA:         -10.952
REMARK INTER:                  -9.969
REMARK INTRA:                  -0.983
REMARK UNBOUND:                -1.025
REMARK  Name = 
REMARK  7 active torsions:
REMARK  status: ('A' for Active; 'I' for Inactive)
REMARK    1  A    between atoms: C_2  and  C_3
REMARK    2  A    between atoms: C_5  and  C_6
REMARK    3  A    between atoms: C_6  and  N_7
REMARK    4  A    between atoms: C_8  and  C_10
REMARK    5  A    between atoms: C_17  and  C_18
REMARK    6  A    between atoms: C_18  and  N_19
REMARK    7  A    between atoms: C_20  and  C_22
REMARK                            x       y       z     vdW  Elec       q    Type
REMARK                         _______ _______ _______ _____ _____    ______ ____
ROOT
ATOM      1  C   UNL     1      45.615   7.458  12.222  0.00  0.00    +0.000 A 
ATOM      2  C   UNL     1      44.806   6.548  11.522  0.00  0.00    +0.000 A 
ATOM      3  C   UNL     1      45.019   5.166  11.623  0.00  0.00    +0.000 A 
ATOM      4  C   UNL     1      46.064   4.701  12.429  0.00  0.00    +0.000 A 
ATOM      5  C   UNL     1      46.869   5.600  13.133  0.00  0.00    +0.000 A 
ATOM      6  C   UNL     1      46.666   6.987  13.032  0.00  0.00    +0.000 A 
ENDROOT
BRANCH   1   8
ATOM      7  N   UNL     1      45.106   9.993  11.958  0.00  0.00    +0.000 NA
ATOM      8  C   UNL     1      45.342   8.863  12.073  0.00  0.00    +0.000 C 
ENDBRANCH   1   8
BRANCH   3   9
ATOM      9  C   UNL     1      44.144   4.206  10.858  0.00  0.00    +0.000 C 
BRANCH   9  10
ATOM     10  N   UNL     1      44.916   3.356   9.992  0.00  0.00    +0.000 N 
ATOM     11  C   UNL     1      45.450   3.780   8.796  0.00  0.00    +0.000 C 
ATOM     12  O   UNL     1      45.336   4.933   8.389  0.00  0.00    +0.000 OA
ATOM     13  H   UNL     1      45.121   2.405  10.276  0.00  0.00    +0.000 HD
BRANCH  11  14
ATOM     14  C   UNL     1      46.143   2.734   8.070  0.00  0.00    +0.000 A 
ATOM     15  C   UNL     1      46.875   2.761   6.897  0.00  0.00    +0.000 A 
ATOM     16  C   UNL     1      47.298   1.433   6.647  0.00  0.00    +0.000 A 
ATOM     17  C   UNL     1      46.800   0.673   7.678  0.00  0.00    +0.000 A 
ATOM     18  O   UNL     1      46.106   1.447   8.550  0.00  0.00    +0.000 OA
ENDBRANCH  11  14
ENDBRANCH   9  10
ENDBRANCH   3   9
BRANCH   6  19
ATOM     19  C   UNL     1      47.573   7.906  13.813  0.00  0.00    +0.000 C 
BRANCH  19  20
ATOM     20  N   UNL     1      48.234   7.215  14.890  0.00  0.00    +0.000 N 
ATOM     21  C   UNL     1      48.470   7.777  16.119  0.00  0.00    +0.000 C 
ATOM     22  O   UNL     1      48.172   8.940  16.375  0.00  0.00    +0.000 OA
ATOM     23  H   UNL     1      48.639   6.312  14.668  0.00  0.00    +0.000 HD
BRANCH  21  24
ATOM     24  C   UNL     1      49.031   6.884  17.144  0.00  0.00    +0.000 A 
ATOM     25  C   UNL     1      48.239   6.460  18.201  0.00  0.00    +0.000 A 
ATOM     26  S   UNL     1      49.020   5.358  19.246  0.00  0.00    +0.000 S 
ATOM     27  C   UNL     1      50.459   5.439  18.344  0.00  0.00    +0.000 A 
ATOM     28  N   UNL     1      51.552   4.711  18.703  0.00  0.00    +0.000 NA
ATOM     29  C   UNL     1      52.578   4.878  17.937  0.00  0.00    +0.000 A 
ATOM     30  N   UNL     1      52.615   5.714  16.852  0.00  0.00    +0.000 N 
ATOM     31  C   UNL     1      51.536   6.460  16.449  0.00  0.00    +0.000 A 
ATOM     32  O   UNL     1      51.596   7.186  15.462  0.00  0.00    +0.000 OA
ATOM     33  C   UNL     1      50.348   6.299  17.265  0.00  0.00    +0.000 A 
ATOM     34  H   UNL     1      53.450   5.799  16.290  0.00  0.00    +0.000 HD
ENDBRANCH  21  24
ENDBRANCH  19  20
ENDBRANCH   6  19
TORSDOF 7
ENDMDL
MODEL 9
REMARK VINA RESULT:    -6.980      3.494      5.354
REMARK INTER + INTRA:         -10.860
REMARK INTER:                  -9.684
REMARK INTRA:                  -1.176
REMARK UNBOUND:                -1.025
REMARK  Name = 
REMARK  7 active torsions:
REMARK  status: ('A' for Active; 'I' for Inactive)
REMARK    1  A    between atoms: C_2  and  C_3
REMARK    2  A    between atoms: C_5  and  C_6
REMARK    3  A    between atoms: C_6  and  N_7
REMARK    4  A    between atoms: C_8  and  C_10
REMARK    5  A    between atoms: C_17  and  C_18
REMARK    6  A    between atoms: C_18  and  N_19
REMARK    7  A    between atoms: C_20  and  C_22
REMARK                            x       y       z     vdW  Elec       q    Type
REMARK                         _______ _______ _______ _____ _____    ______ ____
ROOT
ATOM      1  C   UNL     1      46.407   5.568  13.378  0.00  0.00    +0.000 A 
ATOM      2  C   UNL     1      45.655   4.615  12.673  0.00  0.00    +0.000 A 
ATOM      3  C   UNL     1      44.918   4.974  11.535  0.00  0.00    +0.000 A 
ATOM      4  C   UNL     1      44.932   6.309  11.116  0.00  0.00    +0.000 A 
ATOM      5  C   UNL     1      45.682   7.261  11.810  0.00  0.00    +0.000 A 
ATOM      6  C   UNL     1      46.418   6.911  12.954  0.00  0.00    +0.000 A 
ENDROOT
BRANCH   1   8
ATOM      7  N   UNL     1      47.718   4.785  15.481  0.00  0.00    +0.000 NA
ATOM      8  C   UNL     1      47.140   5.132  14.537  0.00  0.00    +0.000 C 
ENDBRANCH   1   8
BRANCH   3   9
ATOM      9  C   UNL     1      44.112   3.938  10.796  0.00  0.00    +0.000 C 
BRANCH   9  10
ATOM     10  N   UNL     1      44.948   3.083   9.995  0.00  0.00    +0.000 N 
ATOM     11  C   UNL     1      45.262   3.349   8.681  0.00  0.00    +0.000 C 
ATOM     12  O   UNL     1      44.876   4.357   8.096  0.00  0.00    +0.000 OA
ATOM     13  H   UNL     1      45.369   2.261  10.411  0.00  0.00    +0.000 HD
BRANCH  11  14
ATOM     14  C   UNL     1      46.074   2.320   8.063  0.00  0.00    +0.000 A 
ATOM     15  C   UNL     1      47.070   2.389   7.105  0.00  0.00    +0.000 A 
ATOM     16  C   UNL     1      47.496   1.061   6.861  0.00  0.00    +0.000 A 
ATOM     17  C   UNL     1      46.738   0.259   7.679  0.00  0.00    +0.000 A 
ATOM     18  O   UNL     1      45.878   1.007   8.417  0.00  0.00    +0.000 OA
ENDBRANCH  11  14
ENDBRANCH   9  10
ENDBRANCH   3   9
BRANCH   6  19
ATOM     19  C   UNL     1      47.204   7.988  13.662  0.00  0.00    +0.000 C 
BRANCH  19  20
ATOM     20  N   UNL     1      48.371   8.377  12.914  0.00  0.00    +0.000 N 
ATOM     21  C   UNL     1      49.621   7.860  13.137  0.00  0.00    +0.000 C 
ATOM     22  O   UNL     1      49.845   7.053  14.035  0.00  0.00    +0.000 OA
ATOM     23  H   UNL     1      48.260   9.157  12.275  0.00  0.00    +0.000 HD
BRANCH  21  24
ATOM     24  C   UNL     1      50.671   8.267  12.191  0.00  0.00    +0.000 A 
ATOM     25  C   UNL     1      50.955   7.474  11.089  0.00  0.00    +0.000 A 
ATOM     26  S   UNL     1      52.133   8.139  10.049  0.00  0.00    +0.000 S 
ATOM     27  C   UNL     1      52.336   9.494  11.056  0.00  0.00    +0.000 A 
ATOM     28  N   UNL     1      53.216  10.481  10.733  0.00  0.00    +0.000 NA
ATOM     29  C   UNL     1      53.277  11.443  11.593  0.00  0.00    +0.000 A 
ATOM     30  N   UNL     1      52.546  11.503  12.751  0.00  0.00    +0.000 N 
ATOM     31  C   UNL     1      51.642  10.535  13.112  0.00  0.00    +0.000 A 
ATOM     32  O   UNL     1      50.990  10.627  14.148  0.00  0.00    +0.000 OA
ATOM     33  C   UNL     1      51.521   9.437  12.173  0.00  0.00    +0.000 A 
ATOM     34  H   UNL     1      52.638  12.285  13.383  0.00  0.00    +0.000 HD
ENDBRANCH  21  24
ENDBRANCH  19  20
ENDBRANCH   6  19
TORSDOF 7
ENDMDL
