MODEL 1
REMARK VINA RESULT:    -8.848      0.000      0.000
REMARK INTER + INTRA:         -12.656
REMARK INTER:                 -11.952
REMARK INTRA:                  -0.704
REMARK UNBOUND:                -0.704
REMARK  Name = 
REMARK  6 active torsions:
REMARK  status: ('A' for Active; 'I' for Inactive)
REMARK    1  A    between atoms: C_2  and  C_19
REMARK    2  A    between atoms: N_3  and  C_4
REMARK    3  A    between atoms: C_4  and  C_5
REMARK    4  A    between atoms: C_8  and  C_9
REMARK    5  A    between atoms: C_9  and  O_10
REMARK    6  A    between atoms: O_10  and  C_11
REMARK                            x       y       z     vdW  Elec       q    Type
REMARK                         _______ _______ _______ _____ _____    ______ ____
ROOT
ATOM      1  O   UNL     1      49.028   6.710  13.314  0.00  0.00    +0.000 OA
ATOM      2  C   UNL     1      48.194   6.570  14.211  0.00  0.00    +0.000 C 
ATOM      3  N   UNL     1      46.849   6.732  14.001  0.00  0.00    +0.000 N 
ATOM      4  H   UNL     1      46.218   6.770  14.793  0.00  0.00    +0.000 HD
ENDROOT
BRANCH   2   5
ATOM      5  C   UNL     1      48.597   6.174  15.561  0.00  0.00    +0.000 A 
ATOM      6  C   UNL     1      49.344   7.034  16.354  0.00  0.00    +0.000 A 
ATOM      7  S   UNL     1      49.674   6.413  17.909  0.00  0.00    +0.000 S 
ATOM      8  C   UNL     1      48.809   4.983  17.581  0.00  0.00    +0.000 A 
ATOM      9  N   UNL     1      48.660   4.012  18.525  0.00  0.00    +0.000 NA
ATOM     10  C   UNL     1      47.949   3.006  18.146  0.00  0.00    +0.000 A 
ATOM     11  N   UNL     1      47.387   2.870  16.903  0.00  0.00    +0.000 N 
ATOM     12  C   UNL     1      47.582   3.780  15.894  0.00  0.00    +0.000 A 
ATOM     13  O   UNL     1      47.200   3.544  14.752  0.00  0.00    +0.000 OA
ATOM     14  C   UNL     1      48.316   4.964  16.289  0.00  0.00    +0.000 A 
ATOM     15  H   UNL     1      46.879   2.035  16.648  0.00  0.00    +0.000 HD
ENDBRANCH   2   5
BRANCH   3  16
ATOM     16  C   UNL     1      46.317   7.144  12.727  0.00  0.00    +0.000 C 
BRANCH  16  17
ATOM     17  C   UNL     1      45.810   5.984  11.908  0.00  0.00    +0.000 A 
ATOM     18  C   UNL     1      45.706   6.099  10.515  0.00  0.00    +0.000 A 
ATOM     19  C   UNL     1      45.305   5.009   9.736  0.00  0.00    +0.000 A 
ATOM     20  C   UNL     1      44.978   3.788  10.338  0.00  0.00    +0.000 A 
ATOM     21  C   UNL     1      45.070   3.675  11.731  0.00  0.00    +0.000 A 
ATOM     22  C   UNL     1      45.466   4.766  12.511  0.00  0.00    +0.000 A 
BRANCH  20  23
ATOM     23  C   UNL     1      44.524   2.613   9.504  0.00  0.00    +0.000 C 
BRANCH  23  24
ATOM     24  O   UNL     1      45.640   1.791   9.166  0.00  0.00    +0.000 OA
BRANCH  24  25
ATOM     25  C   UNL     1      46.227   2.042   7.957  0.00  0.00    +0.000 A 
ATOM     26  C   UNL     1      45.948   3.112   7.108  0.00  0.00    +0.000 A 
ATOM     27  C   UNL     1      46.646   3.245   5.908  0.00  0.00    +0.000 A 
ATOM     28  C   UNL     1      47.603   2.296   5.589  0.00  0.00    +0.000 A 
ATOM     29  N   UNL     1      47.896   1.241   6.376  0.00  0.00    +0.000 NA
ATOM     30  C   UNL     1      47.203   1.142   7.539  0.00  0.00    +0.000 A 
ENDBRANCH  24  25
ENDBRANCH  23  24
ENDBRANCH  20  23
ENDBRANCH  16  17
ENDBRANCH   3  16
TORSDOF 6
ENDMDL
MODEL 2
REMARK VINA RESULT:    -8.238      1.757      2.143
REMARK INTER + INTRA:         -11.831
REMARK INTER:                 -10.982
REMARK INTRA:                  -0.849
REMARK UNBOUND:                -0.704
REMARK  Name = 
REMARK  6 active torsions:
REMARK  status: ('A' for Active; 'I' for Inactive)
REMARK    1  A    between atoms: C_2  and  C_19
REMARK    2  A    between atoms: N_3  and  C_4
REMARK    3  A    between atoms: C_4  and  C_5
REMARK    4  A    between atoms: C_8  and  C_9
REMARK    5  A    between atoms: C_9  and  O_10
REMARK    6  A    between atoms: O_10  and  C_11
REMARK                            x       y       z     vdW  Elec       q    Type
REMARK                         _______ _______ _______ _____ _____    ______ ____
ROOT
ATOM      1  O   UNL     1      50.224   6.689  15.329  0.00  0.00    +0.000 OA
ATOM      2  C   UNL     1      49.063   6.747  15.739  0.00  0.00    +0.000 C 
ATOM      3  N   UNL     1      47.980   6.680  14.902  0.00  0.00    +0.000 N 
ATOM      4  H   UNL     1      47.055   6.895  15.257  0.00  0.00    +0.000 HD
ENDROOT
BRANCH   2   5
ATOM      5  C   UNL     1      48.772   6.849  17.171  0.00  0.00    +0.000 A 
ATOM      6  C   UNL     1      48.322   8.044  17.714  0.00  0.00    +0.000 A 
ATOM      7  S   UNL     1      47.993   7.950  19.386  0.00  0.00    +0.000 S 
ATOM      8  C   UNL     1      48.420   6.302  19.432  0.00  0.00    +0.000 A 
ATOM      9  N   UNL     1      48.328   5.578  20.583  0.00  0.00    +0.000 NA
ATOM     10  C   UNL     1      48.647   4.335  20.456  0.00  0.00    +0.000 A 
ATOM     11  N   UNL     1      49.070   3.751  19.291  0.00  0.00    +0.000 N 
ATOM     12  C   UNL     1      49.261   4.459  18.130  0.00  0.00    +0.000 A 
ATOM     13  O   UNL     1      49.793   3.937  17.156  0.00  0.00    +0.000 OA
ATOM     14  C   UNL     1      48.849   5.845  18.200  0.00  0.00    +0.000 A 
ATOM     15  H   UNL     1      49.353   2.782  19.265  0.00  0.00    +0.000 HD
ENDBRANCH   2   5
BRANCH   3  16
ATOM     16  C   UNL     1      48.122   6.603  13.470  0.00  0.00    +0.000 C 
BRANCH  16  17
ATOM     17  C   UNL     1      47.014   5.815  12.819  0.00  0.00    +0.000 A 
ATOM     18  C   UNL     1      46.291   6.367  11.753  0.00  0.00    +0.000 A 
ATOM     19  C   UNL     1      45.309   5.623  11.093  0.00  0.00    +0.000 A 
ATOM     20  C   UNL     1      45.014   4.316  11.502  0.00  0.00    +0.000 A 
ATOM     21  C   UNL     1      45.727   3.767  12.575  0.00  0.00    +0.000 A 
ATOM     22  C   UNL     1      46.706   4.514  13.238  0.00  0.00    +0.000 A 
BRANCH  20  23
ATOM     23  C   UNL     1      43.939   3.514  10.808  0.00  0.00    +0.000 C 
BRANCH  23  24
ATOM     24  O   UNL     1      43.961   3.776   9.405  0.00  0.00    +0.000 OA
BRANCH  24  25
ATOM     25  C   UNL     1      44.969   3.181   8.698  0.00  0.00    +0.000 A 
ATOM     26  C   UNL     1      45.831   3.807   7.800  0.00  0.00    +0.000 A 
ATOM     27  C   UNL     1      46.827   3.066   7.164  0.00  0.00    +0.000 A 
ATOM     28  C   UNL     1      46.927   1.713   7.443  0.00  0.00    +0.000 A 
ATOM     29  N   UNL     1      46.107   1.067   8.296  0.00  0.00    +0.000 NA
ATOM     30  C   UNL     1      45.151   1.816   8.902  0.00  0.00    +0.000 A 
ENDBRANCH  24  25
ENDBRANCH  23  24
ENDBRANCH  20  23
ENDBRANCH  16  17
ENDBRANCH   3  16
TORSDOF 6
ENDMDL
MODEL 3
REMARK VINA RESULT:    -8.116      1.734      2.458
REMARK INTER + INTRA:         -11.667
REMARK INTER:                 -10.851
REMARK INTRA:                  -0.815
REMARK UNBOUND:                -0.704
REMARK  Name = 
REMARK  6 active torsions:
REMARK  status: ('A' for Active; 'I' for Inactive)
REMARK    1  A    between atoms: C_2  and  C_19
REMARK    2  A    between atoms: N_3  and  C_4
REMARK    3  A    between atoms: C_4  and  C_5
REMARK    4  A    between atoms: C_8  and  C_9
REMARK    5  A    between atoms: C_9  and  O_10
REMARK    6  A    between atoms: O_10  and  C_11
REMARK                            x       y       z     vdW  Elec       q    Type
REMARK                         _______ _______ _______ _____ _____    ______ ____
ROOT
ATOM      1  O   UNL     1      49.314   6.594  15.117  0.00  0.00    +0.000 OA
ATOM      2  C   UNL     1      48.351   5.919  15.481  0.00  0.00    +0.000 C 
ATOM      3  N   UNL     1      47.223   5.766  14.716  0.00  0.00    +0.000 N 
ATOM      4  H   UNL     1      46.395   5.343  15.118  0.00  0.00    +0.000 HD
ENDROOT
BRANCH   2   5
ATOM      5  C   UNL     1      48.374   5.194  16.753  0.00  0.00    +0.000 A 
ATOM      6  C   UNL     1      48.321   3.807  16.774  0.00  0.00    +0.000 A 
ATOM      7  S   UNL     1      48.407   3.147  18.346  0.00  0.00    +0.000 S 
ATOM      8  C   UNL     1      48.541   4.693  19.047  0.00  0.00    +0.000 A 
ATOM      9  N   UNL     1      48.691   4.851  20.392  0.00  0.00    +0.000 NA
ATOM     10  C   UNL     1      48.818   6.076  20.773  0.00  0.00    +0.000 A 
ATOM     11  N   UNL     1      48.791   7.162  19.937  0.00  0.00    +0.000 N 
ATOM     12  C   UNL     1      48.555   7.057  18.588  0.00  0.00    +0.000 A 
ATOM     13  O   UNL     1      48.376   8.058  17.902  0.00  0.00    +0.000 OA
ATOM     14  C   UNL     1      48.476   5.697  18.098  0.00  0.00    +0.000 A 
ATOM     15  H   UNL     1      48.848   8.102  20.300  0.00  0.00    +0.000 HD
ENDBRANCH   2   5
BRANCH   3  16
ATOM     16  C   UNL     1      47.058   6.441  13.453  0.00  0.00    +0.000 C 
BRANCH  16  17
ATOM     17  C   UNL     1      46.376   5.581  12.421  0.00  0.00    +0.000 A 
ATOM     18  C   UNL     1      46.046   4.252  12.719  0.00  0.00    +0.000 A 
ATOM     19  C   UNL     1      45.350   3.463  11.798  0.00  0.00    +0.000 A 
ATOM     20  C   UNL     1      44.989   3.983  10.548  0.00  0.00    +0.000 A 
ATOM     21  C   UNL     1      45.328   5.308  10.244  0.00  0.00    +0.000 A 
ATOM     22  C   UNL     1      46.029   6.094  11.164  0.00  0.00    +0.000 A 
BRANCH  20  23
ATOM     23  C   UNL     1      44.256   3.131   9.540  0.00  0.00    +0.000 C 
BRANCH  23  24
ATOM     24  O   UNL     1      45.062   2.014   9.164  0.00  0.00    +0.000 OA
BRANCH  24  25
ATOM     25  C   UNL     1      45.882   2.201   8.086  0.00  0.00    +0.000 A 
ATOM     26  C   UNL     1      45.887   3.302   7.232  0.00  0.00    +0.000 A 
ATOM     27  C   UNL     1      46.800   3.358   6.178  0.00  0.00    +0.000 A 
ATOM     28  C   UNL     1      47.679   2.302   6.006  0.00  0.00    +0.000 A 
ATOM     29  N   UNL     1      47.700   1.214   6.803  0.00  0.00    +0.000 NA
ATOM     30  C   UNL     1      46.803   1.192   7.821  0.00  0.00    +0.000 A 
ENDBRANCH  24  25
ENDBRANCH  23  24
ENDBRANCH  20  23
ENDBRANCH  16  17
ENDBRANCH   3  16
TORSDOF 6
ENDMDL
MODEL 4
REMARK VINA RESULT:    -7.717      1.308      1.818
REMARK INTER + INTRA:         -11.127
REMARK INTER:                 -10.231
REMARK INTRA:                  -0.897
REMARK UNBOUND:                -0.704
REMARK  Name = 
REMARK  6 active torsions:
REMARK  status: ('A' for Active; 'I' for Inactive)
REMARK    1  A    between atoms: C_2  and  C_19
REMARK    2  A    between atoms: N_3  and  C_4
REMARK    3  A    between atoms: C_4  and  C_5
REMARK    4  A    between atoms: C_8  and  C_9
REMARK    5  A    between atoms: C_9  and  O_10
REMARK    6  A    between atoms: O_10  and  C_11
REMARK                            x       y       z     vdW  Elec       q    Type
REMARK                         _______ _______ _______ _____ _____    ______ ____
ROOT
ATOM      1  O   UNL     1      49.388   7.827  13.610  0.00  0.00    +0.000 OA
ATOM      2  C   UNL     1      48.558   7.858  14.520  0.00  0.00    +0.000 C 
ATOM      3  N   UNL     1      47.215   8.011  14.291  0.00  0.00    +0.000 N 
ATOM      4  H   UNL     1      46.591   8.195  15.068  0.00  0.00    +0.000 HD
ENDROOT
BRANCH   2   5
ATOM      5  C   UNL     1      48.963   7.684  15.916  0.00  0.00    +0.000 A 
ATOM      6  C   UNL     1      49.536   8.736  16.619  0.00  0.00    +0.000 A 
ATOM      7  S   UNL     1      49.894   8.353  18.243  0.00  0.00    +0.000 S 
ATOM      8  C   UNL     1      49.274   6.777  18.066  0.00  0.00    +0.000 A 
ATOM      9  N   UNL     1      49.240   5.906  19.113  0.00  0.00    +0.000 NA
ATOM     10  C   UNL     1      48.708   4.765  18.839  0.00  0.00    +0.000 A 
ATOM     11  N   UNL     1      48.224   4.402  17.609  0.00  0.00    +0.000 N 
ATOM     12  C   UNL     1      48.317   5.213  16.504  0.00  0.00    +0.000 A 
ATOM     13  O   UNL     1      48.023   4.793  15.390  0.00  0.00    +0.000 OA
ATOM     14  C   UNL     1      48.843   6.535  16.774  0.00  0.00    +0.000 A 
ATOM     15  H   UNL     1      47.863   3.475  17.442  0.00  0.00    +0.000 HD
ENDBRANCH   2   5
BRANCH   3  16
ATOM     16  C   UNL     1      46.683   8.215  12.968  0.00  0.00    +0.000 C 
BRANCH  16  17
ATOM     17  C   UNL     1      46.167   6.942  12.348  0.00  0.00    +0.000 A 
ATOM     18  C   UNL     1      45.617   5.938  13.156  0.00  0.00    +0.000 A 
ATOM     19  C   UNL     1      45.072   4.782  12.590  0.00  0.00    +0.000 A 
ATOM     20  C   UNL     1      45.084   4.598  11.201  0.00  0.00    +0.000 A 
ATOM     21  C   UNL     1      45.644   5.595  10.392  0.00  0.00    +0.000 A 
ATOM     22  C   UNL     1      46.195   6.749  10.960  0.00  0.00    +0.000 A 
BRANCH  20  23
ATOM     23  C   UNL     1      44.516   3.342  10.584  0.00  0.00    +0.000 C 
BRANCH  23  24
ATOM     24  O   UNL     1      44.410   3.497   9.169  0.00  0.00    +0.000 OA
BRANCH  24  25
ATOM     25  C   UNL     1      45.376   2.880   8.423  0.00  0.00    +0.000 A 
ATOM     26  C   UNL     1      46.207   3.485   7.483  0.00  0.00    +0.000 A 
ATOM     27  C   UNL     1      47.162   2.723   6.809  0.00  0.00    +0.000 A 
ATOM     28  C   UNL     1      47.253   1.371   7.094  0.00  0.00    +0.000 A 
ATOM     29  N   UNL     1      46.461   0.745   7.988  0.00  0.00    +0.000 NA
ATOM     30  C   UNL     1      45.545   1.514   8.629  0.00  0.00    +0.000 A 
ENDBRANCH  24  25
ENDBRANCH  23  24
ENDBRANCH  20  23
ENDBRANCH  16  17
ENDBRANCH   3  16
TORSDOF 6
ENDMDL
MODEL 5
REMARK VINA RESULT:    -7.563      2.244      3.795
REMARK INTER + INTRA:         -10.919
REMARK INTER:                  -9.876
REMARK INTRA:                  -1.044
REMARK UNBOUND:                -0.704
REMARK  Name = 
REMARK  6 active torsions:
REMARK  status: ('A' for Active; 'I' for Inactive)
REMARK    1  A    between atoms: C_2  and  C_19
REMARK    2  A    between atoms: N_3  and  C_4
REMARK    3  A    between atoms: C_4  and  C_5
REMARK    4  A    between atoms: C_8  and  C_9
REMARK    5  A    between atoms: C_9  and  O_10
REMARK    6  A    between atoms: O_10  and  C_11
REMARK                            x       y       z     vdW  Elec       q    Type
REMARK                         _______ _______ _______ _____ _____    ______ ____
ROOT
ATOM      1  O   UNL     1      49.187   5.206  16.194  0.00  0.00    +0.000 OA
ATOM      2  C   UNL     1      48.594   6.128  15.633  0.00  0.00    +0.000 C 
ATOM      3  N   UNL     1      47.484   5.927  14.853  0.00  0.00    +0.000 N 
ATOM      4  H   UNL     1      47.127   6.683  14.281  0.00  0.00    +0.000 HD
ENDROOT
BRANCH   2   5
ATOM      5  C   UNL     1      49.022   7.518  15.805  0.00  0.00    +0.000 A 
ATOM      6  C   UNL     1      48.918   8.137  17.043  0.00  0.00    +0.000 A 
ATOM      7  S   UNL     1      49.511   9.738  17.055  0.00  0.00    +0.000 S 
ATOM      8  C   UNL     1      49.947   9.646  15.411  0.00  0.00    +0.000 A 
ATOM      9  N   UNL     1      50.558  10.687  14.781  0.00  0.00    +0.000 NA
ATOM     10  C   UNL     1      50.864  10.459  13.550  0.00  0.00    +0.000 A 
ATOM     11  N   UNL     1      50.599   9.292  12.882  0.00  0.00    +0.000 N 
ATOM     12  C   UNL     1      49.908   8.249  13.450  0.00  0.00    +0.000 A 
ATOM     13  O   UNL     1      49.548   7.291  12.774  0.00  0.00    +0.000 OA
ATOM     14  C   UNL     1      49.604   8.428  14.854  0.00  0.00    +0.000 A 
ATOM     15  H   UNL     1      50.819   9.189  11.902  0.00  0.00    +0.000 HD
ENDBRANCH   2   5
BRANCH   3  16
ATOM     16  C   UNL     1      46.969   4.609  14.581  0.00  0.00    +0.000 C 
BRANCH  16  17
ATOM     17  C   UNL     1      46.225   4.537  13.272  0.00  0.00    +0.000 A 
ATOM     18  C   UNL     1      46.265   5.617  12.379  0.00  0.00    +0.000 A 
ATOM     19  C   UNL     1      45.639   5.537  11.132  0.00  0.00    +0.000 A 
ATOM     20  C   UNL     1      44.940   4.381  10.760  0.00  0.00    +0.000 A 
ATOM     21  C   UNL     1      44.890   3.305  11.656  0.00  0.00    +0.000 A 
ATOM     22  C   UNL     1      45.512   3.387  12.906  0.00  0.00    +0.000 A 
BRANCH  20  23
ATOM     23  C   UNL     1      44.244   4.296   9.423  0.00  0.00    +0.000 C 
BRANCH  23  24
ATOM     24  O   UNL     1      45.189   4.456   8.366  0.00  0.00    +0.000 OA
BRANCH  24  25
ATOM     25  C   UNL     1      45.883   3.335   8.006  0.00  0.00    +0.000 A 
ATOM     26  C   UNL     1      45.608   2.029   8.403  0.00  0.00    +0.000 A 
ATOM     27  C   UNL     1      46.400   0.980   7.936  0.00  0.00    +0.000 A 
ATOM     28  C   UNL     1      47.453   1.273   7.085  0.00  0.00    +0.000 A 
ATOM     29  N   UNL     1      47.760   2.523   6.685  0.00  0.00    +0.000 NA
ATOM     30  C   UNL     1      46.968   3.521   7.154  0.00  0.00    +0.000 A 
ENDBRANCH  24  25
ENDBRANCH  23  24
ENDBRANCH  20  23
ENDBRANCH  16  17
ENDBRANCH   3  16
TORSDOF 6
ENDMDL
MODEL 6
REMARK VINA RESULT:    -7.342      2.458      3.220
REMARK INTER + INTRA:         -10.621
REMARK INTER:                  -9.942
REMARK INTRA:                  -0.679
REMARK UNBOUND:                -0.704
REMARK  Name = 
REMARK  6 active torsions:
REMARK  status: ('A' for Active; 'I' for Inactive)
REMARK    1  A    between atoms: C_2  and  C_19
REMARK    2  A    between atoms: N_3  and  C_4
REMARK    3  A    between atoms: C_4  and  C_5
REMARK    4  A    between atoms: C_8  and  C_9
REMARK    5  A    between atoms: C_9  and  O_10
REMARK    6  A    between atoms: O_10  and  C_11
REMARK                            x       y       z     vdW  Elec       q    Type
REMARK                         _______ _______ _______ _____ _____    ______ ____
ROOT
ATOM      1  O   UNL     1      49.241   4.421  16.876  0.00  0.00    +0.000 OA
ATOM      2  C   UNL     1      48.623   5.428  16.529  0.00  0.00    +0.000 C 
ATOM      3  N   UNL     1      47.556   5.381  15.669  0.00  0.00    +0.000 N 
ATOM      4  H   UNL     1      47.183   6.240  15.283  0.00  0.00    +0.000 HD
ENDROOT
BRANCH   2   5
ATOM      5  C   UNL     1      48.972   6.748  17.059  0.00  0.00    +0.000 A 
ATOM      6  C   UNL     1      49.758   7.619  16.316  0.00  0.00    +0.000 A 
ATOM      7  S   UNL     1      50.014   9.123  17.081  0.00  0.00    +0.000 S 
ATOM      8  C   UNL     1      49.063   8.667  18.418  0.00  0.00    +0.000 A 
ATOM      9  N   UNL     1      48.832   9.526  19.449  0.00  0.00    +0.000 NA
ATOM     10  C   UNL     1      48.063   9.057  20.371  0.00  0.00    +0.000 A 
ATOM     11  N   UNL     1      47.519   7.799  20.370  0.00  0.00    +0.000 N 
ATOM     12  C   UNL     1      47.795   6.870  19.397  0.00  0.00    +0.000 A 
ATOM     13  O   UNL     1      47.421   5.707  19.514  0.00  0.00    +0.000 OA
ATOM     14  C   UNL     1      48.596   7.371  18.301  0.00  0.00    +0.000 A 
ATOM     15  H   UNL     1      46.963   7.469  21.145  0.00  0.00    +0.000 HD
ENDBRANCH   2   5
BRANCH   3  16
ATOM     16  C   UNL     1      47.121   4.152  15.056  0.00  0.00    +0.000 C 
BRANCH  16  17
ATOM     17  C   UNL     1      46.497   4.369  13.701  0.00  0.00    +0.000 A 
ATOM     18  C   UNL     1      46.629   5.606  13.056  0.00  0.00    +0.000 A 
ATOM     19  C   UNL     1      46.116   5.800  11.770  0.00  0.00    +0.000 A 
ATOM     20  C   UNL     1      45.442   4.764  11.110  0.00  0.00    +0.000 A 
ATOM     21  C   UNL     1      45.300   3.530  11.758  0.00  0.00    +0.000 A 
ATOM     22  C   UNL     1      45.808   3.338  13.047  0.00  0.00    +0.000 A 
BRANCH  20  23
ATOM     23  C   UNL     1      44.868   4.974   9.730  0.00  0.00    +0.000 C 
BRANCH  23  24
ATOM     24  O   UNL     1      44.454   3.724   9.177  0.00  0.00    +0.000 OA
BRANCH  24  25
ATOM     25  C   UNL     1      45.391   3.052   8.443  0.00  0.00    +0.000 A 
ATOM     26  C   UNL     1      46.236   3.599   7.479  0.00  0.00    +0.000 A 
ATOM     27  C   UNL     1      47.158   2.784   6.822  0.00  0.00    +0.000 A 
ATOM     28  C   UNL     1      47.202   1.439   7.146  0.00  0.00    +0.000 A 
ATOM     29  N   UNL     1      46.397   0.868   8.064  0.00  0.00    +0.000 NA
ATOM     30  C   UNL     1      45.513   1.687   8.688  0.00  0.00    +0.000 A 
ENDBRANCH  24  25
ENDBRANCH  23  24
ENDBRANCH  20  23
ENDBRANCH  16  17
ENDBRANCH   3  16
TORSDOF 6
ENDMDL
MODEL 7
REMARK VINA RESULT:    -7.296      3.610      8.217
REMARK INTER + INTRA:         -10.560
REMARK INTER:                  -9.543
REMARK INTRA:                  -1.017
REMARK UNBOUND:                -0.704
REMARK  Name = 
REMARK  6 active torsions:
REMARK  status: ('A' for Active; 'I' for Inactive)
REMARK    1  A    between atoms: C_2  and  C_19
REMARK    2  A    between atoms: N_3  and  C_4
REMARK    3  A    between atoms: C_4  and  C_5
REMARK    4  A    between atoms: C_8  and  C_9
REMARK    5  A    between atoms: C_9  and  O_10
REMARK    6  A    between atoms: O_10  and  C_11
REMARK                            x       y       z     vdW  Elec       q    Type
REMARK                         _______ _______ _______ _____ _____    ______ ____
ROOT
ATOM      1  O   UNL     1      45.791   7.947  11.676  0.00  0.00    +0.000 OA
ATOM      2  C   UNL     1      46.361   6.870  11.498  0.00  0.00    +0.000 C 
ATOM      3  N   UNL     1      47.638   6.628  11.935  0.00  0.00    +0.000 N 
ATOM      4  H   UNL     1      48.126   5.796  11.627  0.00  0.00    +0.000 HD
ENDROOT
BRANCH   2   5
ATOM      5  C   UNL     1      45.679   5.755  10.838  0.00  0.00    +0.000 A 
ATOM      6  C   UNL     1      45.828   5.548   9.474  0.00  0.00    +0.000 A 
ATOM      7  S   UNL     1      44.995   4.172   8.900  0.00  0.00    +0.000 S 
ATOM      8  C   UNL     1      44.428   3.797  10.461  0.00  0.00    +0.000 A 
ATOM      9  N   UNL     1      43.667   2.691  10.693  0.00  0.00    +0.000 NA
ATOM     10  C   UNL     1      43.345   2.515  11.928  0.00  0.00    +0.000 A 
ATOM     11  N   UNL     1      43.694   3.354  12.954  0.00  0.00    +0.000 N 
ATOM     12  C   UNL     1      44.384   4.525  12.756  0.00  0.00    +0.000 A 
ATOM     13  O   UNL     1      44.536   5.327  13.672  0.00  0.00    +0.000 OA
ATOM     14  C   UNL     1      44.832   4.733  11.396  0.00  0.00    +0.000 A 
ATOM     15  H   UNL     1      43.371   3.190  13.896  0.00  0.00    +0.000 HD
ENDBRANCH   2   5
BRANCH   3  16
ATOM     16  C   UNL     1      48.432   7.644  12.578  0.00  0.00    +0.000 C 
BRANCH  16  17
ATOM     17  C   UNL     1      48.928   7.219  13.937  0.00  0.00    +0.000 A 
ATOM     18  C   UNL     1      48.138   6.393  14.747  0.00  0.00    +0.000 A 
ATOM     19  C   UNL     1      48.613   5.933  15.979  0.00  0.00    +0.000 A 
ATOM     20  C   UNL     1      49.884   6.308  16.434  0.00  0.00    +0.000 A 
ATOM     21  C   UNL     1      50.671   7.142  15.630  0.00  0.00    +0.000 A 
ATOM     22  C   UNL     1      50.192   7.607  14.401  0.00  0.00    +0.000 A 
BRANCH  20  23
ATOM     23  C   UNL     1      50.396   5.832  17.773  0.00  0.00    +0.000 C 
BRANCH  23  24
ATOM     24  O   UNL     1      49.892   4.526  18.054  0.00  0.00    +0.000 OA
BRANCH  24  25
ATOM     25  C   UNL     1      50.778   3.495  17.903  0.00  0.00    +0.000 A 
ATOM     26  C   UNL     1      52.125   3.503  18.257  0.00  0.00    +0.000 A 
ATOM     27  C   UNL     1      52.902   2.362  18.056  0.00  0.00    +0.000 A 
ATOM     28  C   UNL     1      52.306   1.244  17.499  0.00  0.00    +0.000 A 
ATOM     29  N   UNL     1      51.009   1.197  17.133  0.00  0.00    +0.000 NA
ATOM     30  C   UNL     1      50.279   2.322  17.344  0.00  0.00    +0.000 A 
ENDBRANCH  24  25
ENDBRANCH  23  24
ENDBRANCH  20  23
ENDBRANCH  16  17
ENDBRANCH   3  16
TORSDOF 6
ENDMDL
MODEL 8
REMARK VINA RESULT:    -7.211      2.798      4.193
REMARK INTER + INTRA:         -10.444
REMARK INTER:                  -9.606
REMARK INTRA:                  -0.838
REMARK UNBOUND:                -0.704
REMARK  Name = 
REMARK  6 active torsions:
REMARK  status: ('A' for Active; 'I' for Inactive)
REMARK    1  A    between atoms: C_2  and  C_19
REMARK    2  A    between atoms: N_3  and  C_4
REMARK    3  A    between atoms: C_4  and  C_5
REMARK    4  A    between atoms: C_8  and  C_9
REMARK    5  A    between atoms: C_9  and  O_10
REMARK    6  A    between atoms: O_10  and  C_11
REMARK                            x       y       z     vdW  Elec       q    Type
REMARK                         _______ _______ _______ _____ _____    ______ ____
ROOT
ATOM      1  O   UNL     1      47.926   8.052  15.299  0.00  0.00    +0.000 OA
ATOM      2  C   UNL     1      48.694   7.373  14.616  0.00  0.00    +0.000 C 
ATOM      3  N   UNL     1      48.334   6.163  14.080  0.00  0.00    +0.000 N 
ATOM      4  H   UNL     1      49.041   5.566  13.667  0.00  0.00    +0.000 HD
ENDROOT
BRANCH   2   5
ATOM      5  C   UNL     1      50.042   7.849  14.296  0.00  0.00    +0.000 A 
ATOM      6  C   UNL     1      50.945   8.137  15.311  0.00  0.00    +0.000 A 
ATOM      7  S   UNL     1      52.475   8.632  14.738  0.00  0.00    +0.000 S 
ATOM      8  C   UNL     1      51.986   8.454  13.116  0.00  0.00    +0.000 A 
ATOM      9  N   UNL     1      52.848   8.685  12.087  0.00  0.00    +0.000 NA
ATOM     10  C   UNL     1      52.349   8.472  10.917  0.00  0.00    +0.000 A 
ATOM     11  N   UNL     1      51.061   8.068  10.678  0.00  0.00    +0.000 N 
ATOM     12  C   UNL     1      50.133   7.908  11.678  0.00  0.00    +0.000 A 
ATOM     13  O   UNL     1      48.953   7.706  11.413  0.00  0.00    +0.000 OA
ATOM     14  C   UNL     1      50.662   8.067  13.016  0.00  0.00    +0.000 A 
ATOM     15  H   UNL     1      50.712   7.965   9.737  0.00  0.00    +0.000 HD
ENDBRANCH   2   5
BRANCH   3  16
ATOM     16  C   UNL     1      47.048   5.566  14.334  0.00  0.00    +0.000 C 
BRANCH  16  17
ATOM     17  C   UNL     1      46.303   5.233  13.066  0.00  0.00    +0.000 A 
ATOM     18  C   UNL     1      46.271   6.150  12.007  0.00  0.00    +0.000 A 
ATOM     19  C   UNL     1      45.645   5.827  10.800  0.00  0.00    +0.000 A 
ATOM     20  C   UNL     1      45.017   4.586  10.635  0.00  0.00    +0.000 A 
ATOM     21  C   UNL     1      45.038   3.672  11.697  0.00  0.00    +0.000 A 
ATOM     22  C   UNL     1      45.660   3.998  12.907  0.00  0.00    +0.000 A 
BRANCH  20  23
ATOM     23  C   UNL     1      44.320   4.239   9.342  0.00  0.00    +0.000 C 
BRANCH  23  24
ATOM     24  O   UNL     1      45.204   4.440   8.239  0.00  0.00    +0.000 OA
BRANCH  24  25
ATOM     25  C   UNL     1      45.926   3.350   7.840  0.00  0.00    +0.000 A 
ATOM     26  C   UNL     1      46.933   3.331   6.877  0.00  0.00    +0.000 A 
ATOM     27  C   UNL     1      47.595   2.138   6.589  0.00  0.00    +0.000 A 
ATOM     28  C   UNL     1      47.224   0.992   7.272  0.00  0.00    +0.000 A 
ATOM     29  N   UNL     1      46.249   0.964   8.203  0.00  0.00    +0.000 NA
ATOM     30  C   UNL     1      45.626   2.142   8.464  0.00  0.00    +0.000 A 
ENDBRANCH  24  25
ENDBRANCH  23  24
ENDBRANCH  20  23
ENDBRANCH  16  17
ENDBRANCH   3  16
TORSDOF 6
ENDMDL
MODEL 9
REMARK VINA RESULT:    -6.555      3.631      6.033
REMARK INTER + INTRA:          -9.559
REMARK INTER:                  -8.783
REMARK INTRA:                  -0.775
REMARK UNBOUND:                -0.704
REMARK  Name = 
REMARK  6 active torsions:
REMARK  status: ('A' for Active; 'I' for Inactive)
REMARK    1  A    between atoms: C_2  and  C_19
REMARK    2  A    between atoms: N_3  and  C_4
REMARK    3  A    between atoms: C_4  and  C_5
REMARK    4  A    between atoms: C_8  and  C_9
REMARK    5  A    between atoms: C_9  and  O_10
REMARK    6  A    between atoms: O_10  and  C_11
REMARK                            x       y       z     vdW  Elec       q    Type
REMARK                         _______ _______ _______ _____ _____    ______ ____
ROOT
ATOM      1  O   UNL     1      49.754   1.723  16.219  0.00  0.00    +0.000 OA
ATOM      2  C   UNL     1      50.256   2.263  17.206  0.00  0.00    +0.000 C 
ATOM      3  N   UNL     1      49.537   3.064  18.055  0.00  0.00    +0.000 N 
ATOM      4  H   UNL     1      50.019   3.617  18.754  0.00  0.00    +0.000 HD
ENDROOT
BRANCH   2   5
ATOM      5  C   UNL     1      51.659   2.039  17.557  0.00  0.00    +0.000 A 
ATOM      6  C   UNL     1      52.159   0.749  17.671  0.00  0.00    +0.000 A 
ATOM      7  S   UNL     1      53.825   0.696  18.040  0.00  0.00    +0.000 S 
ATOM      8  C   UNL     1      53.936   2.395  18.037  0.00  0.00    +0.000 A 
ATOM      9  N   UNL     1      55.123   3.028  18.251  0.00  0.00    +0.000 NA
ATOM     10  C   UNL     1      55.061   4.314  18.180  0.00  0.00    +0.000 A 
ATOM     11  N   UNL     1      53.917   5.029  17.936  0.00  0.00    +0.000 N 
ATOM     12  C   UNL     1      52.684   4.439  17.802  0.00  0.00    +0.000 A 
ATOM     13  O   UNL     1      51.665   5.119  17.748  0.00  0.00    +0.000 OA
ATOM     14  C   UNL     1      52.711   2.991  17.802  0.00  0.00    +0.000 A 
ATOM     15  H   UNL     1      53.921   6.038  17.941  0.00  0.00    +0.000 HD
ENDBRANCH   2   5
BRANCH   3  16
ATOM     16  C   UNL     1      48.153   3.386  17.815  0.00  0.00    +0.000 C 
BRANCH  16  17
ATOM     17  C   UNL     1      47.957   4.211  16.569  0.00  0.00    +0.000 A 
ATOM     18  C   UNL     1      47.149   3.733  15.528  0.00  0.00    +0.000 A 
ATOM     19  C   UNL     1      46.901   4.516  14.397  0.00  0.00    +0.000 A 
ATOM     20  C   UNL     1      47.475   5.787  14.274  0.00  0.00    +0.000 A 
ATOM     21  C   UNL     1      48.293   6.262  15.308  0.00  0.00    +0.000 A 
ATOM     22  C   UNL     1      48.545   5.476  16.437  0.00  0.00    +0.000 A 
BRANCH  20  23
ATOM     23  C   UNL     1      47.229   6.630  13.046  0.00  0.00    +0.000 C 
BRANCH  23  24
ATOM     24  O   UNL     1      45.845   6.965  12.950  0.00  0.00    +0.000 OA
BRANCH  24  25
ATOM     25  C   UNL     1      45.084   6.153  12.156  0.00  0.00    +0.000 A 
ATOM     26  C   UNL     1      43.803   5.682  12.440  0.00  0.00    +0.000 A 
ATOM     27  C   UNL     1      43.142   4.871  11.518  0.00  0.00    +0.000 A 
ATOM     28  C   UNL     1      43.788   4.549  10.336  0.00  0.00    +0.000 A 
ATOM     29  N   UNL     1      45.029   4.974  10.026  0.00  0.00    +0.000 NA
ATOM     30  C   UNL     1      45.644   5.765  10.942  0.00  0.00    +0.000 A 
ENDBRANCH  24  25
ENDBRANCH  23  24
ENDBRANCH  20  23
ENDBRANCH  16  17
ENDBRANCH   3  16
TORSDOF 6
ENDMDL
