MODEL 1
REMARK VINA RESULT:    -7.503      0.000      0.000
REMARK INTER + INTRA:         -10.590
REMARK INTER:                  -9.915
REMARK INTRA:                  -0.675
REMARK UNBOUND:                -0.675
REMARK  Name = 
REMARK  6 active torsions:
REMARK  status: ('A' for Active; 'I' for Inactive)
REMARK    1  A    between atoms: C_2  and  C_18
REMARK    2  A    between atoms: N_3  and  C_4
REMARK    3  A    between atoms: C_4  and  C_5
REMARK    4  A    between atoms: C_8  and  C_9
REMARK    5  A    between atoms: C_9  and  N_10
REMARK    6  A    between atoms: C_13  and  O_14
REMARK                            x       y       z     vdW  Elec       q    Type
REMARK                         _______ _______ _______ _____ _____    ______ ____
ROOT
ATOM      1  O   UNL     1      47.160   3.364  14.035  0.00  0.00    +0.000 OA
ATOM      2  C   UNL     1      46.918   4.546  14.271  0.00  0.00    +0.000 C 
ATOM      3  N   UNL     1      45.741   5.176  13.949  0.00  0.00    +0.000 N 
ATOM      4  H   UNL     1      45.536   6.064  14.384  0.00  0.00    +0.000 HD
ENDROOT
BRANCH   2   5
ATOM      5  C   UNL     1      47.761   5.385  15.109  0.00  0.00    +0.000 A 
ATOM      6  C   UNL     1      48.357   6.545  14.658  0.00  0.00    +0.000 A 
ATOM      7  S   UNL     1      49.687   6.996  15.648  0.00  0.00    +0.000 S 
ATOM      8  C   UNL     1      49.374   5.728  16.745  0.00  0.00    +0.000 A 
ATOM      9  N   UNL     1      50.211   5.420  17.772  0.00  0.00    +0.000 NA
ATOM     10  C   UNL     1      49.784   4.465  18.532  0.00  0.00    +0.000 A 
ATOM     11  N   UNL     1      48.577   3.823  18.395  0.00  0.00    +0.000 N 
ATOM     12  C   UNL     1      47.691   4.115  17.388  0.00  0.00    +0.000 A 
ATOM     13  O   UNL     1      46.576   3.609  17.334  0.00  0.00    +0.000 OA
ATOM     14  C   UNL     1      48.197   5.082  16.437  0.00  0.00    +0.000 A 
ATOM     15  H   UNL     1      48.261   3.154  19.079  0.00  0.00    +0.000 HD
ENDBRANCH   2   5
BRANCH   3  16
ATOM     16  C   UNL     1      44.583   4.454  13.458  0.00  0.00    +0.000 C 
BRANCH  16  17
ATOM     17  C   UNL     1      44.636   4.249  11.955  0.00  0.00    +0.000 A 
ATOM     18  N   UNL     1      44.129   3.110  11.446  0.00  0.00    +0.000 NA
ATOM     19  C   UNL     1      44.216   2.949  10.110  0.00  0.00    +0.000 A 
ATOM     20  C   UNL     1      44.792   3.866   9.255  0.00  0.00    +0.000 A 
ATOM     21  C   UNL     1      45.299   4.987   9.879  0.00  0.00    +0.000 A 
ATOM     22  N   UNL     1      45.260   5.192  11.215  0.00  0.00    +0.000 NA
BRANCH  20  23
ATOM     23  C   UNL     1      44.871   3.664   7.771  0.00  0.00    +0.000 C 
BRANCH  23  24
ATOM     24  N   UNL     1      46.188   3.215   7.305  0.00  0.00    +0.000 NA
ATOM     25  C   UNL     1      46.508   3.644   5.933  0.00  0.00    +0.000 C 
ATOM     26  C   UNL     1      47.369   2.534   5.324  0.00  0.00    +0.000 C 
ATOM     27  C   UNL     1      47.520   1.507   6.433  0.00  0.00    +0.000 C 
ATOM     28  C   UNL     1      46.284   1.743   7.295  0.00  0.00    +0.000 C 
BRANCH  27  29
ATOM     29  O   UNL     1      48.705   1.780   7.179  0.00  0.00    +0.000 OA
ATOM     30  H   UNL     1      49.365   1.126   6.876  0.00  0.00    +0.000 HD
ENDBRANCH  27  29
ENDBRANCH  23  24
ENDBRANCH  20  23
ENDBRANCH  16  17
ENDBRANCH   3  16
TORSDOF 6
ENDMDL
MODEL 2
REMARK VINA RESULT:    -7.084      2.867      8.725
REMARK INTER + INTRA:         -10.036
REMARK INTER:                  -9.652
REMARK INTRA:                  -0.384
REMARK UNBOUND:                -0.675
REMARK  Name = 
REMARK  6 active torsions:
REMARK  status: ('A' for Active; 'I' for Inactive)
REMARK    1  A    between atoms: C_2  and  C_18
REMARK    2  A    between atoms: N_3  and  C_4
REMARK    3  A    between atoms: C_4  and  C_5
REMARK    4  A    between atoms: C_8  and  C_9
REMARK    5  A    between atoms: C_9  and  N_10
REMARK    6  A    between atoms: C_13  and  O_14
REMARK                            x       y       z     vdW  Elec       q    Type
REMARK                         _______ _______ _______ _____ _____    ______ ____
ROOT
ATOM      1  O   UNL     1      45.020   7.069  11.727  0.00  0.00    +0.000 OA
ATOM      2  C   UNL     1      45.451   5.919  11.674  0.00  0.00    +0.000 C 
ATOM      3  N   UNL     1      46.653   5.517  12.199  0.00  0.00    +0.000 N 
ATOM      4  H   UNL     1      46.819   4.527  12.321  0.00  0.00    +0.000 HD
ENDROOT
BRANCH   2   5
ATOM      5  C   UNL     1      44.655   4.785  11.231  0.00  0.00    +0.000 A 
ATOM      6  C   UNL     1      43.662   4.212  12.001  0.00  0.00    +0.000 A 
ATOM      7  S   UNL     1      43.304   2.615  11.481  0.00  0.00    +0.000 S 
ATOM      8  C   UNL     1      44.366   2.747  10.153  0.00  0.00    +0.000 A 
ATOM      9  N   UNL     1      44.672   1.695   9.347  0.00  0.00    +0.000 NA
ATOM     10  C   UNL     1      45.452   1.995   8.360  0.00  0.00    +0.000 A 
ATOM     11  N   UNL     1      45.913   3.257   8.072  0.00  0.00    +0.000 N 
ATOM     12  C   UNL     1      45.614   4.352   8.843  0.00  0.00    +0.000 A 
ATOM     13  O   UNL     1      45.946   5.487   8.521  0.00  0.00    +0.000 OA
ATOM     14  C   UNL     1      44.858   4.029  10.034  0.00  0.00    +0.000 A 
ATOM     15  H   UNL     1      46.438   3.441   7.231  0.00  0.00    +0.000 HD
ENDBRANCH   2   5
BRANCH   3  16
ATOM     16  C   UNL     1      47.461   6.378  13.041  0.00  0.00    +0.000 C 
BRANCH  16  17
ATOM     17  C   UNL     1      47.685   5.779  14.418  0.00  0.00    +0.000 A 
ATOM     18  N   UNL     1      48.580   6.369  15.234  0.00  0.00    +0.000 NA
ATOM     19  C   UNL     1      48.773   5.795  16.439  0.00  0.00    +0.000 A 
ATOM     20  C   UNL     1      48.123   4.657  16.869  0.00  0.00    +0.000 A 
ATOM     21  C   UNL     1      47.244   4.122  15.951  0.00  0.00    +0.000 A 
ATOM     22  N   UNL     1      47.026   4.639  14.721  0.00  0.00    +0.000 NA
BRANCH  20  23
ATOM     23  C   UNL     1      48.354   4.043  18.218  0.00  0.00    +0.000 C 
BRANCH  23  24
ATOM     24  N   UNL     1      49.551   3.199  18.285  0.00  0.00    +0.000 NA
ATOM     25  C   UNL     1      50.810   3.961  18.350  0.00  0.00    +0.000 C 
ATOM     26  C   UNL     1      51.860   3.123  17.614  0.00  0.00    +0.000 C 
ATOM     27  C   UNL     1      51.120   1.871  17.178  0.00  0.00    +0.000 C 
ATOM     28  C   UNL     1      49.670   2.334  17.095  0.00  0.00    +0.000 C 
BRANCH  27  29
ATOM     29  O   UNL     1      51.263   0.859  18.174  0.00  0.00    +0.000 OA
ATOM     30  H   UNL     1      50.989   1.276  19.015  0.00  0.00    +0.000 HD
ENDBRANCH  27  29
ENDBRANCH  23  24
ENDBRANCH  20  23
ENDBRANCH  16  17
ENDBRANCH   3  16
TORSDOF 6
ENDMDL
MODEL 3
REMARK VINA RESULT:    -7.019      2.791      3.679
REMARK INTER + INTRA:          -9.951
REMARK INTER:                  -9.332
REMARK INTRA:                  -0.618
REMARK UNBOUND:                -0.675
REMARK  Name = 
REMARK  6 active torsions:
REMARK  status: ('A' for Active; 'I' for Inactive)
REMARK    1  A    between atoms: C_2  and  C_18
REMARK    2  A    between atoms: N_3  and  C_4
REMARK    3  A    between atoms: C_4  and  C_5
REMARK    4  A    between atoms: C_8  and  C_9
REMARK    5  A    between atoms: C_9  and  N_10
REMARK    6  A    between atoms: C_13  and  O_14
REMARK                            x       y       z     vdW  Elec       q    Type
REMARK                         _______ _______ _______ _____ _____    ______ ____
ROOT
ATOM      1  O   UNL     1      46.636   8.770  13.143  0.00  0.00    +0.000 OA
ATOM      2  C   UNL     1      46.983   7.690  13.615  0.00  0.00    +0.000 C 
ATOM      3  N   UNL     1      46.212   6.554  13.604  0.00  0.00    +0.000 N 
ATOM      4  H   UNL     1      46.658   5.667  13.794  0.00  0.00    +0.000 HD
ENDROOT
BRANCH   2   5
ATOM      5  C   UNL     1      48.338   7.411  14.066  0.00  0.00    +0.000 A 
ATOM      6  C   UNL     1      48.636   6.981  15.344  0.00  0.00    +0.000 A 
ATOM      7  S   UNL     1      50.282   7.271  15.738  0.00  0.00    +0.000 S 
ATOM      8  C   UNL     1      50.620   7.833  14.163  0.00  0.00    +0.000 A 
ATOM      9  N   UNL     1      51.814   8.388  13.821  0.00  0.00    +0.000 NA
ATOM     10  C   UNL     1      51.908   8.707  12.570  0.00  0.00    +0.000 A 
ATOM     11  N   UNL     1      50.943   8.476  11.620  0.00  0.00    +0.000 N 
ATOM     12  C   UNL     1      49.733   7.899  11.915  0.00  0.00    +0.000 A 
ATOM     13  O   UNL     1      48.922   7.606  11.045  0.00  0.00    +0.000 OA
ATOM     14  C   UNL     1      49.538   7.657  13.329  0.00  0.00    +0.000 A 
ATOM     15  H   UNL     1      51.117   8.660  10.644  0.00  0.00    +0.000 HD
ENDBRANCH   2   5
BRANCH   3  16
ATOM     16  C   UNL     1      44.970   6.466  12.860  0.00  0.00    +0.000 C 
BRANCH  16  17
ATOM     17  C   UNL     1      45.031   5.404  11.777  0.00  0.00    +0.000 A 
ATOM     18  N   UNL     1      44.850   4.117  12.132  0.00  0.00    +0.000 NA
ATOM     19  C   UNL     1      44.936   3.198  11.148  0.00  0.00    +0.000 A 
ATOM     20  C   UNL     1      45.201   3.497   9.828  0.00  0.00    +0.000 A 
ATOM     21  C   UNL     1      45.390   4.840   9.576  0.00  0.00    +0.000 A 
ATOM     22  N   UNL     1      45.338   5.803  10.523  0.00  0.00    +0.000 NA
BRANCH  20  23
ATOM     23  C   UNL     1      45.286   2.455   8.754  0.00  0.00    +0.000 C 
BRANCH  23  24
ATOM     24  N   UNL     1      46.381   2.675   7.803  0.00  0.00    +0.000 NA
ATOM     25  C   UNL     1      45.956   3.330   6.553  0.00  0.00    +0.000 C 
ATOM     26  C   UNL     1      46.857   2.773   5.447  0.00  0.00    +0.000 C 
ATOM     27  C   UNL     1      47.798   1.815   6.158  0.00  0.00    +0.000 C 
ATOM     28  C   UNL     1      47.005   1.402   7.393  0.00  0.00    +0.000 C 
BRANCH  27  29
ATOM     29  O   UNL     1      48.987   2.507   6.538  0.00  0.00    +0.000 OA
ATOM     30  H   UNL     1      49.719   1.880   6.381  0.00  0.00    +0.000 HD
ENDBRANCH  27  29
ENDBRANCH  23  24
ENDBRANCH  20  23
ENDBRANCH  16  17
ENDBRANCH   3  16
TORSDOF 6
ENDMDL
MODEL 4
REMARK VINA RESULT:    -6.999      2.402      4.046
REMARK INTER + INTRA:          -9.924
REMARK INTER:                  -9.135
REMARK INTRA:                  -0.790
REMARK UNBOUND:                -0.675
REMARK  Name = 
REMARK  6 active torsions:
REMARK  status: ('A' for Active; 'I' for Inactive)
REMARK    1  A    between atoms: C_2  and  C_18
REMARK    2  A    between atoms: N_3  and  C_4
REMARK    3  A    between atoms: C_4  and  C_5
REMARK    4  A    between atoms: C_8  and  C_9
REMARK    5  A    between atoms: C_9  and  N_10
REMARK    6  A    between atoms: C_13  and  O_14
REMARK                            x       y       z     vdW  Elec       q    Type
REMARK                         _______ _______ _______ _____ _____    ______ ____
ROOT
ATOM      1  O   UNL     1      48.460   6.850  17.777  0.00  0.00    +0.000 OA
ATOM      2  C   UNL     1      49.279   6.097  17.255  0.00  0.00    +0.000 C 
ATOM      3  N   UNL     1      49.529   6.037  15.906  0.00  0.00    +0.000 N 
ATOM      4  H   UNL     1      50.370   5.572  15.592  0.00  0.00    +0.000 HD
ENDROOT
BRANCH   2   5
ATOM      5  C   UNL     1      50.243   5.312  18.012  0.00  0.00    +0.000 A 
ATOM      6  C   UNL     1      51.158   5.874  18.880  0.00  0.00    +0.000 A 
ATOM      7  S   UNL     1      52.475   4.813  19.178  0.00  0.00    +0.000 S 
ATOM      8  C   UNL     1      51.752   3.565  18.267  0.00  0.00    +0.000 A 
ATOM      9  N   UNL     1      52.393   2.402  17.973  0.00  0.00    +0.000 NA
ATOM     10  C   UNL     1      51.670   1.552  17.319  0.00  0.00    +0.000 A 
ATOM     11  N   UNL     1      50.352   1.732  16.977  0.00  0.00    +0.000 N 
ATOM     12  C   UNL     1      49.658   2.879  17.272  0.00  0.00    +0.000 A 
ATOM     13  O   UNL     1      48.457   2.989  17.052  0.00  0.00    +0.000 OA
ATOM     14  C   UNL     1      50.475   3.908  17.879  0.00  0.00    +0.000 A 
ATOM     15  H   UNL     1      49.817   0.990  16.554  0.00  0.00    +0.000 HD
ENDBRANCH   2   5
BRANCH   3  16
ATOM     16  C   UNL     1      48.979   6.999  14.971  0.00  0.00    +0.000 C 
BRANCH  16  17
ATOM     17  C   UNL     1      47.812   6.426  14.187  0.00  0.00    +0.000 A 
ATOM     18  N   UNL     1      47.539   5.113  14.314  0.00  0.00    +0.000 NA
ATOM     19  C   UNL     1      46.512   4.632  13.583  0.00  0.00    +0.000 A 
ATOM     20  C   UNL     1      45.748   5.395  12.725  0.00  0.00    +0.000 A 
ATOM     21  C   UNL     1      46.123   6.721  12.654  0.00  0.00    +0.000 A 
ATOM     22  N   UNL     1      47.156   7.253  13.344  0.00  0.00    +0.000 NA
BRANCH  20  23
ATOM     23  C   UNL     1      44.608   4.835  11.927  0.00  0.00    +0.000 C 
BRANCH  23  24
ATOM     24  N   UNL     1      45.031   4.006  10.794  0.00  0.00    +0.000 NA
ATOM     25  C   UNL     1      45.235   4.765   9.548  0.00  0.00    +0.000 C 
ATOM     26  C   UNL     1      44.850   3.826   8.403  0.00  0.00    +0.000 C 
ATOM     27  C   UNL     1      44.457   2.526   9.082  0.00  0.00    +0.000 C 
ATOM     28  C   UNL     1      44.024   2.977  10.472  0.00  0.00    +0.000 C 
BRANCH  27  29
ATOM     29  O   UNL     1      45.596   1.670   9.170  0.00  0.00    +0.000 OA
ATOM     30  H   UNL     1      45.562   1.103   8.375  0.00  0.00    +0.000 HD
ENDBRANCH  27  29
ENDBRANCH  23  24
ENDBRANCH  20  23
ENDBRANCH  16  17
ENDBRANCH   3  16
TORSDOF 6
ENDMDL
MODEL 5
REMARK VINA RESULT:    -6.910      2.890      4.366
REMARK INTER + INTRA:          -9.806
REMARK INTER:                  -8.591
REMARK INTRA:                  -1.215
REMARK UNBOUND:                -0.675
REMARK  Name = 
REMARK  6 active torsions:
REMARK  status: ('A' for Active; 'I' for Inactive)
REMARK    1  A    between atoms: C_2  and  C_18
REMARK    2  A    between atoms: N_3  and  C_4
REMARK    3  A    between atoms: C_4  and  C_5
REMARK    4  A    between atoms: C_8  and  C_9
REMARK    5  A    between atoms: C_9  and  N_10
REMARK    6  A    between atoms: C_13  and  O_14
REMARK                            x       y       z     vdW  Elec       q    Type
REMARK                         _______ _______ _______ _____ _____    ______ ____
ROOT
ATOM      1  O   UNL     1      50.254   7.125  15.243  0.00  0.00    +0.000 OA
ATOM      2  C   UNL     1      49.282   7.394  15.945  0.00  0.00    +0.000 C 
ATOM      3  N   UNL     1      48.343   8.348  15.639  0.00  0.00    +0.000 N 
ATOM      4  H   UNL     1      47.465   8.339  16.139  0.00  0.00    +0.000 HD
ENDROOT
BRANCH   2   5
ATOM      5  C   UNL     1      48.877   6.596  17.093  0.00  0.00    +0.000 A 
ATOM      6  C   UNL     1      49.167   6.947  18.396  0.00  0.00    +0.000 A 
ATOM      7  S   UNL     1      49.068   5.594  19.450  0.00  0.00    +0.000 S 
ATOM      8  C   UNL     1      48.506   4.585  18.195  0.00  0.00    +0.000 A 
ATOM      9  N   UNL     1      48.347   3.243  18.345  0.00  0.00    +0.000 NA
ATOM     10  C   UNL     1      47.860   2.649  17.304  0.00  0.00    +0.000 A 
ATOM     11  N   UNL     1      47.469   3.276  16.146  0.00  0.00    +0.000 N 
ATOM     12  C   UNL     1      47.590   4.631  15.957  0.00  0.00    +0.000 A 
ATOM     13  O   UNL     1      47.146   5.192  14.963  0.00  0.00    +0.000 OA
ATOM     14  C   UNL     1      48.259   5.307  17.048  0.00  0.00    +0.000 A 
ATOM     15  H   UNL     1      47.006   2.769  15.408  0.00  0.00    +0.000 HD
ENDBRANCH   2   5
BRANCH   3  16
ATOM     16  C   UNL     1      48.304   9.014  14.351  0.00  0.00    +0.000 C 
BRANCH  16  17
ATOM     17  C   UNL     1      47.474   8.245  13.339  0.00  0.00    +0.000 A 
ATOM     18  N   UNL     1      46.134   8.378  13.378  0.00  0.00    +0.000 NA
ATOM     19  C   UNL     1      45.426   7.661  12.481  0.00  0.00    +0.000 A 
ATOM     20  C   UNL     1      45.988   6.811  11.551  0.00  0.00    +0.000 A 
ATOM     21  C   UNL     1      47.364   6.732  11.610  0.00  0.00    +0.000 A 
ATOM     22  N   UNL     1      48.124   7.409  12.500  0.00  0.00    +0.000 NA
BRANCH  20  23
ATOM     23  C   UNL     1      45.177   6.028  10.562  0.00  0.00    +0.000 C 
BRANCH  23  24
ATOM     24  N   UNL     1      44.919   4.644  10.973  0.00  0.00    +0.000 NA
ATOM     25  C   UNL     1      45.108   3.661   9.892  0.00  0.00    +0.000 C 
ATOM     26  C   UNL     1      44.094   2.542  10.145  0.00  0.00    +0.000 C 
ATOM     27  C   UNL     1      43.374   2.951  11.418  0.00  0.00    +0.000 C 
ATOM     28  C   UNL     1      43.527   4.468  11.432  0.00  0.00    +0.000 C 
BRANCH  27  29
ATOM     29  O   UNL     1      44.031   2.374  12.546  0.00  0.00    +0.000 OA
ATOM     30  H   UNL     1      44.792   2.957  12.734  0.00  0.00    +0.000 HD
ENDBRANCH  27  29
ENDBRANCH  23  24
ENDBRANCH  20  23
ENDBRANCH  16  17
ENDBRANCH   3  16
TORSDOF 6
ENDMDL
MODEL 6
REMARK VINA RESULT:    -6.898      3.426      9.002
REMARK INTER + INTRA:          -9.790
REMARK INTER:                  -8.859
REMARK INTRA:                  -0.931
REMARK UNBOUND:                -0.675
REMARK  Name = 
REMARK  6 active torsions:
REMARK  status: ('A' for Active; 'I' for Inactive)
REMARK    1  A    between atoms: C_2  and  C_18
REMARK    2  A    between atoms: N_3  and  C_4
REMARK    3  A    between atoms: C_4  and  C_5
REMARK    4  A    between atoms: C_8  and  C_9
REMARK    5  A    between atoms: C_9  and  N_10
REMARK    6  A    between atoms: C_13  and  O_14
REMARK                            x       y       z     vdW  Elec       q    Type
REMARK                         _______ _______ _______ _____ _____    ______ ____
ROOT
ATOM      1  O   UNL     1      44.820   7.891  11.400  0.00  0.00    +0.000 OA
ATOM      2  C   UNL     1      45.723   7.059  11.371  0.00  0.00    +0.000 C 
ATOM      3  N   UNL     1      46.903   7.170  12.065  0.00  0.00    +0.000 N 
ATOM      4  H   UNL     1      47.478   6.346  12.172  0.00  0.00    +0.000 HD
ENDROOT
BRANCH   2   5
ATOM      5  C   UNL     1      45.582   5.744  10.764  0.00  0.00    +0.000 A 
ATOM      6  C   UNL     1      45.892   5.485   9.444  0.00  0.00    +0.000 A 
ATOM      7  S   UNL     1      45.122   4.055   8.886  0.00  0.00    +0.000 S 
ATOM      8  C   UNL     1      44.500   3.715  10.437  0.00  0.00    +0.000 A 
ATOM      9  N   UNL     1      43.618   2.707  10.671  0.00  0.00    +0.000 NA
ATOM     10  C   UNL     1      43.297   2.565  11.917  0.00  0.00    +0.000 A 
ATOM     11  N   UNL     1      43.813   3.301  12.955  0.00  0.00    +0.000 N 
ATOM     12  C   UNL     1      44.721   4.313  12.769  0.00  0.00    +0.000 A 
ATOM     13  O   UNL     1      45.251   4.895  13.710  0.00  0.00    +0.000 OA
ATOM     14  C   UNL     1      44.997   4.592  11.376  0.00  0.00    +0.000 A 
ATOM     15  H   UNL     1      43.595   3.076  13.914  0.00  0.00    +0.000 HD
ENDBRANCH   2   5
BRANCH   3  16
ATOM     16  C   UNL     1      47.127   8.204  13.056  0.00  0.00    +0.000 C 
BRANCH  16  17
ATOM     17  C   UNL     1      47.868   7.675  14.272  0.00  0.00    +0.000 A 
ATOM     18  N   UNL     1      48.359   8.562  15.158  0.00  0.00    +0.000 NA
ATOM     19  C   UNL     1      49.034   8.059  16.211  0.00  0.00    +0.000 A 
ATOM     20  C   UNL     1      49.251   6.713  16.422  0.00  0.00    +0.000 A 
ATOM     21  C   UNL     1      48.724   5.892  15.446  0.00  0.00    +0.000 A 
ATOM     22  N   UNL     1      48.059   6.340  14.358  0.00  0.00    +0.000 NA
BRANCH  20  23
ATOM     23  C   UNL     1      50.001   6.180  17.605  0.00  0.00    +0.000 C 
BRANCH  23  24
ATOM     24  N   UNL     1      49.160   5.443  18.555  0.00  0.00    +0.000 NA
ATOM     25  C   UNL     1      48.050   6.241  19.105  0.00  0.00    +0.000 C 
ATOM     26  C   UNL     1      47.826   5.740  20.534  0.00  0.00    +0.000 C 
ATOM     27  C   UNL     1      48.841   4.625  20.718  0.00  0.00    +0.000 C 
ATOM     28  C   UNL     1      49.938   4.985  19.722  0.00  0.00    +0.000 C 
BRANCH  27  29
ATOM     29  O   UNL     1      48.246   3.374  20.372  0.00  0.00    +0.000 OA
ATOM     30  H   UNL     1      47.943   3.473  19.448  0.00  0.00    +0.000 HD
ENDBRANCH  27  29
ENDBRANCH  23  24
ENDBRANCH  20  23
ENDBRANCH  16  17
ENDBRANCH   3  16
TORSDOF 6
ENDMDL
MODEL 7
REMARK VINA RESULT:    -6.702      3.543      9.264
REMARK INTER + INTRA:          -9.532
REMARK INTER:                  -8.861
REMARK INTRA:                  -0.671
REMARK UNBOUND:                -0.675
REMARK  Name = 
REMARK  6 active torsions:
REMARK  status: ('A' for Active; 'I' for Inactive)
REMARK    1  A    between atoms: C_2  and  C_18
REMARK    2  A    between atoms: N_3  and  C_4
REMARK    3  A    between atoms: C_4  and  C_5
REMARK    4  A    between atoms: C_8  and  C_9
REMARK    5  A    between atoms: C_9  and  N_10
REMARK    6  A    between atoms: C_13  and  O_14
REMARK                            x       y       z     vdW  Elec       q    Type
REMARK                         _______ _______ _______ _____ _____    ______ ____
ROOT
ATOM      1  O   UNL     1      47.526   2.907  14.330  0.00  0.00    +0.000 OA
ATOM      2  C   UNL     1      47.084   4.013  14.632  0.00  0.00    +0.000 C 
ATOM      3  N   UNL     1      46.808   4.414  15.916  0.00  0.00    +0.000 N 
ATOM      4  H   UNL     1      46.678   5.400  16.095  0.00  0.00    +0.000 HD
ENDROOT
BRANCH   2   5
ATOM      5  C   UNL     1      46.987   5.121  13.694  0.00  0.00    +0.000 A 
ATOM      6  C   UNL     1      47.828   6.215  13.729  0.00  0.00    +0.000 A 
ATOM      7  S   UNL     1      47.146   7.560  12.906  0.00  0.00    +0.000 S 
ATOM      8  C   UNL     1      45.806   6.639  12.391  0.00  0.00    +0.000 A 
ATOM      9  N   UNL     1      44.735   7.188  11.757  0.00  0.00    +0.000 NA
ATOM     10  C   UNL     1      43.839   6.329  11.393  0.00  0.00    +0.000 A 
ATOM     11  N   UNL     1      43.935   4.968  11.558  0.00  0.00    +0.000 N 
ATOM     12  C   UNL     1      45.006   4.368  12.172  0.00  0.00    +0.000 A 
ATOM     13  O   UNL     1      45.129   3.149  12.222  0.00  0.00    +0.000 OA
ATOM     14  C   UNL     1      45.962   5.309  12.715  0.00  0.00    +0.000 A 
ATOM     15  H   UNL     1      43.247   4.345  11.164  0.00  0.00    +0.000 HD
ENDBRANCH   2   5
BRANCH   3  16
ATOM     16  C   UNL     1      47.190   3.629  17.074  0.00  0.00    +0.000 C 
BRANCH  16  17
ATOM     17  C   UNL     1      48.688   3.673  17.321  0.00  0.00    +0.000 A 
ATOM     18  N   UNL     1      49.249   4.853  17.644  0.00  0.00    +0.000 NA
ATOM     19  C   UNL     1      50.585   4.861  17.832  0.00  0.00    +0.000 A 
ATOM     20  C   UNL     1      51.391   3.749  17.705  0.00  0.00    +0.000 A 
ATOM     21  C   UNL     1      50.720   2.596  17.351  0.00  0.00    +0.000 A 
ATOM     22  N   UNL     1      49.388   2.533  17.129  0.00  0.00    +0.000 NA
BRANCH  20  23
ATOM     23  C   UNL     1      52.874   3.784  17.924  0.00  0.00    +0.000 C 
BRANCH  23  24
ATOM     24  N   UNL     1      53.394   2.611  18.634  0.00  0.00    +0.000 NA
ATOM     25  C   UNL     1      54.057   2.937  19.909  0.00  0.00    +0.000 C 
ATOM     26  C   UNL     1      55.178   1.909  20.087  0.00  0.00    +0.000 C 
ATOM     27  C   UNL     1      55.072   1.004  18.872  0.00  0.00    +0.000 C 
ATOM     28  C   UNL     1      54.405   1.897  17.831  0.00  0.00    +0.000 C 
BRANCH  27  29
ATOM     29  O   UNL     1      54.236  -0.111  19.178  0.00  0.00    +0.000 OA
ATOM     30  H   UNL     1      53.320   0.203  19.051  0.00  0.00    +0.000 HD
ENDBRANCH  27  29
ENDBRANCH  23  24
ENDBRANCH  20  23
ENDBRANCH  16  17
ENDBRANCH   3  16
TORSDOF 6
ENDMDL
MODEL 8
REMARK VINA RESULT:    -6.504      2.615      3.854
REMARK INTER + INTRA:          -9.271
REMARK INTER:                  -8.374
REMARK INTRA:                  -0.896
REMARK UNBOUND:                -0.675
REMARK  Name = 
REMARK  6 active torsions:
REMARK  status: ('A' for Active; 'I' for Inactive)
REMARK    1  A    between atoms: C_2  and  C_18
REMARK    2  A    between atoms: N_3  and  C_4
REMARK    3  A    between atoms: C_4  and  C_5
REMARK    4  A    between atoms: C_8  and  C_9
REMARK    5  A    between atoms: C_9  and  N_10
REMARK    6  A    between atoms: C_13  and  O_14
REMARK                            x       y       z     vdW  Elec       q    Type
REMARK                         _______ _______ _______ _____ _____    ______ ____
ROOT
ATOM      1  O   UNL     1      50.293   8.170  16.595  0.00  0.00    +0.000 OA
ATOM      2  C   UNL     1      49.102   7.919  16.759  0.00  0.00    +0.000 C 
ATOM      3  N   UNL     1      48.236   7.572  15.751  0.00  0.00    +0.000 N 
ATOM      4  H   UNL     1      47.349   7.157  15.999  0.00  0.00    +0.000 HD
ENDROOT
BRANCH   2   5
ATOM      5  C   UNL     1      48.490   7.751  18.068  0.00  0.00    +0.000 A 
ATOM      6  C   UNL     1      48.049   8.810  18.837  0.00  0.00    +0.000 A 
ATOM      7  S   UNL     1      47.906   8.371  20.491  0.00  0.00    +0.000 S 
ATOM      8  C   UNL     1      48.294   6.745  20.153  0.00  0.00    +0.000 A 
ATOM      9  N   UNL     1      48.497   5.819  21.128  0.00  0.00    +0.000 NA
ATOM     10  C   UNL     1      48.729   4.626  20.683  0.00  0.00    +0.000 A 
ATOM     11  N   UNL     1      48.725   4.261  19.359  0.00  0.00    +0.000 N 
ATOM     12  C   UNL     1      48.503   5.156  18.342  0.00  0.00    +0.000 A 
ATOM     13  O   UNL     1      48.401   4.802  17.173  0.00  0.00    +0.000 OA
ATOM     14  C   UNL     1      48.378   6.525  18.795  0.00  0.00    +0.000 A 
ATOM     15  H   UNL     1      48.816   3.296  19.083  0.00  0.00    +0.000 HD
ENDBRANCH   2   5
BRANCH   3  16
ATOM     16  C   UNL     1      48.688   7.284  14.404  0.00  0.00    +0.000 C 
BRANCH  16  17
ATOM     17  C   UNL     1      47.633   6.553  13.594  0.00  0.00    +0.000 A 
ATOM     18  N   UNL     1      47.006   7.223  12.607  0.00  0.00    +0.000 NA
ATOM     19  C   UNL     1      46.056   6.551  11.925  0.00  0.00    +0.000 A 
ATOM     20  C   UNL     1      45.693   5.245  12.183  0.00  0.00    +0.000 A 
ATOM     21  C   UNL     1      46.381   4.659  13.226  0.00  0.00    +0.000 A 
ATOM     22  N   UNL     1      47.327   5.289  13.958  0.00  0.00    +0.000 NA
BRANCH  20  23
ATOM     23  C   UNL     1      44.636   4.520  11.406  0.00  0.00    +0.000 C 
BRANCH  23  24
ATOM     24  N   UNL     1      45.163   3.729  10.289  0.00  0.00    +0.000 NA
ATOM     25  C   UNL     1      45.307   4.494   9.038  0.00  0.00    +0.000 C 
ATOM     26  C   UNL     1      45.041   3.509   7.897  0.00  0.00    +0.000 C 
ATOM     27  C   UNL     1      44.776   2.180   8.584  0.00  0.00    +0.000 C 
ATOM     28  C   UNL     1      44.274   2.597   9.963  0.00  0.00    +0.000 C 
BRANCH  27  29
ATOM     29  O   UNL     1      45.996   1.449   8.700  0.00  0.00    +0.000 OA
ATOM     30  H   UNL     1      45.916   0.930   9.524  0.00  0.00    +0.000 HD
ENDBRANCH  27  29
ENDBRANCH  23  24
ENDBRANCH  20  23
ENDBRANCH  16  17
ENDBRANCH   3  16
TORSDOF 6
ENDMDL
MODEL 9
REMARK VINA RESULT:    -6.418      2.565      3.161
REMARK INTER + INTRA:          -9.156
REMARK INTER:                  -8.899
REMARK INTRA:                  -0.257
REMARK UNBOUND:                -0.675
REMARK  Name = 
REMARK  6 active torsions:
REMARK  status: ('A' for Active; 'I' for Inactive)
REMARK    1  A    between atoms: C_2  and  C_18
REMARK    2  A    between atoms: N_3  and  C_4
REMARK    3  A    between atoms: C_4  and  C_5
REMARK    4  A    between atoms: C_8  and  C_9
REMARK    5  A    between atoms: C_9  and  N_10
REMARK    6  A    between atoms: C_13  and  O_14
REMARK                            x       y       z     vdW  Elec       q    Type
REMARK                         _______ _______ _______ _____ _____    ______ ____
ROOT
ATOM      1  O   UNL     1      49.465   5.422  16.279  0.00  0.00    +0.000 OA
ATOM      2  C   UNL     1      48.698   6.277  15.840  0.00  0.00    +0.000 C 
ATOM      3  N   UNL     1      47.619   6.010  15.034  0.00  0.00    +0.000 N 
ATOM      4  H   UNL     1      46.916   6.727  14.917  0.00  0.00    +0.000 HD
ENDROOT
BRANCH   2   5
ATOM      5  C   UNL     1      48.704   7.663  16.283  0.00  0.00    +0.000 A 
ATOM      6  C   UNL     1      48.992   8.721  15.445  0.00  0.00    +0.000 A 
ATOM      7  S   UNL     1      49.461  10.116  16.332  0.00  0.00    +0.000 S 
ATOM      8  C   UNL     1      49.142   9.347  17.821  0.00  0.00    +0.000 A 
ATOM      9  N   UNL     1      49.457   9.906  19.020  0.00  0.00    +0.000 NA
ATOM     10  C   UNL     1      49.092   9.203  20.043  0.00  0.00    +0.000 A 
ATOM     11  N   UNL     1      48.397   8.020  19.981  0.00  0.00    +0.000 N 
ATOM     12  C   UNL     1      48.038   7.429  18.795  0.00  0.00    +0.000 A 
ATOM     13  O   UNL     1      47.331   6.429  18.753  0.00  0.00    +0.000 OA
ATOM     14  C   UNL     1      48.551   8.117  17.630  0.00  0.00    +0.000 A 
ATOM     15  H   UNL     1      48.056   7.571  20.817  0.00  0.00    +0.000 HD
ENDBRANCH   2   5
BRANCH   3  16
ATOM     16  C   UNL     1      47.164   4.660  14.767  0.00  0.00    +0.000 C 
BRANCH  16  17
ATOM     17  C   UNL     1      46.269   4.593  13.541  0.00  0.00    +0.000 A 
ATOM     18  N   UNL     1      45.803   3.390  13.154  0.00  0.00    +0.000 NA
ATOM     19  C   UNL     1      45.033   3.364  12.047  0.00  0.00    +0.000 A 
ATOM     20  C   UNL     1      44.711   4.479  11.301  0.00  0.00    +0.000 A 
ATOM     21  C   UNL     1      45.255   5.656  11.772  0.00  0.00    +0.000 A 
ATOM     22  N   UNL     1      46.051   5.740  12.861  0.00  0.00    +0.000 NA
BRANCH  20  23
ATOM     23  C   UNL     1      43.847   4.422  10.076  0.00  0.00    +0.000 C 
BRANCH  23  24
ATOM     24  N   UNL     1      44.510   3.819   8.915  0.00  0.00    +0.000 NA
ATOM     25  C   UNL     1      44.760   2.375   9.061  0.00  0.00    +0.000 C 
ATOM     26  C   UNL     1      46.058   2.084   8.304  0.00  0.00    +0.000 C 
ATOM     27  C   UNL     1      46.479   3.423   7.724  0.00  0.00    +0.000 C 
ATOM     28  C   UNL     1      45.830   4.429   8.669  0.00  0.00    +0.000 C 
BRANCH  27  29
ATOM     29  O   UNL     1      45.946   3.563   6.408  0.00  0.00    +0.000 OA
ATOM     30  H   UNL     1      45.318   2.823   6.297  0.00  0.00    +0.000 HD
ENDBRANCH  27  29
ENDBRANCH  23  24
ENDBRANCH  20  23
ENDBRANCH  16  17
ENDBRANCH   3  16
TORSDOF 6
ENDMDL
