MODEL 1
REMARK VINA RESULT:    -7.176      0.000      0.000
REMARK INTER + INTRA:         -11.408
REMARK INTER:                 -10.113
REMARK INTRA:                  -1.296
REMARK UNBOUND:                -1.296
REMARK  Name = 
REMARK  8 active torsions:
REMARK  status: ('A' for Active; 'I' for Inactive)
REMARK    1  A    between atoms: C_1  and  O_2
REMARK    2  A    between atoms: O_2  and  C_3
REMARK    3  A    between atoms: C_10  and  C_11
REMARK    4  A    between atoms: N_13  and  C_14
REMARK    5  A    between atoms: C_14  and  C_15
REMARK    6  A    between atoms: C_18  and  N_19
REMARK    7  A    between atoms: N_19  and  C_20
REMARK    8  A    between atoms: C_20  and  C_21
REMARK                            x       y       z     vdW  Elec       q    Type
REMARK                         _______ _______ _______ _____ _____    ______ ____
ROOT
ATOM      1  C   UNL     1      47.762   8.534  14.133  0.00  0.00    +0.000 C 
ENDROOT
BRANCH   1   2
ATOM      2  C   UNL     1      46.982   7.895  13.018  0.00  0.00    +0.000 A 
ATOM      3  C   UNL     1      47.599   6.971  12.173  0.00  0.00    +0.000 A 
ATOM      4  C   UNL     1      46.862   6.308  11.188  0.00  0.00    +0.000 A 
ATOM      5  C   UNL     1      45.494   6.547  11.004  0.00  0.00    +0.000 A 
ATOM      6  C   UNL     1      44.901   7.522  11.815  0.00  0.00    +0.000 A 
ATOM      7  C   UNL     1      45.634   8.196  12.803  0.00  0.00    +0.000 A 
BRANCH   5   8
ATOM      8  N   UNL     1      44.677   5.776  10.172  0.00  0.00    +0.000 N 
ATOM      9  H   UNL     1      44.417   6.254   9.312  0.00  0.00    +0.000 HD
BRANCH   8  10
ATOM     10  C   UNL     1      44.903   4.341  10.038  0.00  0.00    +0.000 C 
BRANCH  10  11
ATOM     11  C   UNL     1      44.455   3.773   8.674  0.00  0.00    +0.000 C 
ATOM     12  C   UNL     1      44.480   2.240   8.578  0.00  0.00    +0.000 C 
ATOM     13  C   UNL     1      45.899   1.683   8.529  0.00  0.00    +0.000 C 
ATOM     14  C   UNL     1      46.721   2.395   7.461  0.00  0.00    +0.000 C 
ATOM     15  C   UNL     1      46.612   3.907   7.595  0.00  0.00    +0.000 C 
ATOM     16  O   UNL     1      45.247   4.337   7.608  0.00  0.00    +0.000 OA
ENDBRANCH  10  11
ENDBRANCH   8  10
ENDBRANCH   5   8
ENDBRANCH   1   2
BRANCH   1  19
ATOM     17  C   UNL     1      49.262   7.084  15.406  0.00  0.00    +0.000 C 
ATOM     18  O   UNL     1      50.204   7.376  14.669  0.00  0.00    +0.000 OA
ATOM     19  N   UNL     1      48.018   7.609  15.205  0.00  0.00    +0.000 N 
ATOM     20  H   UNL     1      47.239   7.325  15.785  0.00  0.00    +0.000 HD
BRANCH  17  28
ATOM     21  C   UNL     1      47.545   4.311  16.526  0.00  0.00    +0.000 A 
ATOM     22  N   UNL     1      47.035   3.272  17.224  0.00  0.00    +0.000 NA
ATOM     23  C   UNL     1      47.646   2.909  18.353  0.00  0.00    +0.000 A 
ATOM     24  N   UNL     1      48.733   3.458  18.886  0.00  0.00    +0.000 NA
ATOM     25  C   UNL     1      49.202   4.495  18.173  0.00  0.00    +0.000 A 
ATOM     26  S   UNL     1      50.594   5.307  18.705  0.00  0.00    +0.000 S 
ATOM     27  C   UNL     1      50.517   6.391  17.400  0.00  0.00    +0.000 A 
ATOM     28  C   UNL     1      49.446   6.168  16.544  0.00  0.00    +0.000 A 
ATOM     29  C   UNL     1      48.673   5.011  16.993  0.00  0.00    +0.000 A 
BRANCH  21  31
ATOM     30  C   UNL     1      47.181   3.729  14.278  0.00  0.00    +0.000 C 
ATOM     31  O   UNL     1      46.942   4.657  15.334  0.00  0.00    +0.000 OA
ENDBRANCH  21  31
ENDBRANCH  17  28
ENDBRANCH   1  19
TORSDOF 7
ENDMDL
MODEL 2
REMARK VINA RESULT:    -6.882      1.859      3.602
REMARK INTER + INTRA:         -10.995
REMARK INTER:                  -9.669
REMARK INTRA:                  -1.326
REMARK UNBOUND:                -1.296
REMARK  Name = 
REMARK  8 active torsions:
REMARK  status: ('A' for Active; 'I' for Inactive)
REMARK    1  A    between atoms: C_1  and  O_2
REMARK    2  A    between atoms: O_2  and  C_3
REMARK    3  A    between atoms: C_10  and  C_11
REMARK    4  A    between atoms: N_13  and  C_14
REMARK    5  A    between atoms: C_14  and  C_15
REMARK    6  A    between atoms: C_18  and  N_19
REMARK    7  A    between atoms: N_19  and  C_20
REMARK    8  A    between atoms: C_20  and  C_21
REMARK                            x       y       z     vdW  Elec       q    Type
REMARK                         _______ _______ _______ _____ _____    ______ ____
ROOT
ATOM      1  C   UNL     1      46.820   4.284  14.959  0.00  0.00    +0.000 C 
ENDROOT
BRANCH   1   2
ATOM      2  C   UNL     1      46.262   4.614  13.602  0.00  0.00    +0.000 A 
ATOM      3  C   UNL     1      46.500   5.866  13.034  0.00  0.00    +0.000 A 
ATOM      4  C   UNL     1      46.060   6.154  11.739  0.00  0.00    +0.000 A 
ATOM      5  C   UNL     1      45.362   5.212  10.972  0.00  0.00    +0.000 A 
ATOM      6  C   UNL     1      45.072   3.983  11.576  0.00  0.00    +0.000 A 
ATOM      7  C   UNL     1      45.506   3.687  12.877  0.00  0.00    +0.000 A 
BRANCH   5   8
ATOM      8  N   UNL     1      45.072   5.379   9.615  0.00  0.00    +0.000 N 
ATOM      9  H   UNL     1      44.650   6.280   9.403  0.00  0.00    +0.000 HD
BRANCH   8  10
ATOM     10  C   UNL     1      45.986   4.870   8.597  0.00  0.00    +0.000 C 
BRANCH  10  11
ATOM     11  C   UNL     1      45.314   3.904   7.596  0.00  0.00    +0.000 C 
ATOM     12  C   UNL     1      44.733   2.630   8.227  0.00  0.00    +0.000 C 
ATOM     13  C   UNL     1      45.818   1.661   8.686  0.00  0.00    +0.000 C 
ATOM     14  C   UNL     1      46.825   1.409   7.570  0.00  0.00    +0.000 C 
ATOM     15  C   UNL     1      47.321   2.716   6.968  0.00  0.00    +0.000 C 
ATOM     16  O   UNL     1      46.236   3.546   6.545  0.00  0.00    +0.000 OA
ENDBRANCH  10  11
ENDBRANCH   8  10
ENDBRANCH   5   8
ENDBRANCH   1   2
BRANCH   1  19
ATOM     17  C   UNL     1      48.560   5.200  16.408  0.00  0.00    +0.000 C 
ATOM     18  O   UNL     1      48.896   4.068  16.756  0.00  0.00    +0.000 OA
ATOM     19  N   UNL     1      47.537   5.395  15.527  0.00  0.00    +0.000 N 
ATOM     20  H   UNL     1      47.235   6.330  15.285  0.00  0.00    +0.000 HD
BRANCH  17  28
ATOM     21  C   UNL     1      50.291   7.773  14.897  0.00  0.00    +0.000 A 
ATOM     22  N   UNL     1      51.072   8.831  14.592  0.00  0.00    +0.000 NA
ATOM     23  C   UNL     1      51.543   9.579  15.593  0.00  0.00    +0.000 A 
ATOM     24  N   UNL     1      51.323   9.405  16.892  0.00  0.00    +0.000 NA
ATOM     25  C   UNL     1      50.554   8.336  17.156  0.00  0.00    +0.000 A 
ATOM     26  S   UNL     1      50.163   7.972  18.768  0.00  0.00    +0.000 S 
ATOM     27  C   UNL     1      49.278   6.603  18.293  0.00  0.00    +0.000 A 
ATOM     28  C   UNL     1      49.262   6.389  16.920  0.00  0.00    +0.000 A 
ATOM     29  C   UNL     1      50.005   7.447  16.236  0.00  0.00    +0.000 A 
BRANCH  21  31
ATOM     30  C   UNL     1      49.708   7.729  12.620  0.00  0.00    +0.000 C 
ATOM     31  O   UNL     1      49.765   7.027  13.861  0.00  0.00    +0.000 OA
ENDBRANCH  21  31
ENDBRANCH  17  28
ENDBRANCH   1  19
TORSDOF 7
ENDMDL
MODEL 3
REMARK VINA RESULT:    -6.810      1.599      1.855
REMARK INTER + INTRA:         -10.893
REMARK INTER:                  -9.876
REMARK INTRA:                  -1.017
REMARK UNBOUND:                -1.296
REMARK  Name = 
REMARK  8 active torsions:
REMARK  status: ('A' for Active; 'I' for Inactive)
REMARK    1  A    between atoms: C_1  and  O_2
REMARK    2  A    between atoms: O_2  and  C_3
REMARK    3  A    between atoms: C_10  and  C_11
REMARK    4  A    between atoms: N_13  and  C_14
REMARK    5  A    between atoms: C_14  and  C_15
REMARK    6  A    between atoms: C_18  and  N_19
REMARK    7  A    between atoms: N_19  and  C_20
REMARK    8  A    between atoms: C_20  and  C_21
REMARK                            x       y       z     vdW  Elec       q    Type
REMARK                         _______ _______ _______ _____ _____    ______ ____
ROOT
ATOM      1  C   UNL     1      47.907   7.886  13.551  0.00  0.00    +0.000 C 
ENDROOT
BRANCH   1   2
ATOM      2  C   UNL     1      46.879   6.955  12.969  0.00  0.00    +0.000 A 
ATOM      3  C   UNL     1      46.323   7.224  11.718  0.00  0.00    +0.000 A 
ATOM      4  C   UNL     1      45.432   6.323  11.128  0.00  0.00    +0.000 A 
ATOM      5  C   UNL     1      45.058   5.133  11.766  0.00  0.00    +0.000 A 
ATOM      6  C   UNL     1      45.572   4.905  13.048  0.00  0.00    +0.000 A 
ATOM      7  C   UNL     1      46.464   5.806  13.649  0.00  0.00    +0.000 A 
BRANCH   5   8
ATOM      8  N   UNL     1      44.330   4.115  11.143  0.00  0.00    +0.000 N 
ATOM      9  H   UNL     1      43.518   4.458  10.635  0.00  0.00    +0.000 HD
BRANCH   8  10
ATOM     10  C   UNL     1      45.018   2.988  10.522  0.00  0.00    +0.000 C 
BRANCH  10  11
ATOM     11  C   UNL     1      44.452   2.611   9.135  0.00  0.00    +0.000 C 
ATOM     12  C   UNL     1      45.072   1.351   8.512  0.00  0.00    +0.000 C 
ATOM     13  C   UNL     1      46.507   1.577   8.047  0.00  0.00    +0.000 C 
ATOM     14  C   UNL     1      46.601   2.824   7.175  0.00  0.00    +0.000 C 
ATOM     15  C   UNL     1      45.930   4.016   7.841  0.00  0.00    +0.000 C 
ATOM     16  O   UNL     1      44.583   3.718   8.219  0.00  0.00    +0.000 OA
ENDBRANCH  10  11
ENDBRANCH   8  10
ENDBRANCH   5   8
ENDBRANCH   1   2
BRANCH   1  19
ATOM     17  C   UNL     1      49.000   7.178  15.619  0.00  0.00    +0.000 C 
ATOM     18  O   UNL     1      49.924   6.671  14.981  0.00  0.00    +0.000 OA
ATOM     19  N   UNL     1      47.959   7.794  14.986  0.00  0.00    +0.000 N 
ATOM     20  H   UNL     1      47.180   8.163  15.516  0.00  0.00    +0.000 HD
BRANCH  17  28
ATOM     21  C   UNL     1      48.855   4.644  17.954  0.00  0.00    +0.000 A 
ATOM     22  N   UNL     1      48.728   3.882  19.062  0.00  0.00    +0.000 NA
ATOM     23  C   UNL     1      48.683   4.493  20.247  0.00  0.00    +0.000 A 
ATOM     24  N   UNL     1      48.756   5.800  20.476  0.00  0.00    +0.000 NA
ATOM     25  C   UNL     1      48.867   6.525  19.350  0.00  0.00    +0.000 A 
ATOM     26  S   UNL     1      48.984   8.215  19.458  0.00  0.00    +0.000 S 
ATOM     27  C   UNL     1      49.058   8.365  17.769  0.00  0.00    +0.000 A 
ATOM     28  C   UNL     1      48.992   7.154  17.091  0.00  0.00    +0.000 A 
ATOM     29  C   UNL     1      48.907   6.047  18.043  0.00  0.00    +0.000 A 
BRANCH  21  31
ATOM     30  C   UNL     1      47.703   3.515  16.243  0.00  0.00    +0.000 C 
ATOM     31  O   UNL     1      48.949   4.009  16.731  0.00  0.00    +0.000 OA
ENDBRANCH  21  31
ENDBRANCH  17  28
ENDBRANCH   1  19
TORSDOF 7
ENDMDL
MODEL 4
REMARK VINA RESULT:    -6.565      4.535      9.257
REMARK INTER + INTRA:         -10.548
REMARK INTER:                  -9.762
REMARK INTRA:                  -0.786
REMARK UNBOUND:                -1.296
REMARK  Name = 
REMARK  8 active torsions:
REMARK  status: ('A' for Active; 'I' for Inactive)
REMARK    1  A    between atoms: C_1  and  O_2
REMARK    2  A    between atoms: O_2  and  C_3
REMARK    3  A    between atoms: C_10  and  C_11
REMARK    4  A    between atoms: N_13  and  C_14
REMARK    5  A    between atoms: C_14  and  C_15
REMARK    6  A    between atoms: C_18  and  N_19
REMARK    7  A    between atoms: N_19  and  C_20
REMARK    8  A    between atoms: C_20  and  C_21
REMARK                            x       y       z     vdW  Elec       q    Type
REMARK                         _______ _______ _______ _____ _____    ______ ____
ROOT
ATOM      1  C   UNL     1      47.160   3.410  16.917  0.00  0.00    +0.000 C 
ENDROOT
BRANCH   1   2
ATOM      2  C   UNL     1      48.631   3.226  17.171  0.00  0.00    +0.000 A 
ATOM      3  C   UNL     1      49.350   4.209  17.853  0.00  0.00    +0.000 A 
ATOM      4  C   UNL     1      50.697   4.012  18.170  0.00  0.00    +0.000 A 
ATOM      5  C   UNL     1      51.374   2.839  17.812  0.00  0.00    +0.000 A 
ATOM      6  C   UNL     1      50.660   1.889  17.071  0.00  0.00    +0.000 A 
ATOM      7  C   UNL     1      49.310   2.080  16.745  0.00  0.00    +0.000 A 
BRANCH   5   8
ATOM      8  N   UNL     1      52.654   2.512  18.270  0.00  0.00    +0.000 N 
ATOM      9  H   UNL     1      52.860   2.897  19.188  0.00  0.00    +0.000 HD
BRANCH   8  10
ATOM     10  C   UNL     1      53.214   1.189  18.013  0.00  0.00    +0.000 C 
BRANCH  10  11
ATOM     11  C   UNL     1      54.633   1.000  18.592  0.00  0.00    +0.000 C 
ATOM     12  C   UNL     1      55.733   0.796  17.540  0.00  0.00    +0.000 C 
ATOM     13  C   UNL     1      55.649  -0.570  16.867  0.00  0.00    +0.000 C 
ATOM     14  C   UNL     1      55.558  -1.680  17.908  0.00  0.00    +0.000 C 
ATOM     15  C   UNL     1      54.477  -1.385  18.937  0.00  0.00    +0.000 C 
ATOM     16  O   UNL     1      54.653  -0.096  19.531  0.00  0.00    +0.000 OA
ENDBRANCH  10  11
ENDBRANCH   8  10
ENDBRANCH   5   8
ENDBRANCH   1   2
BRANCH   1  19
ATOM     17  C   UNL     1      46.945   4.302  14.652  0.00  0.00    +0.000 C 
ATOM     18  O   UNL     1      47.209   3.200  14.170  0.00  0.00    +0.000 OA
ATOM     19  N   UNL     1      46.907   4.492  16.003  0.00  0.00    +0.000 N 
ATOM     20  H   UNL     1      46.738   5.411  16.390  0.00  0.00    +0.000 HD
BRANCH  17  28
ATOM     21  C   UNL     1      44.239   5.162  12.694  0.00  0.00    +0.000 A 
ATOM     22  N   UNL     1      43.378   5.702  11.804  0.00  0.00    +0.000 NA
ATOM     23  C   UNL     1      43.725   6.840  11.199  0.00  0.00    +0.000 A 
ATOM     24  N   UNL     1      44.847   7.530  11.378  0.00  0.00    +0.000 NA
ATOM     25  C   UNL     1      45.683   6.955  12.258  0.00  0.00    +0.000 A 
ATOM     26  S   UNL     1      47.161   7.711  12.615  0.00  0.00    +0.000 S 
ATOM     27  C   UNL     1      47.594   6.463  13.682  0.00  0.00    +0.000 A 
ATOM     28  C   UNL     1      46.643   5.455  13.787  0.00  0.00    +0.000 A 
ATOM     29  C   UNL     1      45.483   5.767  12.954  0.00  0.00    +0.000 A 
BRANCH  21  31
ATOM     30  C   UNL     1      43.746   2.871  12.503  0.00  0.00    +0.000 C 
ATOM     31  O   UNL     1      43.861   4.010  13.354  0.00  0.00    +0.000 OA
ENDBRANCH  21  31
ENDBRANCH  17  28
ENDBRANCH   1  19
TORSDOF 7
ENDMDL
MODEL 5
REMARK VINA RESULT:    -6.358      1.653      2.465
REMARK INTER + INTRA:         -10.256
REMARK INTER:                  -8.951
REMARK INTRA:                  -1.305
REMARK UNBOUND:                -1.296
REMARK  Name = 
REMARK  8 active torsions:
REMARK  status: ('A' for Active; 'I' for Inactive)
REMARK    1  A    between atoms: C_1  and  O_2
REMARK    2  A    between atoms: O_2  and  C_3
REMARK    3  A    between atoms: C_10  and  C_11
REMARK    4  A    between atoms: N_13  and  C_14
REMARK    5  A    between atoms: C_14  and  C_15
REMARK    6  A    between atoms: C_18  and  N_19
REMARK    7  A    between atoms: N_19  and  C_20
REMARK    8  A    between atoms: C_20  and  C_21
REMARK                            x       y       z     vdW  Elec       q    Type
REMARK                         _______ _______ _______ _____ _____    ______ ____
ROOT
ATOM      1  C   UNL     1      45.262   7.730  12.687  0.00  0.00    +0.000 C 
ENDROOT
BRANCH   1   2
ATOM      2  C   UNL     1      44.925   6.585  11.772  0.00  0.00    +0.000 A 
ATOM      3  C   UNL     1      45.808   6.221  10.755  0.00  0.00    +0.000 A 
ATOM      4  C   UNL     1      45.546   5.106   9.954  0.00  0.00    +0.000 A 
ATOM      5  C   UNL     1      44.397   4.325  10.130  0.00  0.00    +0.000 A 
ATOM      6  C   UNL     1      43.487   4.738  11.112  0.00  0.00    +0.000 A 
ATOM      7  C   UNL     1      43.740   5.858  11.917  0.00  0.00    +0.000 A 
BRANCH   5   8
ATOM      8  N   UNL     1      44.186   3.099   9.492  0.00  0.00    +0.000 N 
ATOM      9  H   UNL     1      43.445   3.133   8.796  0.00  0.00    +0.000 HD
BRANCH   8  10
ATOM     10  C   UNL     1      45.314   2.238   9.154  0.00  0.00    +0.000 C 
BRANCH  10  11
ATOM     11  C   UNL     1      45.367   1.853   7.659  0.00  0.00    +0.000 C 
ATOM     12  C   UNL     1      46.470   0.849   7.295  0.00  0.00    +0.000 C 
ATOM     13  C   UNL     1      47.863   1.467   7.353  0.00  0.00    +0.000 C 
ATOM     14  C   UNL     1      47.910   2.768   6.562  0.00  0.00    +0.000 C 
ATOM     15  C   UNL     1      46.763   3.691   6.948  0.00  0.00    +0.000 C 
ATOM     16  O   UNL     1      45.498   3.033   6.839  0.00  0.00    +0.000 OA
ENDBRANCH  10  11
ENDBRANCH   8  10
ENDBRANCH   5   8
ENDBRANCH   1   2
BRANCH   1  19
ATOM     17  C   UNL     1      47.561   7.830  13.509  0.00  0.00    +0.000 C 
ATOM     18  O   UNL     1      47.889   8.554  12.569  0.00  0.00    +0.000 OA
ATOM     19  N   UNL     1      46.281   7.372  13.638  0.00  0.00    +0.000 N 
ATOM     20  H   UNL     1      46.033   6.738  14.385  0.00  0.00    +0.000 HD
BRANCH  17  28
ATOM     21  C   UNL     1      47.849   5.103  15.601  0.00  0.00    +0.000 A 
ATOM     22  N   UNL     1      48.162   4.216  16.571  0.00  0.00    +0.000 NA
ATOM     23  C   UNL     1      49.225   4.468  17.339  0.00  0.00    +0.000 A 
ATOM     24  N   UNL     1      50.039   5.515  17.257  0.00  0.00    +0.000 NA
ATOM     25  C   UNL     1      49.688   6.381  16.292  0.00  0.00    +0.000 A 
ATOM     26  S   UNL     1      50.628   7.771  16.040  0.00  0.00    +0.000 S 
ATOM     27  C   UNL     1      49.604   8.295  14.792  0.00  0.00    +0.000 A 
ATOM     28  C   UNL     1      48.536   7.442  14.543  0.00  0.00    +0.000 A 
ATOM     29  C   UNL     1      48.604   6.277  15.424  0.00  0.00    +0.000 A 
BRANCH  21  31
ATOM     30  C   UNL     1      47.074   3.863  13.760  0.00  0.00    +0.000 C 
ATOM     31  O   UNL     1      46.779   4.819  14.777  0.00  0.00    +0.000 OA
ENDBRANCH  21  31
ENDBRANCH  17  28
ENDBRANCH   1  19
TORSDOF 7
ENDMDL
MODEL 6
REMARK VINA RESULT:    -6.257      4.583      9.158
REMARK INTER + INTRA:         -10.114
REMARK INTER:                  -9.014
REMARK INTRA:                  -1.100
REMARK UNBOUND:                -1.296
REMARK  Name = 
REMARK  8 active torsions:
REMARK  status: ('A' for Active; 'I' for Inactive)
REMARK    1  A    between atoms: C_1  and  O_2
REMARK    2  A    between atoms: O_2  and  C_3
REMARK    3  A    between atoms: C_10  and  C_11
REMARK    4  A    between atoms: N_13  and  C_14
REMARK    5  A    between atoms: C_14  and  C_15
REMARK    6  A    between atoms: C_18  and  N_19
REMARK    7  A    between atoms: N_19  and  C_20
REMARK    8  A    between atoms: C_20  and  C_21
REMARK                            x       y       z     vdW  Elec       q    Type
REMARK                         _______ _______ _______ _____ _____    ______ ____
ROOT
ATOM      1  C   UNL     1      47.196   3.744  16.739  0.00  0.00    +0.000 C 
ENDROOT
BRANCH   1   2
ATOM      2  C   UNL     1      48.627   3.387  17.036  0.00  0.00    +0.000 A 
ATOM      3  C   UNL     1      49.444   4.288  17.719  0.00  0.00    +0.000 A 
ATOM      4  C   UNL     1      50.749   3.934  18.075  0.00  0.00    +0.000 A 
ATOM      5  C   UNL     1      51.285   2.680  17.755  0.00  0.00    +0.000 A 
ATOM      6  C   UNL     1      50.478   1.809  17.014  0.00  0.00    +0.000 A 
ATOM      7  C   UNL     1      49.169   2.158  16.648  0.00  0.00    +0.000 A 
BRANCH   5   8
ATOM      8  N   UNL     1      52.503   2.208  18.253  0.00  0.00    +0.000 N 
ATOM      9  H   UNL     1      52.699   2.526  19.199  0.00  0.00    +0.000 HD
BRANCH   8  10
ATOM     10  C   UNL     1      52.948   0.851  17.951  0.00  0.00    +0.000 C 
BRANCH  10  11
ATOM     11  C   UNL     1      54.421   0.588  18.334  0.00  0.00    +0.000 C 
ATOM     12  C   UNL     1      55.347   0.283  17.147  0.00  0.00    +0.000 C 
ATOM     13  C   UNL     1      55.087  -1.094  16.545  0.00  0.00    +0.000 C 
ATOM     14  C   UNL     1      55.078  -2.165  17.630  0.00  0.00    +0.000 C 
ATOM     15  C   UNL     1      54.173  -1.771  18.788  0.00  0.00    +0.000 C 
ATOM     16  O   UNL     1      54.508  -0.478  19.302  0.00  0.00    +0.000 OA
ENDBRANCH  10  11
ENDBRANCH   8  10
ENDBRANCH   5   8
ENDBRANCH   1   2
BRANCH   1  19
ATOM     17  C   UNL     1      46.998   4.395  14.393  0.00  0.00    +0.000 C 
ATOM     18  O   UNL     1      47.002   3.215  14.043  0.00  0.00    +0.000 OA
ATOM     19  N   UNL     1      47.097   4.744  15.709  0.00  0.00    +0.000 N 
ATOM     20  H   UNL     1      47.143   5.716  15.983  0.00  0.00    +0.000 HD
BRANCH  17  28
ATOM     21  C   UNL     1      48.829   7.244  13.736  0.00  0.00    +0.000 A 
ATOM     22  N   UNL     1      49.295   8.440  13.316  0.00  0.00    +0.000 NA
ATOM     23  C   UNL     1      48.639   9.065  12.336  0.00  0.00    +0.000 A 
ATOM     24  N   UNL     1      47.554   8.636  11.700  0.00  0.00    +0.000 NA
ATOM     25  C   UNL     1      47.112   7.452  12.155  0.00  0.00    +0.000 A 
ATOM     26  S   UNL     1      45.738   6.750  11.446  0.00  0.00    +0.000 S 
ATOM     27  C   UNL     1      45.817   5.420  12.498  0.00  0.00    +0.000 A 
ATOM     28  C   UNL     1      46.870   5.479  13.404  0.00  0.00    +0.000 A 
ATOM     29  C   UNL     1      47.664   6.685  13.177  0.00  0.00    +0.000 A 
BRANCH  21  31
ATOM     30  C   UNL     1      50.521   7.376  15.363  0.00  0.00    +0.000 C 
ATOM     31  O   UNL     1      49.533   6.575  14.717  0.00  0.00    +0.000 OA
ENDBRANCH  21  31
ENDBRANCH  17  28
ENDBRANCH   1  19
TORSDOF 7
ENDMDL
MODEL 7
REMARK VINA RESULT:    -5.875      3.414      8.930
REMARK INTER + INTRA:          -9.575
REMARK INTER:                  -8.059
REMARK INTRA:                  -1.517
REMARK UNBOUND:                -1.296
REMARK  Name = 
REMARK  8 active torsions:
REMARK  status: ('A' for Active; 'I' for Inactive)
REMARK    1  A    between atoms: C_1  and  O_2
REMARK    2  A    between atoms: O_2  and  C_3
REMARK    3  A    between atoms: C_10  and  C_11
REMARK    4  A    between atoms: N_13  and  C_14
REMARK    5  A    between atoms: C_14  and  C_15
REMARK    6  A    between atoms: C_18  and  N_19
REMARK    7  A    between atoms: N_19  and  C_20
REMARK    8  A    between atoms: C_20  and  C_21
REMARK                            x       y       z     vdW  Elec       q    Type
REMARK                         _______ _______ _______ _____ _____    ______ ____
ROOT
ATOM      1  C   UNL     1      47.510   3.720  16.097  0.00  0.00    +0.000 C 
ENDROOT
BRANCH   1   2
ATOM      2  C   UNL     1      48.020   4.524  17.260  0.00  0.00    +0.000 A 
ATOM      3  C   UNL     1      49.388   4.762  17.398  0.00  0.00    +0.000 A 
ATOM      4  C   UNL     1      49.867   5.578  18.427  0.00  0.00    +0.000 A 
ATOM      5  C   UNL     1      49.004   6.177  19.354  0.00  0.00    +0.000 A 
ATOM      6  C   UNL     1      47.640   5.880  19.244  0.00  0.00    +0.000 A 
ATOM      7  C   UNL     1      47.152   5.057  18.218  0.00  0.00    +0.000 A 
BRANCH   5   8
ATOM      8  N   UNL     1      49.408   7.149  20.274  0.00  0.00    +0.000 N 
ATOM      9  H   UNL     1      49.763   6.755  21.143  0.00  0.00    +0.000 HD
BRANCH   8  10
ATOM     10  C   UNL     1      50.086   8.359  19.821  0.00  0.00    +0.000 C 
BRANCH  10  11
ATOM     11  C   UNL     1      49.313   9.656  20.147  0.00  0.00    +0.000 C 
ATOM     12  C   UNL     1      47.795   9.568  19.933  0.00  0.00    +0.000 C 
ATOM     13  C   UNL     1      47.417   9.519  18.456  0.00  0.00    +0.000 C 
ATOM     14  C   UNL     1      48.098  10.646  17.688  0.00  0.00    +0.000 C 
ATOM     15  C   UNL     1      49.589  10.694  17.984  0.00  0.00    +0.000 C 
ATOM     16  O   UNL     1      49.845  10.763  19.390  0.00  0.00    +0.000 OA
ENDBRANCH  10  11
ENDBRANCH   8  10
ENDBRANCH   5   8
ENDBRANCH   1   2
BRANCH   1  19
ATOM     17  C   UNL     1      46.490   4.086  13.907  0.00  0.00    +0.000 C 
ATOM     18  O   UNL     1      46.859   2.975  13.526  0.00  0.00    +0.000 OA
ATOM     19  N   UNL     1      46.777   4.535  15.164  0.00  0.00    +0.000 N 
ATOM     20  H   UNL     1      46.514   5.467  15.451  0.00  0.00    +0.000 HD
BRANCH  17  28
ATOM     21  C   UNL     1      46.663   7.447  13.153  0.00  0.00    +0.000 A 
ATOM     22  N   UNL     1      46.448   8.716  12.742  0.00  0.00    +0.000 NA
ATOM     23  C   UNL     1      45.420   8.950  11.923  0.00  0.00    +0.000 A 
ATOM     24  N   UNL     1      44.562   8.056  11.443  0.00  0.00    +0.000 NA
ATOM     25  C   UNL     1      44.799   6.809  11.884  0.00  0.00    +0.000 A 
ATOM     26  S   UNL     1      43.803   5.539  11.360  0.00  0.00    +0.000 S 
ATOM     27  C   UNL     1      44.664   4.415  12.297  0.00  0.00    +0.000 A 
ATOM     28  C   UNL     1      45.710   4.970  13.024  0.00  0.00    +0.000 A 
ATOM     29  C   UNL     1      45.809   6.403  12.752  0.00  0.00    +0.000 A 
BRANCH  21  31
ATOM     30  C   UNL     1      48.974   7.027  13.244  0.00  0.00    +0.000 C 
ATOM     31  O   UNL     1      47.753   7.198  13.962  0.00  0.00    +0.000 OA
ENDBRANCH  21  31
ENDBRANCH  17  28
ENDBRANCH   1  19
TORSDOF 7
ENDMDL
MODEL 8
REMARK VINA RESULT:    -5.838      3.436      9.089
REMARK INTER + INTRA:          -9.523
REMARK INTER:                  -8.111
REMARK INTRA:                  -1.412
REMARK UNBOUND:                -1.296
REMARK  Name = 
REMARK  8 active torsions:
REMARK  status: ('A' for Active; 'I' for Inactive)
REMARK    1  A    between atoms: C_1  and  O_2
REMARK    2  A    between atoms: O_2  and  C_3
REMARK    3  A    between atoms: C_10  and  C_11
REMARK    4  A    between atoms: N_13  and  C_14
REMARK    5  A    between atoms: C_14  and  C_15
REMARK    6  A    between atoms: C_18  and  N_19
REMARK    7  A    between atoms: N_19  and  C_20
REMARK    8  A    between atoms: C_20  and  C_21
REMARK                            x       y       z     vdW  Elec       q    Type
REMARK                         _______ _______ _______ _____ _____    ______ ____
ROOT
ATOM      1  C   UNL     1      47.311   3.670  15.755  0.00  0.00    +0.000 C 
ENDROOT
BRANCH   1   2
ATOM      2  C   UNL     1      48.013   4.393  16.871  0.00  0.00    +0.000 A 
ATOM      3  C   UNL     1      48.183   3.772  18.109  0.00  0.00    +0.000 A 
ATOM      4  C   UNL     1      48.908   4.400  19.125  0.00  0.00    +0.000 A 
ATOM      5  C   UNL     1      49.477   5.668  18.949  0.00  0.00    +0.000 A 
ATOM      6  C   UNL     1      49.245   6.309  17.725  0.00  0.00    +0.000 A 
ATOM      7  C   UNL     1      48.515   5.687  16.701  0.00  0.00    +0.000 A 
BRANCH   5   8
ATOM      8  N   UNL     1      50.367   6.251  19.855  0.00  0.00    +0.000 N 
ATOM      9  H   UNL     1      49.914   6.887  20.507  0.00  0.00    +0.000 HD
BRANCH   8  10
ATOM     10  C   UNL     1      51.470   5.474  20.412  0.00  0.00    +0.000 C 
BRANCH  10  11
ATOM     11  C   UNL     1      52.741   5.494  19.536  0.00  0.00    +0.000 C 
ATOM     12  C   UNL     1      52.575   4.849  18.152  0.00  0.00    +0.000 C 
ATOM     13  C   UNL     1      52.454   3.331  18.229  0.00  0.00    +0.000 C 
ATOM     14  C   UNL     1      53.580   2.740  19.069  0.00  0.00    +0.000 C 
ATOM     15  C   UNL     1      53.708   3.459  20.404  0.00  0.00    +0.000 C 
ATOM     16  O   UNL     1      53.842   4.872  20.231  0.00  0.00    +0.000 OA
ENDBRANCH  10  11
ENDBRANCH   8  10
ENDBRANCH   5   8
ENDBRANCH   1   2
BRANCH   1  19
ATOM     17  C   UNL     1      46.135   4.174  13.674  0.00  0.00    +0.000 C 
ATOM     18  O   UNL     1      46.310   3.024  13.271  0.00  0.00    +0.000 OA
ATOM     19  N   UNL     1      46.604   4.577  14.891  0.00  0.00    +0.000 N 
ATOM     20  H   UNL     1      46.499   5.537  15.192  0.00  0.00    +0.000 HD
BRANCH  17  28
ATOM     21  C   UNL     1      46.608   7.519  12.977  0.00  0.00    +0.000 A 
ATOM     22  N   UNL     1      46.500   8.814  12.607  0.00  0.00    +0.000 NA
ATOM     23  C   UNL     1      45.451   9.173  11.864  0.00  0.00    +0.000 A 
ATOM     24  N   UNL     1      44.475   8.385  11.425  0.00  0.00    +0.000 NA
ATOM     25  C   UNL     1      44.609   7.110  11.824  0.00  0.00    +0.000 A 
ATOM     26  S   UNL     1      43.454   5.963  11.342  0.00  0.00    +0.000 S 
ATOM     27  C   UNL     1      44.252   4.732  12.197  0.00  0.00    +0.000 A 
ATOM     28  C   UNL     1      45.396   5.157  12.863  0.00  0.00    +0.000 A 
ATOM     29  C   UNL     1      45.625   6.579  12.614  0.00  0.00    +0.000 A 
BRANCH  21  31
ATOM     30  C   UNL     1      48.869   6.880  12.907  0.00  0.00    +0.000 C 
ATOM     31  O   UNL     1      47.716   7.137  13.706  0.00  0.00    +0.000 OA
ENDBRANCH  21  31
ENDBRANCH  17  28
ENDBRANCH   1  19
TORSDOF 7
ENDMDL
MODEL 9
REMARK VINA RESULT:    -5.813      3.459      5.540
REMARK INTER + INTRA:          -9.488
REMARK INTER:                  -8.287
REMARK INTRA:                  -1.201
REMARK UNBOUND:                -1.296
REMARK  Name = 
REMARK  8 active torsions:
REMARK  status: ('A' for Active; 'I' for Inactive)
REMARK    1  A    between atoms: C_1  and  O_2
REMARK    2  A    between atoms: O_2  and  C_3
REMARK    3  A    between atoms: C_10  and  C_11
REMARK    4  A    between atoms: N_13  and  C_14
REMARK    5  A    between atoms: C_14  and  C_15
REMARK    6  A    between atoms: C_18  and  N_19
REMARK    7  A    between atoms: N_19  and  C_20
REMARK    8  A    between atoms: C_20  and  C_21
REMARK                            x       y       z     vdW  Elec       q    Type
REMARK                         _______ _______ _______ _____ _____    ______ ____
ROOT
ATOM      1  C   UNL     1      48.609   3.350  18.146  0.00  0.00    +0.000 C 
ENDROOT
BRANCH   1   2
ATOM      2  C   UNL     1      48.267   4.130  16.907  0.00  0.00    +0.000 A 
ATOM      3  C   UNL     1      47.455   3.560  15.925  0.00  0.00    +0.000 A 
ATOM      4  C   UNL     1      47.061   4.305  14.810  0.00  0.00    +0.000 A 
ATOM      5  C   UNL     1      47.467   5.633  14.630  0.00  0.00    +0.000 A 
ATOM      6  C   UNL     1      48.334   6.173  15.588  0.00  0.00    +0.000 A 
ATOM      7  C   UNL     1      48.738   5.431  16.708  0.00  0.00    +0.000 A 
BRANCH   5   8
ATOM      8  N   UNL     1      46.949   6.476  13.643  0.00  0.00    +0.000 N 
ATOM      9  H   UNL     1      47.391   7.392  13.626  0.00  0.00    +0.000 HD
BRANCH   8  10
ATOM     10  C   UNL     1      46.579   5.943  12.335  0.00  0.00    +0.000 C 
BRANCH  10  11
ATOM     11  C   UNL     1      45.115   6.238  11.942  0.00  0.00    +0.000 C 
ATOM     12  C   UNL     1      44.069   5.738  12.950  0.00  0.00    +0.000 C 
ATOM     13  C   UNL     1      43.936   4.219  12.946  0.00  0.00    +0.000 C 
ATOM     14  C   UNL     1      43.745   3.697  11.527  0.00  0.00    +0.000 C 
ATOM     15  C   UNL     1      44.792   4.269  10.582  0.00  0.00    +0.000 C 
ATOM     16  O   UNL     1      44.825   5.698  10.636  0.00  0.00    +0.000 OA
ENDBRANCH  10  11
ENDBRANCH   8  10
ENDBRANCH   5   8
ENDBRANCH   1   2
BRANCH   1  19
ATOM     17  C   UNL     1      50.697   2.286  17.456  0.00  0.00    +0.000 C 
ATOM     18  O   UNL     1      50.108   1.644  16.586  0.00  0.00    +0.000 OA
ATOM     19  N   UNL     1      50.028   3.148  18.276  0.00  0.00    +0.000 N 
ATOM     20  H   UNL     1      50.512   3.633  19.020  0.00  0.00    +0.000 HD
BRANCH  17  28
ATOM     21  C   UNL     1      53.267   4.571  17.729  0.00  0.00    +0.000 A 
ATOM     22  N   UNL     1      54.451   5.219  17.780  0.00  0.00    +0.000 NA
ATOM     23  C   UNL     1      55.567   4.490  17.856  0.00  0.00    +0.000 A 
ATOM     24  N   UNL     1      55.655   3.165  17.895  0.00  0.00    +0.000 NA
ATOM     25  C   UNL     1      54.460   2.556  17.828  0.00  0.00    +0.000 A 
ATOM     26  S   UNL     1      54.387   0.861  17.877  0.00  0.00    +0.000 S 
ATOM     27  C   UNL     1      52.695   0.883  17.729  0.00  0.00    +0.000 A 
ATOM     28  C   UNL     1      52.154   2.159  17.635  0.00  0.00    +0.000 A 
ATOM     29  C   UNL     1      53.212   3.164  17.725  0.00  0.00    +0.000 A 
BRANCH  21  31
ATOM     30  C   UNL     1      52.340   6.724  17.554  0.00  0.00    +0.000 C 
ATOM     31  O   UNL     1      52.110   5.323  17.697  0.00  0.00    +0.000 OA
ENDBRANCH  21  31
ENDBRANCH  17  28
ENDBRANCH   1  19
TORSDOF 7
ENDMDL
