MODEL 1
REMARK VINA RESULT:    -7.728      0.000      0.000
REMARK INTER + INTRA:         -10.034
REMARK INTER:                  -9.535
REMARK INTRA:                  -0.499
REMARK UNBOUND:                -0.499
REMARK  Name = 
REMARK  5 active torsions:
REMARK  status: ('A' for Active; 'I' for Inactive)
REMARK    1  A    between atoms: C_1  and  C_2
REMARK    2  A    between atoms: C_2  and  C_3
REMARK    3  A    between atoms: C_2  and  C_14
REMARK    4  A    between atoms: C_3  and  N_4
REMARK    5  A    between atoms: C_8  and  C_9
REMARK                            x       y       z     vdW  Elec       q    Type
REMARK                         _______ _______ _______ _____ _____    ______ ____
ROOT
ATOM      1  N   UNL     1      44.269   5.141   9.674  0.00  0.00    +0.000 N 
ATOM      2  C   UNL     1      44.964   4.085   9.051  0.00  0.00    +0.000 A 
ATOM      3  C   UNL     1      45.879   4.375   8.040  0.00  0.00    +0.000 A 
ATOM      4  C   UNL     1      46.589   3.334   7.433  0.00  0.00    +0.000 A 
ATOM      5  C   UNL     1      46.371   2.016   7.840  0.00  0.00    +0.000 A 
ATOM      6  C   UNL     1      45.424   1.817   8.830  0.00  0.00    +0.000 A 
ATOM      7  N   UNL     1      44.727   2.813   9.428  0.00  0.00    +0.000 NA
ATOM      8  H   UNL     1      44.956   5.804  10.014  0.00  0.00    +0.000 HD
ENDROOT
BRANCH   5   9
ATOM      9  C   UNL     1      47.143   0.913   7.227  0.00  0.00    +0.000 C 
ATOM     10  N   UNL     1      46.859  -0.380   7.579  0.00  0.00    +0.000 N 
ATOM     11  O   UNL     1      48.039   1.141   6.419  0.00  0.00    +0.000 OA
ATOM     12  H   UNL     1      46.159  -0.678   8.240  0.00  0.00    +0.000 HD
ATOM     13  H   UNL     1      47.425  -1.101   7.149  0.00  0.00    +0.000 HD
ENDBRANCH   5   9
BRANCH   1  14
ATOM     14  C   UNL     1      43.388   4.662  10.735  0.00  0.00    +0.000 C 
BRANCH  14  16
ATOM     15  C   UNL     1      43.037   5.066  13.265  0.00  0.00    +0.000 C 
ATOM     16  C   UNL     1      43.970   4.955  12.092  0.00  0.00    +0.000 C 
BRANCH  16  17
ATOM     17  C   UNL     1      45.247   5.794  12.101  0.00  0.00    +0.000 C 
ATOM     18  C   UNL     1      46.379   5.139  12.913  0.00  0.00    +0.000 C 
ATOM     19  C   UNL     1      47.638   6.002  12.949  0.00  0.00    +0.000 C 
ATOM     20  C   UNL     1      47.333   7.400  13.478  0.00  0.00    +0.000 C 
ATOM     21  C   UNL     1      46.249   8.077  12.648  0.00  0.00    +0.000 C 
ATOM     22  C   UNL     1      44.976   7.232  12.586  0.00  0.00    +0.000 C 
ENDBRANCH  16  17
ENDBRANCH  14  16
ENDBRANCH   1  14
TORSDOF 4
ENDMDL
MODEL 2
REMARK VINA RESULT:    -7.599      1.439      1.813
REMARK INTER + INTRA:          -9.875
REMARK INTER:                  -9.314
REMARK INTRA:                  -0.561
REMARK UNBOUND:                -0.499
REMARK  Name = 
REMARK  5 active torsions:
REMARK  status: ('A' for Active; 'I' for Inactive)
REMARK    1  A    between atoms: C_1  and  C_2
REMARK    2  A    between atoms: C_2  and  C_3
REMARK    3  A    between atoms: C_2  and  C_14
REMARK    4  A    between atoms: C_3  and  N_4
REMARK    5  A    between atoms: C_8  and  C_9
REMARK                            x       y       z     vdW  Elec       q    Type
REMARK                         _______ _______ _______ _____ _____    ______ ____
ROOT
ATOM      1  N   UNL     1      43.947   2.911  10.348  0.00  0.00    +0.000 N 
ATOM      2  C   UNL     1      44.875   2.787   9.295  0.00  0.00    +0.000 A 
ATOM      3  C   UNL     1      45.293   1.516   8.903  0.00  0.00    +0.000 A 
ATOM      4  C   UNL     1      46.197   1.384   7.844  0.00  0.00    +0.000 A 
ATOM      5  C   UNL     1      46.676   2.523   7.193  0.00  0.00    +0.000 A 
ATOM      6  C   UNL     1      46.230   3.745   7.667  0.00  0.00    +0.000 A 
ATOM      7  N   UNL     1      45.356   3.891   8.692  0.00  0.00    +0.000 NA
ATOM      8  H   UNL     1      43.141   2.342  10.117  0.00  0.00    +0.000 HD
ENDROOT
BRANCH   5   9
ATOM      9  C   UNL     1      47.605   2.390   6.051  0.00  0.00    +0.000 C 
ATOM     10  N   UNL     1      47.524   3.280   5.013  0.00  0.00    +0.000 N 
ATOM     11  O   UNL     1      48.437   1.486   6.014  0.00  0.00    +0.000 OA
ATOM     12  H   UNL     1      46.872   4.045   4.934  0.00  0.00    +0.000 HD
ATOM     13  H   UNL     1      48.167   3.139   4.244  0.00  0.00    +0.000 HD
ENDBRANCH   5   9
BRANCH   1  14
ATOM     14  C   UNL     1      43.589   4.304  10.596  0.00  0.00    +0.000 C 
BRANCH  14  16
ATOM     15  C   UNL     1      43.005   5.398  12.866  0.00  0.00    +0.000 C 
ATOM     16  C   UNL     1      44.016   4.734  11.975  0.00  0.00    +0.000 C 
BRANCH  16  17
ATOM     17  C   UNL     1      45.483   5.131  12.123  0.00  0.00    +0.000 C 
ATOM     18  C   UNL     1      45.963   5.091  13.585  0.00  0.00    +0.000 C 
ATOM     19  C   UNL     1      47.420   5.528  13.727  0.00  0.00    +0.000 C 
ATOM     20  C   UNL     1      47.641   6.912  13.125  0.00  0.00    +0.000 C 
ATOM     21  C   UNL     1      47.216   6.948  11.662  0.00  0.00    +0.000 C 
ATOM     22  C   UNL     1      45.763   6.507  11.485  0.00  0.00    +0.000 C 
ENDBRANCH  16  17
ENDBRANCH  14  16
ENDBRANCH   1  14
TORSDOF 4
ENDMDL
MODEL 3
REMARK VINA RESULT:    -7.061      3.398      7.053
REMARK INTER + INTRA:          -9.211
REMARK INTER:                  -8.809
REMARK INTRA:                  -0.402
REMARK UNBOUND:                -0.499
REMARK  Name = 
REMARK  5 active torsions:
REMARK  status: ('A' for Active; 'I' for Inactive)
REMARK    1  A    between atoms: C_1  and  C_2
REMARK    2  A    between atoms: C_2  and  C_3
REMARK    3  A    between atoms: C_2  and  C_14
REMARK    4  A    between atoms: C_3  and  N_4
REMARK    5  A    between atoms: C_8  and  C_9
REMARK                            x       y       z     vdW  Elec       q    Type
REMARK                         _______ _______ _______ _____ _____    ______ ____
ROOT
ATOM      1  N   UNL     1      44.849   6.115  10.320  0.00  0.00    +0.000 N 
ATOM      2  C   UNL     1      45.649   6.756  11.287  0.00  0.00    +0.000 A 
ATOM      3  C   UNL     1      45.057   7.655  12.173  0.00  0.00    +0.000 A 
ATOM      4  C   UNL     1      45.841   8.277  13.150  0.00  0.00    +0.000 A 
ATOM      5  C   UNL     1      47.206   7.997  13.227  0.00  0.00    +0.000 A 
ATOM      6  C   UNL     1      47.716   7.115  12.290  0.00  0.00    +0.000 A 
ATOM      7  N   UNL     1      46.972   6.504  11.337  0.00  0.00    +0.000 NA
ATOM      8  H   UNL     1      44.082   5.663  10.804  0.00  0.00    +0.000 HD
ENDROOT
BRANCH   5   9
ATOM      9  C   UNL     1      48.034   8.626  14.279  0.00  0.00    +0.000 C 
ATOM     10  N   UNL     1      47.421   9.220  15.349  0.00  0.00    +0.000 N 
ATOM     11  O   UNL     1      49.260   8.633  14.199  0.00  0.00    +0.000 OA
ATOM     12  H   UNL     1      46.427   9.285  15.506  0.00  0.00    +0.000 HD
ATOM     13  H   UNL     1      48.026   9.654  16.035  0.00  0.00    +0.000 HD
ENDBRANCH   5   9
BRANCH   1  14
ATOM     14  C   UNL     1      45.621   5.178   9.509  0.00  0.00    +0.000 C 
BRANCH  14  16
ATOM     15  C   UNL     1      43.995   3.320  10.276  0.00  0.00    +0.000 C 
ATOM     16  C   UNL     1      44.810   3.952   9.184  0.00  0.00    +0.000 C 
BRANCH  16  17
ATOM     17  C   UNL     1      45.379   3.050   8.090  0.00  0.00    +0.000 C 
ATOM     18  C   UNL     1      46.027   1.773   8.655  0.00  0.00    +0.000 C 
ATOM     19  C   UNL     1      46.628   0.896   7.557  0.00  0.00    +0.000 C 
ATOM     20  C   UNL     1      47.627   1.679   6.712  0.00  0.00    +0.000 C 
ATOM     21  C   UNL     1      46.981   2.920   6.107  0.00  0.00    +0.000 C 
ATOM     22  C   UNL     1      46.362   3.815   7.181  0.00  0.00    +0.000 C 
ENDBRANCH  16  17
ENDBRANCH  14  16
ENDBRANCH   1  14
TORSDOF 4
ENDMDL
MODEL 4
REMARK VINA RESULT:    -6.590      1.647      2.581
REMARK INTER + INTRA:          -8.630
REMARK INTER:                  -8.256
REMARK INTRA:                  -0.375
REMARK UNBOUND:                -0.499
REMARK  Name = 
REMARK  5 active torsions:
REMARK  status: ('A' for Active; 'I' for Inactive)
REMARK    1  A    between atoms: C_1  and  C_2
REMARK    2  A    between atoms: C_2  and  C_3
REMARK    3  A    between atoms: C_2  and  C_14
REMARK    4  A    between atoms: C_3  and  N_4
REMARK    5  A    between atoms: C_8  and  C_9
REMARK                            x       y       z     vdW  Elec       q    Type
REMARK                         _______ _______ _______ _____ _____    ______ ____
ROOT
ATOM      1  N   UNL     1      44.330   4.351  10.667  0.00  0.00    +0.000 N 
ATOM      2  C   UNL     1      45.092   3.959   9.548  0.00  0.00    +0.000 A 
ATOM      3  C   UNL     1      45.126   2.614   9.184  0.00  0.00    +0.000 A 
ATOM      4  C   UNL     1      45.863   2.221   8.061  0.00  0.00    +0.000 A 
ATOM      5  C   UNL     1      46.559   3.177   7.319  0.00  0.00    +0.000 A 
ATOM      6  C   UNL     1      46.493   4.485   7.769  0.00  0.00    +0.000 A 
ATOM      7  N   UNL     1      45.787   4.882   8.853  0.00  0.00    +0.000 NA
ATOM      8  H   UNL     1      43.386   4.009  10.531  0.00  0.00    +0.000 HD
ENDROOT
BRANCH   5   9
ATOM      9  C   UNL     1      47.312   2.775   6.111  0.00  0.00    +0.000 C 
ATOM     10  N   UNL     1      48.592   2.307   6.244  0.00  0.00    +0.000 N 
ATOM     11  O   UNL     1      46.810   2.867   4.993  0.00  0.00    +0.000 OA
ATOM     12  H   UNL     1      49.103   2.205   7.108  0.00  0.00    +0.000 HD
ATOM     13  H   UNL     1      49.075   2.061   5.389  0.00  0.00    +0.000 HD
ENDBRANCH   5   9
BRANCH   1  14
ATOM     14  C   UNL     1      44.372   5.795  10.876  0.00  0.00    +0.000 C 
BRANCH  14  16
ATOM     15  C   UNL     1      45.298   5.177  13.210  0.00  0.00    +0.000 C 
ATOM     16  C   UNL     1      45.233   6.143  12.061  0.00  0.00    +0.000 C 
BRANCH  16  17
ATOM     17  C   UNL     1      45.382   7.634  12.359  0.00  0.00    +0.000 C 
ATOM     18  C   UNL     1      44.568   8.514  11.394  0.00  0.00    +0.000 C 
ATOM     19  C   UNL     1      44.754  10.004  11.674  0.00  0.00    +0.000 C 
ATOM     20  C   UNL     1      46.229  10.390  11.643  0.00  0.00    +0.000 C 
ATOM     21  C   UNL     1      47.036   9.559  12.633  0.00  0.00    +0.000 C 
ATOM     22  C   UNL     1      46.864   8.060  12.383  0.00  0.00    +0.000 C 
ENDBRANCH  16  17
ENDBRANCH  14  16
ENDBRANCH   1  14
TORSDOF 4
ENDMDL
MODEL 5
REMARK VINA RESULT:    -6.499      3.344      6.336
REMARK INTER + INTRA:          -8.518
REMARK INTER:                  -7.952
REMARK INTRA:                  -0.565
REMARK UNBOUND:                -0.499
REMARK  Name = 
REMARK  5 active torsions:
REMARK  status: ('A' for Active; 'I' for Inactive)
REMARK    1  A    between atoms: C_1  and  C_2
REMARK    2  A    between atoms: C_2  and  C_3
REMARK    3  A    between atoms: C_2  and  C_14
REMARK    4  A    between atoms: C_3  and  N_4
REMARK    5  A    between atoms: C_8  and  C_9
REMARK                            x       y       z     vdW  Elec       q    Type
REMARK                         _______ _______ _______ _____ _____    ______ ____
ROOT
ATOM      1  N   UNL     1      44.731   4.886  12.580  0.00  0.00    +0.000 N 
ATOM      2  C   UNL     1      45.961   5.569  12.662  0.00  0.00    +0.000 A 
ATOM      3  C   UNL     1      46.678   5.539  13.857  0.00  0.00    +0.000 A 
ATOM      4  C   UNL     1      47.910   6.197  13.939  0.00  0.00    +0.000 A 
ATOM      5  C   UNL     1      48.407   6.880  12.827  0.00  0.00    +0.000 A 
ATOM      6  C   UNL     1      47.615   6.883  11.691  0.00  0.00    +0.000 A 
ATOM      7  N   UNL     1      46.421   6.252  11.595  0.00  0.00    +0.000 NA
ATOM      8  H   UNL     1      44.894   3.924  12.857  0.00  0.00    +0.000 HD
ENDROOT
BRANCH   5   9
ATOM      9  C   UNL     1      49.724   7.549  12.896  0.00  0.00    +0.000 C 
ATOM     10  N   UNL     1      50.553   7.510  11.806  0.00  0.00    +0.000 N 
ATOM     11  O   UNL     1      50.088   8.126  13.918  0.00  0.00    +0.000 OA
ATOM     12  H   UNL     1      50.361   7.055  10.927  0.00  0.00    +0.000 HD
ATOM     13  H   UNL     1      51.452   7.965  11.904  0.00  0.00    +0.000 HD
ENDBRANCH   5   9
BRANCH   1  14
ATOM     14  C   UNL     1      44.141   4.986  11.248  0.00  0.00    +0.000 C 
BRANCH  14  16
ATOM     15  C   UNL     1      43.437   2.498  11.304  0.00  0.00    +0.000 C 
ATOM     16  C   UNL     1      44.092   3.638  10.578  0.00  0.00    +0.000 C 
BRANCH  16  17
ATOM     17  C   UNL     1      45.249   3.325   9.631  0.00  0.00    +0.000 C 
ATOM     18  C   UNL     1      45.402   4.376   8.516  0.00  0.00    +0.000 C 
ATOM     19  C   UNL     1      46.537   4.033   7.552  0.00  0.00    +0.000 C 
ATOM     20  C   UNL     1      46.354   2.640   6.959  0.00  0.00    +0.000 C 
ATOM     21  C   UNL     1      46.253   1.586   8.055  0.00  0.00    +0.000 C 
ATOM     22  C   UNL     1      45.130   1.905   9.043  0.00  0.00    +0.000 C 
ENDBRANCH  16  17
ENDBRANCH  14  16
ENDBRANCH   1  14
TORSDOF 4
ENDMDL
MODEL 6
REMARK VINA RESULT:    -6.458      4.217      7.050
REMARK INTER + INTRA:          -8.467
REMARK INTER:                  -8.103
REMARK INTRA:                  -0.364
REMARK UNBOUND:                -0.499
REMARK  Name = 
REMARK  5 active torsions:
REMARK  status: ('A' for Active; 'I' for Inactive)
REMARK    1  A    between atoms: C_1  and  C_2
REMARK    2  A    between atoms: C_2  and  C_3
REMARK    3  A    between atoms: C_2  and  C_14
REMARK    4  A    between atoms: C_3  and  N_4
REMARK    5  A    between atoms: C_8  and  C_9
REMARK                            x       y       z     vdW  Elec       q    Type
REMARK                         _______ _______ _______ _____ _____    ______ ____
ROOT
ATOM      1  N   UNL     1      46.263   5.583  12.401  0.00  0.00    +0.000 N 
ATOM      2  C   UNL     1      46.857   5.390  13.665  0.00  0.00    +0.000 A 
ATOM      3  C   UNL     1      47.822   6.294  14.108  0.00  0.00    +0.000 A 
ATOM      4  C   UNL     1      48.399   6.121  15.370  0.00  0.00    +0.000 A 
ATOM      5  C   UNL     1      48.009   5.046  16.171  0.00  0.00    +0.000 A 
ATOM      6  C   UNL     1      47.066   4.183  15.640  0.00  0.00    +0.000 A 
ATOM      7  N   UNL     1      46.498   4.334  14.420  0.00  0.00    +0.000 NA
ATOM      8  H   UNL     1      45.887   6.524  12.378  0.00  0.00    +0.000 HD
ENDROOT
BRANCH   5   9
ATOM      9  C   UNL     1      48.591   4.877  17.520  0.00  0.00    +0.000 C 
ATOM     10  N   UNL     1      47.777   4.513  18.560  0.00  0.00    +0.000 N 
ATOM     11  O   UNL     1      49.787   5.072  17.723  0.00  0.00    +0.000 OA
ATOM     12  H   UNL     1      46.784   4.344  18.509  0.00  0.00    +0.000 HD
ATOM     13  H   UNL     1      48.214   4.427  19.469  0.00  0.00    +0.000 HD
ENDBRANCH   5   9
BRANCH   1  14
ATOM     14  C   UNL     1      45.247   4.573  12.118  0.00  0.00    +0.000 C 
BRANCH  14  16
ATOM     15  C   UNL     1      43.106   5.624  11.119  0.00  0.00    +0.000 C 
ATOM     16  C   UNL     1      44.433   4.952  10.909  0.00  0.00    +0.000 C 
BRANCH  16  17
ATOM     17  C   UNL     1      44.605   4.056   9.684  0.00  0.00    +0.000 C 
ATOM     18  C   UNL     1      44.890   2.590  10.060  0.00  0.00    +0.000 C 
ATOM     19  C   UNL     1      45.100   1.709   8.830  0.00  0.00    +0.000 C 
ATOM     20  C   UNL     1      46.207   2.263   7.938  0.00  0.00    +0.000 C 
ATOM     21  C   UNL     1      45.908   3.698   7.519  0.00  0.00    +0.000 C 
ATOM     22  C   UNL     1      45.685   4.604   8.730  0.00  0.00    +0.000 C 
ENDBRANCH  16  17
ENDBRANCH  14  16
ENDBRANCH   1  14
TORSDOF 4
ENDMDL
MODEL 7
REMARK VINA RESULT:    -6.300      3.159      6.433
REMARK INTER + INTRA:          -8.272
REMARK INTER:                  -8.422
REMARK INTRA:                   0.150
REMARK UNBOUND:                -0.499
REMARK  Name = 
REMARK  5 active torsions:
REMARK  status: ('A' for Active; 'I' for Inactive)
REMARK    1  A    between atoms: C_1  and  C_2
REMARK    2  A    between atoms: C_2  and  C_3
REMARK    3  A    between atoms: C_2  and  C_14
REMARK    4  A    between atoms: C_3  and  N_4
REMARK    5  A    between atoms: C_8  and  C_9
REMARK                            x       y       z     vdW  Elec       q    Type
REMARK                         _______ _______ _______ _____ _____    ______ ____
ROOT
ATOM      1  N   UNL     1      45.217   5.731  10.119  0.00  0.00    +0.000 N 
ATOM      2  C   UNL     1      45.934   5.835  11.328  0.00  0.00    +0.000 A 
ATOM      3  C   UNL     1      47.125   6.561  11.353  0.00  0.00    +0.000 A 
ATOM      4  C   UNL     1      47.829   6.687  12.554  0.00  0.00    +0.000 A 
ATOM      5  C   UNL     1      47.339   6.084  13.714  0.00  0.00    +0.000 A 
ATOM      6  C   UNL     1      46.166   5.359  13.591  0.00  0.00    +0.000 A 
ATOM      7  N   UNL     1      45.471   5.225  12.436  0.00  0.00    +0.000 NA
ATOM      8  H   UNL     1      45.053   6.671   9.776  0.00  0.00    +0.000 HD
ENDROOT
BRANCH   5   9
ATOM      9  C   UNL     1      48.061   6.242  14.995  0.00  0.00    +0.000 C 
ATOM     10  N   UNL     1      48.297   7.500  15.480  0.00  0.00    +0.000 N 
ATOM     11  O   UNL     1      48.461   5.263  15.621  0.00  0.00    +0.000 OA
ATOM     12  H   UNL     1      48.028   8.368  15.043  0.00  0.00    +0.000 HD
ATOM     13  H   UNL     1      48.811   7.562  16.350  0.00  0.00    +0.000 HD
ENDBRANCH   5   9
BRANCH   1  14
ATOM     14  C   UNL     1      43.979   4.976  10.284  0.00  0.00    +0.000 C 
BRANCH  14  16
ATOM     15  C   UNL     1      43.765   2.495  10.979  0.00  0.00    +0.000 C 
ATOM     16  C   UNL     1      44.189   3.519   9.965  0.00  0.00    +0.000 C 
BRANCH  16  17
ATOM     17  C   UNL     1      45.384   3.201   9.069  0.00  0.00    +0.000 C 
ATOM     18  C   UNL     1      45.369   4.004   7.756  0.00  0.00    +0.000 C 
ATOM     19  C   UNL     1      46.546   3.649   6.849  0.00  0.00    +0.000 C 
ATOM     20  C   UNL     1      46.591   2.152   6.565  0.00  0.00    +0.000 C 
ATOM     21  C   UNL     1      46.658   1.349   7.859  0.00  0.00    +0.000 C 
ATOM     22  C   UNL     1      45.496   1.687   8.793  0.00  0.00    +0.000 C 
ENDBRANCH  16  17
ENDBRANCH  14  16
ENDBRANCH   1  14
TORSDOF 4
ENDMDL
MODEL 8
REMARK VINA RESULT:    -6.222      4.660      6.428
REMARK INTER + INTRA:          -8.175
REMARK INTER:                  -7.770
REMARK INTRA:                  -0.405
REMARK UNBOUND:                -0.499
REMARK  Name = 
REMARK  5 active torsions:
REMARK  status: ('A' for Active; 'I' for Inactive)
REMARK    1  A    between atoms: C_1  and  C_2
REMARK    2  A    between atoms: C_2  and  C_3
REMARK    3  A    between atoms: C_2  and  C_14
REMARK    4  A    between atoms: C_3  and  N_4
REMARK    5  A    between atoms: C_8  and  C_9
REMARK                            x       y       z     vdW  Elec       q    Type
REMARK                         _______ _______ _______ _____ _____    ______ ____
ROOT
ATOM      1  N   UNL     1      47.484   5.131  15.381  0.00  0.00    +0.000 N 
ATOM      2  C   UNL     1      46.828   5.118  14.134  0.00  0.00    +0.000 A 
ATOM      3  C   UNL     1      47.001   6.192  13.262  0.00  0.00    +0.000 A 
ATOM      4  C   UNL     1      46.371   6.175  12.014  0.00  0.00    +0.000 A 
ATOM      5  C   UNL     1      45.572   5.088  11.654  0.00  0.00    +0.000 A 
ATOM      6  C   UNL     1      45.433   4.079  12.592  0.00  0.00    +0.000 A 
ATOM      7  N   UNL     1      46.035   4.080  13.805  0.00  0.00    +0.000 NA
ATOM      8  H   UNL     1      48.473   5.276  15.208  0.00  0.00    +0.000 HD
ENDROOT
BRANCH   5   9
ATOM      9  C   UNL     1      44.930   5.047  10.322  0.00  0.00    +0.000 C 
ATOM     10  N   UNL     1      43.566   5.136  10.233  0.00  0.00    +0.000 N 
ATOM     11  O   UNL     1      45.600   4.921   9.300  0.00  0.00    +0.000 OA
ATOM     12  H   UNL     1      42.923   5.226  11.004  0.00  0.00    +0.000 HD
ATOM     13  H   UNL     1      43.169   5.085   9.303  0.00  0.00    +0.000 HD
ENDBRANCH   5   9
BRANCH   1  14
ATOM     14  C   UNL     1      47.228   3.914  16.144  0.00  0.00    +0.000 C 
BRANCH  14  16
ATOM     15  C   UNL     1      47.109   5.303  18.322  0.00  0.00    +0.000 C 
ATOM     16  C   UNL     1      47.613   4.092  17.590  0.00  0.00    +0.000 C 
BRANCH  16  17
ATOM     17  C   UNL     1      48.967   3.512  17.993  0.00  0.00    +0.000 C 
ATOM     18  C   UNL     1      50.040   4.598  18.188  0.00  0.00    +0.000 C 
ATOM     19  C   UNL     1      51.401   4.006  18.553  0.00  0.00    +0.000 C 
ATOM     20  C   UNL     1      51.852   2.982  17.516  0.00  0.00    +0.000 C 
ATOM     21  C   UNL     1      50.817   1.875  17.352  0.00  0.00    +0.000 C 
ATOM     22  C   UNL     1      49.441   2.436  16.995  0.00  0.00    +0.000 C 
ENDBRANCH  16  17
ENDBRANCH  14  16
ENDBRANCH   1  14
TORSDOF 4
ENDMDL
MODEL 9
REMARK VINA RESULT:    -6.215      4.442      7.021
REMARK INTER + INTRA:          -8.167
REMARK INTER:                  -7.625
REMARK INTRA:                  -0.542
REMARK UNBOUND:                -0.499
REMARK  Name = 
REMARK  5 active torsions:
REMARK  status: ('A' for Active; 'I' for Inactive)
REMARK    1  A    between atoms: C_1  and  C_2
REMARK    2  A    between atoms: C_2  and  C_3
REMARK    3  A    between atoms: C_2  and  C_14
REMARK    4  A    between atoms: C_3  and  N_4
REMARK    5  A    between atoms: C_8  and  C_9
REMARK                            x       y       z     vdW  Elec       q    Type
REMARK                         _______ _______ _______ _____ _____    ______ ____
ROOT
ATOM      1  N   UNL     1      48.125   7.048  13.322  0.00  0.00    +0.000 N 
ATOM      2  C   UNL     1      47.990   6.142  14.394  0.00  0.00    +0.000 A 
ATOM      3  C   UNL     1      48.587   6.443  15.618  0.00  0.00    +0.000 A 
ATOM      4  C   UNL     1      48.439   5.558  16.692  0.00  0.00    +0.000 A 
ATOM      5  C   UNL     1      47.701   4.384  16.528  0.00  0.00    +0.000 A 
ATOM      6  C   UNL     1      47.168   4.153  15.271  0.00  0.00    +0.000 A 
ATOM      7  N   UNL     1      47.302   4.997  14.220  0.00  0.00    +0.000 NA
ATOM      8  H   UNL     1      47.807   7.956  13.645  0.00  0.00    +0.000 HD
ENDROOT
BRANCH   5   9
ATOM      9  C   UNL     1      47.512   3.462  17.668  0.00  0.00    +0.000 C 
ATOM     10  N   UNL     1      48.270   3.627  18.797  0.00  0.00    +0.000 N 
ATOM     11  O   UNL     1      46.696   2.545  17.612  0.00  0.00    +0.000 OA
ATOM     12  H   UNL     1      48.975   4.333  18.944  0.00  0.00    +0.000 HD
ATOM     13  H   UNL     1      48.120   2.961  19.545  0.00  0.00    +0.000 HD
ENDBRANCH   5   9
BRANCH   1  14
ATOM     14  C   UNL     1      47.403   6.599  12.136  0.00  0.00    +0.000 C 
BRANCH  14  16
ATOM     15  C   UNL     1      45.901   8.602  12.781  0.00  0.00    +0.000 C 
ATOM     16  C   UNL     1      46.110   7.353  11.972  0.00  0.00    +0.000 C 
BRANCH  16  17
ATOM     17  C   UNL     1      44.889   6.509  11.614  0.00  0.00    +0.000 C 
ATOM     18  C   UNL     1      44.199   5.912  12.853  0.00  0.00    +0.000 C 
ATOM     19  C   UNL     1      43.002   5.038  12.482  0.00  0.00    +0.000 C 
ATOM     20  C   UNL     1      43.405   3.937  11.506  0.00  0.00    +0.000 C 
ATOM     21  C   UNL     1      44.044   4.522  10.252  0.00  0.00    +0.000 C 
ATOM     22  C   UNL     1      45.242   5.410  10.591  0.00  0.00    +0.000 C 
ENDBRANCH  16  17
ENDBRANCH  14  16
ENDBRANCH   1  14
TORSDOF 4
ENDMDL
