MODEL 1
REMARK VINA RESULT:    -6.787      0.000      0.000
REMARK INTER + INTRA:          -9.643
REMARK INTER:                  -8.771
REMARK INTRA:                  -0.872
REMARK UNBOUND:                -0.872
REMARK  Name = 
REMARK  5 active torsions:
REMARK  status: ('A' for Active; 'I' for Inactive)
REMARK    1  A    between atoms: C_2  and  C_20
REMARK    2  A    between atoms: N_3  and  C_4
REMARK    3  A    between atoms: C_4  and  C_5
REMARK    4  A    between atoms: C_8  and  C_9
REMARK    5  A    between atoms: C_10  and  C_11
REMARK                            x       y       z     vdW  Elec       q    Type
REMARK                         _______ _______ _______ _____ _____    ______ ____
ROOT
ATOM      1  C   UNL     1      46.470   8.119  13.306  0.00  0.00    +0.000 C 
ENDROOT
BRANCH   1   2
ATOM      2  C   UNL     1      47.809   8.296  12.638  0.00  0.00    +0.000 A 
ATOM      3  C   UNL     1      48.176   9.548  12.135  0.00  0.00    +0.000 A 
ATOM      4  C   UNL     1      49.408   9.726  11.502  0.00  0.00    +0.000 A 
ATOM      5  C   UNL     1      50.304   8.659  11.358  0.00  0.00    +0.000 A 
ATOM      6  C   UNL     1      49.921   7.398  11.828  0.00  0.00    +0.000 A 
ATOM      7  C   UNL     1      48.683   7.216  12.461  0.00  0.00    +0.000 A 
BRANCH   5   8
ATOM      8  C   UNL     1      51.588   8.816  10.658  0.00  0.00    +0.000 C 
ATOM      9  C   UNL     1      52.417   7.795  10.393  0.00  0.00    +0.000 C 
BRANCH   9  10
ATOM     10  C   UNL     1      53.737   8.047   9.769  0.00  0.00    +0.000 C 
ATOM     11  O   UNL     1      54.583   8.725  10.346  0.00  0.00    +0.000 OA
ATOM     12  N   UNL     1      53.954   7.441   8.555  0.00  0.00    +0.000 N 
ATOM     13  C   UNL     1      52.983   6.809   7.681  0.00  0.00    +0.000 C 
ATOM     14  C   UNL     1      53.836   5.887   6.830  0.00  0.00    +0.000 C 
ATOM     15  C   UNL     1      55.125   6.681   6.639  0.00  0.00    +0.000 C 
ATOM     16  C   UNL     1      55.253   7.517   7.911  0.00  0.00    +0.000 C 
ENDBRANCH   9  10
ENDBRANCH   5   8
ENDBRANCH   1   2
BRANCH   1  19
ATOM     17  O   UNL     1      44.698   7.604  11.174  0.00  0.00    +0.000 OA
ATOM     18  C   UNL     1      45.068   6.668  11.880  0.00  0.00    +0.000 C 
ATOM     19  N   UNL     1      45.882   6.847  12.969  0.00  0.00    +0.000 N 
ATOM     20  H   UNL     1      46.310   6.037  13.400  0.00  0.00    +0.000 HD
BRANCH  18  21
ATOM     21  C   UNL     1      44.607   5.296  11.635  0.00  0.00    +0.000 A 
ATOM     22  C   UNL     1      43.867   4.632  12.605  0.00  0.00    +0.000 A 
ATOM     23  S   UNL     1      43.444   3.038  12.172  0.00  0.00    +0.000 S 
ATOM     24  C   UNL     1      44.194   3.193  10.652  0.00  0.00    +0.000 A 
ATOM     25  N   UNL     1      44.178   2.171   9.756  0.00  0.00    +0.000 NA
ATOM     26  C   UNL     1      44.736   2.445   8.625  0.00  0.00    +0.000 A 
ATOM     27  N   UNL     1      45.324   3.640   8.310  0.00  0.00    +0.000 N 
ATOM     28  C   UNL     1      45.434   4.671   9.215  0.00  0.00    +0.000 A 
ATOM     29  O   UNL     1      46.087   5.677   8.946  0.00  0.00    +0.000 OA
ATOM     30  C   UNL     1      44.778   4.436  10.485  0.00  0.00    +0.000 A 
ATOM     31  H   UNL     1      45.769   3.779   7.418  0.00  0.00    +0.000 HD
ENDBRANCH  18  21
ENDBRANCH   1  19
TORSDOF 5
ENDMDL
MODEL 2
REMARK VINA RESULT:    -6.187      6.089      9.309
REMARK INTER + INTRA:          -8.867
REMARK INTER:                  -8.028
REMARK INTRA:                  -0.839
REMARK UNBOUND:                -0.872
REMARK  Name = 
REMARK  5 active torsions:
REMARK  status: ('A' for Active; 'I' for Inactive)
REMARK    1  A    between atoms: C_2  and  C_20
REMARK    2  A    between atoms: N_3  and  C_4
REMARK    3  A    between atoms: C_4  and  C_5
REMARK    4  A    between atoms: C_8  and  C_9
REMARK    5  A    between atoms: C_10  and  C_11
REMARK                            x       y       z     vdW  Elec       q    Type
REMARK                         _______ _______ _______ _____ _____    ______ ____
ROOT
ATOM      1  C   UNL     1      51.812   7.839  16.149  0.00  0.00    +0.000 C 
ENDROOT
BRANCH   1   2
ATOM      2  C   UNL     1      50.664   7.581  15.208  0.00  0.00    +0.000 A 
ATOM      3  C   UNL     1      50.760   7.972  13.869  0.00  0.00    +0.000 A 
ATOM      4  C   UNL     1      49.701   7.750  12.986  0.00  0.00    +0.000 A 
ATOM      5  C   UNL     1      48.521   7.131  13.419  0.00  0.00    +0.000 A 
ATOM      6  C   UNL     1      48.411   6.774  14.768  0.00  0.00    +0.000 A 
ATOM      7  C   UNL     1      49.472   6.997  15.656  0.00  0.00    +0.000 A 
BRANCH   5   8
ATOM      8  C   UNL     1      47.378   6.926  12.517  0.00  0.00    +0.000 C 
ATOM      9  C   UNL     1      46.107   7.181  12.861  0.00  0.00    +0.000 C 
BRANCH   9  10
ATOM     10  C   UNL     1      45.001   6.858  11.929  0.00  0.00    +0.000 C 
ATOM     11  O   UNL     1      44.578   7.701  11.142  0.00  0.00    +0.000 OA
ATOM     12  N   UNL     1      44.534   5.566  11.975  0.00  0.00    +0.000 N 
ATOM     13  C   UNL     1      44.790   4.555  12.984  0.00  0.00    +0.000 C 
ATOM     14  C   UNL     1      44.499   3.258  12.251  0.00  0.00    +0.000 C 
ATOM     15  C   UNL     1      43.328   3.625  11.344  0.00  0.00    +0.000 C 
ATOM     16  C   UNL     1      43.539   5.104  11.024  0.00  0.00    +0.000 C 
ENDBRANCH   9  10
ENDBRANCH   5   8
ENDBRANCH   1   2
BRANCH   1  19
ATOM     17  O   UNL     1      51.345   6.513  18.594  0.00  0.00    +0.000 OA
ATOM     18  C   UNL     1      52.096   5.997  17.770  0.00  0.00    +0.000 C 
ATOM     19  N   UNL     1      52.418   6.607  16.585  0.00  0.00    +0.000 N 
ATOM     20  H   UNL     1      52.882   6.066  15.865  0.00  0.00    +0.000 HD
BRANCH  18  21
ATOM     21  C   UNL     1      52.752   4.710  18.034  0.00  0.00    +0.000 A 
ATOM     22  C   UNL     1      54.050   4.684  18.529  0.00  0.00    +0.000 A 
ATOM     23  S   UNL     1      54.669   3.109  18.744  0.00  0.00    +0.000 S 
ATOM     24  C   UNL     1      53.207   2.404  18.229  0.00  0.00    +0.000 A 
ATOM     25  N   UNL     1      53.055   1.054  18.197  0.00  0.00    +0.000 NA
ATOM     26  C   UNL     1      51.880   0.659  17.839  0.00  0.00    +0.000 A 
ATOM     27  N   UNL     1      50.846   1.487  17.495  0.00  0.00    +0.000 N 
ATOM     28  C   UNL     1      50.982   2.855  17.436  0.00  0.00    +0.000 A 
ATOM     29  O   UNL     1      50.077   3.558  16.991  0.00  0.00    +0.000 OA
ATOM     30  C   UNL     1      52.267   3.356  17.878  0.00  0.00    +0.000 A 
ATOM     31  H   UNL     1      49.960   1.112  17.196  0.00  0.00    +0.000 HD
ENDBRANCH  18  21
ENDBRANCH   1  19
TORSDOF 5
ENDMDL
MODEL 3
REMARK VINA RESULT:    -5.619      2.633      3.010
REMARK INTER + INTRA:          -8.133
REMARK INTER:                  -7.785
REMARK INTRA:                  -0.348
REMARK UNBOUND:                -0.872
REMARK  Name = 
REMARK  5 active torsions:
REMARK  status: ('A' for Active; 'I' for Inactive)
REMARK    1  A    between atoms: C_2  and  C_20
REMARK    2  A    between atoms: N_3  and  C_4
REMARK    3  A    between atoms: C_4  and  C_5
REMARK    4  A    between atoms: C_8  and  C_9
REMARK    5  A    between atoms: C_10  and  C_11
REMARK                            x       y       z     vdW  Elec       q    Type
REMARK                         _______ _______ _______ _____ _____    ______ ____
ROOT
ATOM      1  C   UNL     1      48.199   8.238  14.380  0.00  0.00    +0.000 C 
ENDROOT
BRANCH   1   2
ATOM      2  C   UNL     1      49.325   8.611  13.451  0.00  0.00    +0.000 A 
ATOM      3  C   UNL     1      49.053   9.314  12.273  0.00  0.00    +0.000 A 
ATOM      4  C   UNL     1      50.083   9.656  11.396  0.00  0.00    +0.000 A 
ATOM      5  C   UNL     1      51.411   9.308  11.675  0.00  0.00    +0.000 A 
ATOM      6  C   UNL     1      51.679   8.572  12.835  0.00  0.00    +0.000 A 
ATOM      7  C   UNL     1      50.645   8.225  13.716  0.00  0.00    +0.000 A 
BRANCH   5   8
ATOM      8  C   UNL     1      52.506   9.623  10.744  0.00  0.00    +0.000 C 
ATOM      9  C   UNL     1      52.327   9.811   9.427  0.00  0.00    +0.000 C 
BRANCH   9  10
ATOM     10  C   UNL     1      53.494  10.031   8.540  0.00  0.00    +0.000 C 
ATOM     11  O   UNL     1      54.637   9.871   8.957  0.00  0.00    +0.000 OA
ATOM     12  N   UNL     1      53.203  10.367   7.239  0.00  0.00    +0.000 N 
ATOM     13  C   UNL     1      51.932  10.792   6.684  0.00  0.00    +0.000 C 
ATOM     14  C   UNL     1      52.085  10.488   5.205  0.00  0.00    +0.000 C 
ATOM     15  C   UNL     1      53.554  10.798   4.934  0.00  0.00    +0.000 C 
ATOM     16  C   UNL     1      54.261  10.485   6.251  0.00  0.00    +0.000 C 
ENDBRANCH   9  10
ENDBRANCH   5   8
ENDBRANCH   1   2
BRANCH   1  19
ATOM     17  O   UNL     1      47.923   5.712  13.158  0.00  0.00    +0.000 OA
ATOM     18  C   UNL     1      46.976   6.495  13.128  0.00  0.00    +0.000 C 
ATOM     19  N   UNL     1      47.054   7.761  13.648  0.00  0.00    +0.000 N 
ATOM     20  H   UNL     1      46.201   8.295  13.769  0.00  0.00    +0.000 HD
BRANCH  18  21
ATOM     21  C   UNL     1      45.712   6.142  12.470  0.00  0.00    +0.000 A 
ATOM     22  C   UNL     1      44.962   7.126  11.839  0.00  0.00    +0.000 A 
ATOM     23  S   UNL     1      43.509   6.549  11.159  0.00  0.00    +0.000 S 
ATOM     24  C   UNL     1      43.853   4.952  11.640  0.00  0.00    +0.000 A 
ATOM     25  N   UNL     1      43.003   3.934  11.343  0.00  0.00    +0.000 NA
ATOM     26  C   UNL     1      43.414   2.770  11.721  0.00  0.00    +0.000 A 
ATOM     27  N   UNL     1      44.588   2.531  12.383  0.00  0.00    +0.000 N 
ATOM     28  C   UNL     1      45.436   3.541  12.774  0.00  0.00    +0.000 A 
ATOM     29  O   UNL     1      46.411   3.304  13.484  0.00  0.00    +0.000 OA
ATOM     30  C   UNL     1      45.048   4.864  12.330  0.00  0.00    +0.000 A 
ATOM     31  H   UNL     1      44.836   1.600  12.676  0.00  0.00    +0.000 HD
ENDBRANCH  18  21
ENDBRANCH   1  19
TORSDOF 5
ENDMDL
MODEL 4
REMARK VINA RESULT:    -5.441      2.183      2.718
REMARK INTER + INTRA:          -7.904
REMARK INTER:                  -7.249
REMARK INTRA:                  -0.655
REMARK UNBOUND:                -0.872
REMARK  Name = 
REMARK  5 active torsions:
REMARK  status: ('A' for Active; 'I' for Inactive)
REMARK    1  A    between atoms: C_2  and  C_20
REMARK    2  A    between atoms: N_3  and  C_4
REMARK    3  A    between atoms: C_4  and  C_5
REMARK    4  A    between atoms: C_8  and  C_9
REMARK    5  A    between atoms: C_10  and  C_11
REMARK                            x       y       z     vdW  Elec       q    Type
REMARK                         _______ _______ _______ _____ _____    ______ ____
ROOT
ATOM      1  C   UNL     1      48.318   8.393  14.521  0.00  0.00    +0.000 C 
ENDROOT
BRANCH   1   2
ATOM      2  C   UNL     1      49.242   8.897  13.443  0.00  0.00    +0.000 A 
ATOM      3  C   UNL     1      48.718   9.578  12.340  0.00  0.00    +0.000 A 
ATOM      4  C   UNL     1      49.558  10.041  11.325  0.00  0.00    +0.000 A 
ATOM      5  C   UNL     1      50.943   9.837  11.389  0.00  0.00    +0.000 A 
ATOM      6  C   UNL     1      51.463   9.123  12.475  0.00  0.00    +0.000 A 
ATOM      7  C   UNL     1      50.620   8.655  13.493  0.00  0.00    +0.000 A 
BRANCH   5   8
ATOM      8  C   UNL     1      51.841  10.281  10.312  0.00  0.00    +0.000 C 
ATOM      9  C   UNL     1      52.391   9.447   9.416  0.00  0.00    +0.000 C 
BRANCH   9  10
ATOM     10  C   UNL     1      53.362   9.957   8.419  0.00  0.00    +0.000 C 
ATOM     11  O   UNL     1      53.917  11.040   8.583  0.00  0.00    +0.000 OA
ATOM     12  N   UNL     1      53.623   9.126   7.356  0.00  0.00    +0.000 N 
ATOM     13  C   UNL     1      52.890   7.945   6.938  0.00  0.00    +0.000 C 
ATOM     14  C   UNL     1      53.910   7.183   6.112  0.00  0.00    +0.000 C 
ATOM     15  C   UNL     1      54.690   8.291   5.410  0.00  0.00    +0.000 C 
ATOM     16  C   UNL     1      54.647   9.467   6.384  0.00  0.00    +0.000 C 
ENDBRANCH   9  10
ENDBRANCH   5   8
ENDBRANCH   1   2
BRANCH   1  19
ATOM     17  O   UNL     1      48.743   5.884  13.306  0.00  0.00    +0.000 OA
ATOM     18  C   UNL     1      47.591   6.289  13.450  0.00  0.00    +0.000 C 
ATOM     19  N   UNL     1      47.307   7.522  13.979  0.00  0.00    +0.000 N 
ATOM     20  H   UNL     1      46.355   7.732  14.251  0.00  0.00    +0.000 HD
BRANCH  18  21
ATOM     21  C   UNL     1      46.439   5.495  13.004  0.00  0.00    +0.000 A 
ATOM     22  C   UNL     1      46.409   4.127  13.239  0.00  0.00    +0.000 A 
ATOM     23  S   UNL     1      45.018   3.357  12.624  0.00  0.00    +0.000 S 
ATOM     24  C   UNL     1      44.381   4.833  12.063  0.00  0.00    +0.000 A 
ATOM     25  N   UNL     1      43.172   4.884  11.444  0.00  0.00    +0.000 NA
ATOM     26  C   UNL     1      42.789   6.073  11.119  0.00  0.00    +0.000 A 
ATOM     27  N   UNL     1      43.508   7.216  11.342  0.00  0.00    +0.000 N 
ATOM     28  C   UNL     1      44.770   7.201  11.891  0.00  0.00    +0.000 A 
ATOM     29  O   UNL     1      45.442   8.228  11.951  0.00  0.00    +0.000 OA
ATOM     30  C   UNL     1      45.229   5.895  12.322  0.00  0.00    +0.000 A 
ATOM     31  H   UNL     1      43.164   8.111  11.037  0.00  0.00    +0.000 HD
ENDBRANCH  18  21
ENDBRANCH   1  19
TORSDOF 5
ENDMDL
MODEL 5
REMARK VINA RESULT:    -5.343      3.088      4.569
REMARK INTER + INTRA:          -7.776
REMARK INTER:                  -6.828
REMARK INTRA:                  -0.948
REMARK UNBOUND:                -0.872
REMARK  Name = 
REMARK  5 active torsions:
REMARK  status: ('A' for Active; 'I' for Inactive)
REMARK    1  A    between atoms: C_2  and  C_20
REMARK    2  A    between atoms: N_3  and  C_4
REMARK    3  A    between atoms: C_4  and  C_5
REMARK    4  A    between atoms: C_8  and  C_9
REMARK    5  A    between atoms: C_10  and  C_11
REMARK                            x       y       z     vdW  Elec       q    Type
REMARK                         _______ _______ _______ _____ _____    ______ ____
ROOT
ATOM      1  C   UNL     1      51.511   8.509  13.794  0.00  0.00    +0.000 C 
ENDROOT
BRANCH   1   2
ATOM      2  C   UNL     1      52.097   8.305  12.421  0.00  0.00    +0.000 A 
ATOM      3  C   UNL     1      51.250   8.122  11.323  0.00  0.00    +0.000 A 
ATOM      4  C   UNL     1      51.777   7.920  10.046  0.00  0.00    +0.000 A 
ATOM      5  C   UNL     1      53.162   7.898   9.834  0.00  0.00    +0.000 A 
ATOM      6  C   UNL     1      54.008   8.044  10.939  0.00  0.00    +0.000 A 
ATOM      7  C   UNL     1      53.482   8.244  12.222  0.00  0.00    +0.000 A 
BRANCH   5   8
ATOM      8  C   UNL     1      53.736   7.646   8.504  0.00  0.00    +0.000 C 
ATOM      9  C   UNL     1      53.219   6.772   7.627  0.00  0.00    +0.000 C 
BRANCH   9  10
ATOM     10  C   UNL     1      53.911   6.503   6.344  0.00  0.00    +0.000 C 
ATOM     11  O   UNL     1      54.275   7.427   5.623  0.00  0.00    +0.000 OA
ATOM     12  N   UNL     1      54.152   5.180   6.058  0.00  0.00    +0.000 N 
ATOM     13  C   UNL     1      53.594   4.006   6.702  0.00  0.00    +0.000 C 
ATOM     14  C   UNL     1      54.595   2.918   6.360  0.00  0.00    +0.000 C 
ATOM     15  C   UNL     1      55.037   3.283   4.946  0.00  0.00    +0.000 C 
ATOM     16  C   UNL     1      54.930   4.805   4.890  0.00  0.00    +0.000 C 
ENDBRANCH   9  10
ENDBRANCH   5   8
ENDBRANCH   1   2
BRANCH   1  19
ATOM     17  O   UNL     1      49.408   8.661  15.666  0.00  0.00    +0.000 OA
ATOM     18  C   UNL     1      49.552   7.629  15.014  0.00  0.00    +0.000 C 
ATOM     19  N   UNL     1      50.584   7.458  14.129  0.00  0.00    +0.000 N 
ATOM     20  H   UNL     1      50.553   6.678  13.483  0.00  0.00    +0.000 HD
BRANCH  18  21
ATOM     21  C   UNL     1      48.654   6.480  15.192  0.00  0.00    +0.000 A 
ATOM     22  C   UNL     1      48.618   5.813  16.410  0.00  0.00    +0.000 A 
ATOM     23  S   UNL     1      47.549   4.484  16.431  0.00  0.00    +0.000 S 
ATOM     24  C   UNL     1      47.060   4.782  14.827  0.00  0.00    +0.000 A 
ATOM     25  N   UNL     1      46.123   4.002  14.226  0.00  0.00    +0.000 NA
ATOM     26  C   UNL     1      45.809   4.374  13.030  0.00  0.00    +0.000 A 
ATOM     27  N   UNL     1      46.354   5.444  12.373  0.00  0.00    +0.000 N 
ATOM     28  C   UNL     1      47.362   6.208  12.914  0.00  0.00    +0.000 A 
ATOM     29  O   UNL     1      47.924   7.073  12.245  0.00  0.00    +0.000 OA
ATOM     30  C   UNL     1      47.719   5.866  14.276  0.00  0.00    +0.000 A 
ATOM     31  H   UNL     1      46.085   5.662  11.428  0.00  0.00    +0.000 HD
ENDBRANCH  18  21
ENDBRANCH   1  19
TORSDOF 5
ENDMDL
MODEL 6
REMARK VINA RESULT:    -5.061      5.279      9.266
REMARK INTER + INTRA:          -7.412
REMARK INTER:                  -6.503
REMARK INTRA:                  -0.909
REMARK UNBOUND:                -0.872
REMARK  Name = 
REMARK  5 active torsions:
REMARK  status: ('A' for Active; 'I' for Inactive)
REMARK    1  A    between atoms: C_2  and  C_20
REMARK    2  A    between atoms: N_3  and  C_4
REMARK    3  A    between atoms: C_4  and  C_5
REMARK    4  A    between atoms: C_8  and  C_9
REMARK    5  A    between atoms: C_10  and  C_11
REMARK                            x       y       z     vdW  Elec       q    Type
REMARK                         _______ _______ _______ _____ _____    ______ ____
ROOT
ATOM      1  C   UNL     1      51.432   9.375  14.210  0.00  0.00    +0.000 C 
ENDROOT
BRANCH   1   2
ATOM      2  C   UNL     1      50.185   8.834  13.561  0.00  0.00    +0.000 A 
ATOM      3  C   UNL     1      49.290   9.708  12.936  0.00  0.00    +0.000 A 
ATOM      4  C   UNL     1      48.124   9.224  12.340  0.00  0.00    +0.000 A 
ATOM      5  C   UNL     1      47.824   7.855  12.351  0.00  0.00    +0.000 A 
ATOM      6  C   UNL     1      48.702   6.986  13.009  0.00  0.00    +0.000 A 
ATOM      7  C   UNL     1      49.872   7.470  13.610  0.00  0.00    +0.000 A 
BRANCH   5   8
ATOM      8  C   UNL     1      46.582   7.330  11.765  0.00  0.00    +0.000 C 
ATOM      9  C   UNL     1      45.453   7.144  12.467  0.00  0.00    +0.000 C 
BRANCH   9  10
ATOM     10  C   UNL     1      44.271   6.520  11.827  0.00  0.00    +0.000 C 
ATOM     11  O   UNL     1      43.477   7.199  11.181  0.00  0.00    +0.000 OA
ATOM     12  N   UNL     1      44.161   5.158  11.967  0.00  0.00    +0.000 N 
ATOM     13  C   UNL     1      44.892   4.285  12.867  0.00  0.00    +0.000 C 
ATOM     14  C   UNL     1      44.761   2.925  12.208  0.00  0.00    +0.000 C 
ATOM     15  C   UNL     1      43.354   2.956  11.619  0.00  0.00    +0.000 C 
ATOM     16  C   UNL     1      43.112   4.425  11.280  0.00  0.00    +0.000 C 
ENDBRANCH   9  10
ENDBRANCH   5   8
ENDBRANCH   1   2
BRANCH   1  19
ATOM     17  O   UNL     1      51.996   9.413  16.973  0.00  0.00    +0.000 OA
ATOM     18  C   UNL     1      52.306   8.422  16.315  0.00  0.00    +0.000 C 
ATOM     19  N   UNL     1      52.118   8.353  14.958  0.00  0.00    +0.000 N 
ATOM     20  H   UNL     1      52.210   7.457  14.495  0.00  0.00    +0.000 HD
BRANCH  18  21
ATOM     21  C   UNL     1      52.961   7.265  16.937  0.00  0.00    +0.000 A 
ATOM     22  C   UNL     1      54.286   7.357  17.345  0.00  0.00    +0.000 A 
ATOM     23  S   UNL     1      54.899   5.913  18.014  0.00  0.00    +0.000 S 
ATOM     24  C   UNL     1      53.400   5.126  17.827  0.00  0.00    +0.000 A 
ATOM     25  N   UNL     1      53.231   3.839  18.231  0.00  0.00    +0.000 NA
ATOM     26  C   UNL     1      52.032   3.387  18.079  0.00  0.00    +0.000 A 
ATOM     27  N   UNL     1      50.989   4.095  17.546  0.00  0.00    +0.000 N 
ATOM     28  C   UNL     1      51.137   5.370  17.051  0.00  0.00    +0.000 A 
ATOM     29  O   UNL     1      50.216   5.924  16.455  0.00  0.00    +0.000 OA
ATOM     30  C   UNL     1      52.452   5.946  17.243  0.00  0.00    +0.000 A 
ATOM     31  H   UNL     1      50.083   3.672  17.428  0.00  0.00    +0.000 HD
ENDBRANCH  18  21
ENDBRANCH   1  19
TORSDOF 5
ENDMDL
MODEL 7
REMARK VINA RESULT:    -4.909      5.146      8.481
REMARK INTER + INTRA:          -7.216
REMARK INTER:                  -6.392
REMARK INTRA:                  -0.824
REMARK UNBOUND:                -0.872
REMARK  Name = 
REMARK  5 active torsions:
REMARK  status: ('A' for Active; 'I' for Inactive)
REMARK    1  A    between atoms: C_2  and  C_20
REMARK    2  A    between atoms: N_3  and  C_4
REMARK    3  A    between atoms: C_4  and  C_5
REMARK    4  A    between atoms: C_8  and  C_9
REMARK    5  A    between atoms: C_10  and  C_11
REMARK                            x       y       z     vdW  Elec       q    Type
REMARK                         _______ _______ _______ _____ _____    ______ ____
ROOT
ATOM      1  C   UNL     1      48.200   9.316  14.703  0.00  0.00    +0.000 C 
ENDROOT
BRANCH   1   2
ATOM      2  C   UNL     1      47.450   8.401  13.771  0.00  0.00    +0.000 A 
ATOM      3  C   UNL     1      46.265   8.838  13.170  0.00  0.00    +0.000 A 
ATOM      4  C   UNL     1      45.551   7.999  12.312  0.00  0.00    +0.000 A 
ATOM      5  C   UNL     1      46.003   6.703  12.033  0.00  0.00    +0.000 A 
ATOM      6  C   UNL     1      47.169   6.252  12.664  0.00  0.00    +0.000 A 
ATOM      7  C   UNL     1      47.886   7.092  13.527  0.00  0.00    +0.000 A 
BRANCH   5   8
ATOM      8  C   UNL     1      45.245   5.788  11.166  0.00  0.00    +0.000 C 
ATOM      9  C   UNL     1      45.158   4.466  11.378  0.00  0.00    +0.000 C 
BRANCH   9  10
ATOM     10  C   UNL     1      44.454   3.598  10.406  0.00  0.00    +0.000 C 
ATOM     11  O   UNL     1      43.376   3.085  10.690  0.00  0.00    +0.000 OA
ATOM     12  N   UNL     1      45.058   3.457   9.180  0.00  0.00    +0.000 N 
ATOM     13  C   UNL     1      46.410   3.822   8.797  0.00  0.00    +0.000 C 
ATOM     14  C   UNL     1      46.316   3.948   7.287  0.00  0.00    +0.000 C 
ATOM     15  C   UNL     1      45.333   2.847   6.905  0.00  0.00    +0.000 C 
ATOM     16  C   UNL     1      44.399   2.731   8.108  0.00  0.00    +0.000 C 
ENDBRANCH   9  10
ENDBRANCH   5   8
ENDBRANCH   1   2
BRANCH   1  19
ATOM     17  O   UNL     1      50.702   8.639  15.814  0.00  0.00    +0.000 OA
ATOM     18  C   UNL     1      49.684   8.440  16.473  0.00  0.00    +0.000 C 
ATOM     19  N   UNL     1      48.429   8.688  15.979  0.00  0.00    +0.000 N 
ATOM     20  H   UNL     1      47.642   8.689  16.617  0.00  0.00    +0.000 HD
BRANCH  18  21
ATOM     21  C   UNL     1      49.746   7.858  17.820  0.00  0.00    +0.000 A 
ATOM     22  C   UNL     1      50.280   8.596  18.868  0.00  0.00    +0.000 A 
ATOM     23  S   UNL     1      50.307   7.757  20.353  0.00  0.00    +0.000 S 
ATOM     24  C   UNL     1      49.562   6.393  19.658  0.00  0.00    +0.000 A 
ATOM     25  N   UNL     1      49.271   5.297  20.408  0.00  0.00    +0.000 NA
ATOM     26  C   UNL     1      48.659   4.360  19.766  0.00  0.00    +0.000 A 
ATOM     27  N   UNL     1      48.324   4.408  18.440  0.00  0.00    +0.000 N 
ATOM     28  C   UNL     1      48.671   5.462  17.627  0.00  0.00    +0.000 A 
ATOM     29  O   UNL     1      48.477   5.412  16.414  0.00  0.00    +0.000 OA
ATOM     30  C   UNL     1      49.316   6.567  18.308  0.00  0.00    +0.000 A 
ATOM     31  H   UNL     1      47.872   3.627  17.992  0.00  0.00    +0.000 HD
ENDBRANCH  18  21
ENDBRANCH   1  19
TORSDOF 5
ENDMDL
