MODEL 1
REMARK VINA RESULT:    -8.305      0.000      0.000
REMARK INTER + INTRA:         -10.819
REMARK INTER:                 -10.248
REMARK INTRA:                  -0.572
REMARK UNBOUND:                -0.572
REMARK  Name = 
REMARK  4 active torsions:
REMARK  status: ('A' for Active; 'I' for Inactive)
REMARK    1  A    between atoms: C_2  and  C_4
REMARK    2  A    between atoms: C_7  and  O_8
REMARK    3  A    between atoms: O_8  and  C_9
REMARK    4  A    between atoms: C_9  and  C_10
REMARK                            x       y       z     vdW  Elec       q    Type
REMARK                         _______ _______ _______ _____ _____    ______ ____
ROOT
ATOM      1  O   UNL     1      43.957   3.632  10.732  0.00  0.00    +0.000 OA
ENDROOT
BRANCH   1   5
ATOM      2  C   UNL     1      46.448   2.736   7.535  0.00  0.00    +0.000 A 
ATOM      3  C   UNL     1      46.117   4.076   7.770  0.00  0.00    +0.000 A 
ATOM      4  C   UNL     1      45.308   4.418   8.857  0.00  0.00    +0.000 A 
ATOM      5  C   UNL     1      44.806   3.416   9.684  0.00  0.00    +0.000 A 
ATOM      6  C   UNL     1      45.168   2.085   9.475  0.00  0.00    +0.000 A 
ATOM      7  C   UNL     1      45.979   1.740   8.394  0.00  0.00    +0.000 A 
BRANCH   2   9
ATOM      8  N   UNL     1      47.228   3.144   5.261  0.00  0.00    +0.000 N 
ATOM      9  C   UNL     1      47.250   2.324   6.351  0.00  0.00    +0.000 C 
ATOM     10  O   UNL     1      47.929   1.304   6.358  0.00  0.00    +0.000 OA
ATOM     11  H   UNL     1      47.842   2.894   4.496  0.00  0.00    +0.000 HD
ATOM     12  H   UNL     1      46.891   4.094   5.301  0.00  0.00    +0.000 HD
ENDBRANCH   2   9
ENDBRANCH   1   5
BRANCH   1  13
ATOM     13  C   UNL     1      43.950   4.931  11.379  0.00  0.00    +0.000 C 
ATOM     14  C   UNL     1      42.633   5.152  12.115  0.00  0.00    +0.000 C 
ATOM     15  C   UNL     1      42.979   6.020  10.954  0.00  0.00    +0.000 C 
BRANCH  13  16
ATOM     16  C   UNL     1      45.243   5.290  12.087  0.00  0.00    +0.000 A 
ATOM     17  C   UNL     1      46.023   6.373  11.643  0.00  0.00    +0.000 A 
ATOM     18  C   UNL     1      47.170   6.784  12.330  0.00  0.00    +0.000 A 
ATOM     19  C   UNL     1      47.571   6.111  13.483  0.00  0.00    +0.000 A 
ATOM     20 CL   UNL     1      48.971   6.693  14.311  0.00  0.00    +0.000 Cl
ATOM     21  C   UNL     1      46.831   5.017  13.934  0.00  0.00    +0.000 A 
ATOM     22 CL   UNL     1      47.263   4.126  15.351  0.00  0.00    +0.000 Cl
ATOM     23  C   UNL     1      45.681   4.616  13.241  0.00  0.00    +0.000 A 
ENDBRANCH  13  16
ENDBRANCH   1  13
TORSDOF 4
ENDMDL
MODEL 2
REMARK VINA RESULT:    -7.558      1.318      1.867
REMARK INTER + INTRA:          -9.897
REMARK INTER:                 -10.111
REMARK INTRA:                   0.214
REMARK UNBOUND:                -0.572
REMARK  Name = 
REMARK  4 active torsions:
REMARK  status: ('A' for Active; 'I' for Inactive)
REMARK    1  A    between atoms: C_2  and  C_4
REMARK    2  A    between atoms: C_7  and  O_8
REMARK    3  A    between atoms: O_8  and  C_9
REMARK    4  A    between atoms: C_9  and  C_10
REMARK                            x       y       z     vdW  Elec       q    Type
REMARK                         _______ _______ _______ _____ _____    ______ ____
ROOT
ATOM      1  O   UNL     1      43.795   4.161  10.252  0.00  0.00    +0.000 OA
ENDROOT
BRANCH   1   5
ATOM      2  C   UNL     1      46.652   2.775   7.579  0.00  0.00    +0.000 A 
ATOM      3  C   UNL     1      46.453   4.156   7.688  0.00  0.00    +0.000 A 
ATOM      4  C   UNL     1      45.523   4.660   8.601  0.00  0.00    +0.000 A 
ATOM      5  C   UNL     1      44.773   3.780   9.377  0.00  0.00    +0.000 A 
ATOM      6  C   UNL     1      45.000   2.406   9.299  0.00  0.00    +0.000 A 
ATOM      7  C   UNL     1      45.930   1.898   8.391  0.00  0.00    +0.000 A 
BRANCH   2   9
ATOM      8  N   UNL     1      47.896   2.965   5.490  0.00  0.00    +0.000 N 
ATOM      9  C   UNL     1      47.583   2.195   6.572  0.00  0.00    +0.000 C 
ATOM     10  O   UNL     1      48.075   1.083   6.718  0.00  0.00    +0.000 OA
ATOM     11  H   UNL     1      48.593   2.591   4.857  0.00  0.00    +0.000 HD
ATOM     12  H   UNL     1      47.716   3.957   5.456  0.00  0.00    +0.000 HD
ENDBRANCH   2   9
ENDBRANCH   1   5
BRANCH   1  13
ATOM     13  C   UNL     1      44.162   4.513  11.611  0.00  0.00    +0.000 C 
ATOM     14  C   UNL     1      44.574   3.268  12.391  0.00  0.00    +0.000 C 
ATOM     15  C   UNL     1      43.354   4.020  12.800  0.00  0.00    +0.000 C 
BRANCH  13  16
ATOM     16  C   UNL     1      45.020   5.758  11.730  0.00  0.00    +0.000 A 
ATOM     17  C   UNL     1      44.459   7.033  11.532  0.00  0.00    +0.000 A 
ATOM     18  C   UNL     1      45.203   8.201  11.725  0.00  0.00    +0.000 A 
ATOM     19  C   UNL     1      46.539   8.122  12.118  0.00  0.00    +0.000 A 
ATOM     20 CL   UNL     1      47.391   9.601  12.383  0.00  0.00    +0.000 Cl
ATOM     21  C   UNL     1      47.129   6.870  12.300  0.00  0.00    +0.000 A 
ATOM     22 CL   UNL     1      48.779   6.685  12.780  0.00  0.00    +0.000 Cl
ATOM     23  C   UNL     1      46.374   5.705  12.107  0.00  0.00    +0.000 A 
ENDBRANCH  13  16
ENDBRANCH   1  13
TORSDOF 4
ENDMDL
MODEL 3
REMARK VINA RESULT:    -7.338      4.303      6.592
REMARK INTER + INTRA:          -9.625
REMARK INTER:                  -9.504
REMARK INTRA:                  -0.121
REMARK UNBOUND:                -0.572
REMARK  Name = 
REMARK  4 active torsions:
REMARK  status: ('A' for Active; 'I' for Inactive)
REMARK    1  A    between atoms: C_2  and  C_4
REMARK    2  A    between atoms: C_7  and  O_8
REMARK    3  A    between atoms: O_8  and  C_9
REMARK    4  A    between atoms: C_9  and  C_10
REMARK                            x       y       z     vdW  Elec       q    Type
REMARK                         _______ _______ _______ _____ _____    ______ ____
ROOT
ATOM      1  O   UNL     1      44.190   5.239  10.713  0.00  0.00    +0.000 OA
ENDROOT
BRANCH   1   5
ATOM      2  C   UNL     1      46.558   8.042  12.654  0.00  0.00    +0.000 A 
ATOM      3  C   UNL     1      47.097   6.777  12.394  0.00  0.00    +0.000 A 
ATOM      4  C   UNL     1      46.341   5.819  11.713  0.00  0.00    +0.000 A 
ATOM      5  C   UNL     1      45.037   6.120  11.324  0.00  0.00    +0.000 A 
ATOM      6  C   UNL     1      44.514   7.394  11.546  0.00  0.00    +0.000 A 
ATOM      7  C   UNL     1      45.267   8.354  12.222  0.00  0.00    +0.000 A 
BRANCH   2   9
ATOM      8  N   UNL     1      47.245   8.986  14.795  0.00  0.00    +0.000 N 
ATOM      9  C   UNL     1      47.305   9.067  13.434  0.00  0.00    +0.000 C 
ATOM     10  O   UNL     1      47.972   9.934  12.883  0.00  0.00    +0.000 OA
ATOM     11  H   UNL     1      47.823   9.637  15.311  0.00  0.00    +0.000 HD
ATOM     12  H   UNL     1      46.921   8.161  15.278  0.00  0.00    +0.000 HD
ENDBRANCH   2   9
ENDBRANCH   1   5
BRANCH   1  13
ATOM     13  C   UNL     1      44.551   3.835  10.659  0.00  0.00    +0.000 C 
ATOM     14  C   UNL     1      43.409   2.971  11.184  0.00  0.00    +0.000 C 
ATOM     15  C   UNL     1      44.702   3.009  11.925  0.00  0.00    +0.000 C 
BRANCH  13  16
ATOM     16  C   UNL     1      45.248   3.412   9.378  0.00  0.00    +0.000 A 
ATOM     17  C   UNL     1      45.662   4.375   8.440  0.00  0.00    +0.000 A 
ATOM     18  C   UNL     1      46.387   4.022   7.297  0.00  0.00    +0.000 A 
ATOM     19  C   UNL     1      46.712   2.687   7.060  0.00  0.00    +0.000 A 
ATOM     20 CL   UNL     1      47.646   2.322   5.654  0.00  0.00    +0.000 Cl
ATOM     21  C   UNL     1      46.294   1.707   7.962  0.00  0.00    +0.000 A 
ATOM     22 CL   UNL     1      46.651   0.031   7.739  0.00  0.00    +0.000 Cl
ATOM     23  C   UNL     1      45.571   2.071   9.106  0.00  0.00    +0.000 A 
ENDBRANCH  13  16
ENDBRANCH   1  13
TORSDOF 4
ENDMDL
MODEL 4
REMARK VINA RESULT:    -6.996      4.391      6.717
REMARK INTER + INTRA:          -9.203
REMARK INTER:                  -8.973
REMARK INTRA:                  -0.231
REMARK UNBOUND:                -0.572
REMARK  Name = 
REMARK  4 active torsions:
REMARK  status: ('A' for Active; 'I' for Inactive)
REMARK    1  A    between atoms: C_2  and  C_4
REMARK    2  A    between atoms: C_7  and  O_8
REMARK    3  A    between atoms: O_8  and  C_9
REMARK    4  A    between atoms: C_9  and  C_10
REMARK                            x       y       z     vdW  Elec       q    Type
REMARK                         _______ _______ _______ _____ _____    ______ ____
ROOT
ATOM      1  O   UNL     1      45.451   5.224  11.261  0.00  0.00    +0.000 OA
ENDROOT
BRANCH   1   5
ATOM      2  C   UNL     1      47.332   4.643  14.916  0.00  0.00    +0.000 A 
ATOM      3  C   UNL     1      46.862   3.524  14.220  0.00  0.00    +0.000 A 
ATOM      4  C   UNL     1      46.254   3.678  12.972  0.00  0.00    +0.000 A 
ATOM      5  C   UNL     1      46.088   4.955  12.440  0.00  0.00    +0.000 A 
ATOM      6  C   UNL     1      46.592   6.067  13.113  0.00  0.00    +0.000 A 
ATOM      7  C   UNL     1      47.203   5.917  14.358  0.00  0.00    +0.000 A 
BRANCH   2   9
ATOM      8  N   UNL     1      47.151   4.915  17.333  0.00  0.00    +0.000 N 
ATOM      9  C   UNL     1      47.924   4.528  16.277  0.00  0.00    +0.000 C 
ATOM     10  O   UNL     1      49.050   4.079  16.452  0.00  0.00    +0.000 OA
ATOM     11  H   UNL     1      47.535   4.754  18.255  0.00  0.00    +0.000 HD
ATOM     12  H   UNL     1      46.154   5.052  17.257  0.00  0.00    +0.000 HD
ENDBRANCH   2   9
ENDBRANCH   1   5
BRANCH   1  13
ATOM     13  C   UNL     1      44.726   4.161  10.591  0.00  0.00    +0.000 C 
ATOM     14  C   UNL     1      43.237   4.486  10.533  0.00  0.00    +0.000 C 
ATOM     15  C   UNL     1      43.703   3.316  11.330  0.00  0.00    +0.000 C 
BRANCH  13  16
ATOM     16  C   UNL     1      45.400   3.631   9.339  0.00  0.00    +0.000 A 
ATOM     17  C   UNL     1      45.915   4.517   8.376  0.00  0.00    +0.000 A 
ATOM     18  C   UNL     1      46.621   4.059   7.259  0.00  0.00    +0.000 A 
ATOM     19  C   UNL     1      46.826   2.692   7.074  0.00  0.00    +0.000 A 
ATOM     20 CL   UNL     1      47.744   2.193   5.699  0.00  0.00    +0.000 Cl
ATOM     21  C   UNL     1      46.306   1.787   8.001  0.00  0.00    +0.000 A 
ATOM     22 CL   UNL     1      46.511   0.079   7.844  0.00  0.00    +0.000 Cl
ATOM     23  C   UNL     1      45.603   2.256   9.119  0.00  0.00    +0.000 A 
ENDBRANCH  13  16
ENDBRANCH   1  13
TORSDOF 4
ENDMDL
MODEL 5
REMARK VINA RESULT:    -6.189      2.274      2.941
REMARK INTER + INTRA:          -8.208
REMARK INTER:                  -8.705
REMARK INTRA:                   0.497
REMARK UNBOUND:                -0.572
REMARK  Name = 
REMARK  4 active torsions:
REMARK  status: ('A' for Active; 'I' for Inactive)
REMARK    1  A    between atoms: C_2  and  C_4
REMARK    2  A    between atoms: C_7  and  O_8
REMARK    3  A    between atoms: O_8  and  C_9
REMARK    4  A    between atoms: C_9  and  C_10
REMARK                            x       y       z     vdW  Elec       q    Type
REMARK                         _______ _______ _______ _____ _____    ______ ____
ROOT
ATOM      1  O   UNL     1      44.329   4.762  11.043  0.00  0.00    +0.000 OA
ENDROOT
BRANCH   1   5
ATOM      2  C   UNL     1      46.212   3.049   7.763  0.00  0.00    +0.000 A 
ATOM      3  C   UNL     1      45.478   2.222   8.621  0.00  0.00    +0.000 A 
ATOM      4  C   UNL     1      44.803   2.768   9.716  0.00  0.00    +0.000 A 
ATOM      5  C   UNL     1      44.893   4.135   9.968  0.00  0.00    +0.000 A 
ATOM      6  C   UNL     1      45.590   4.967   9.091  0.00  0.00    +0.000 A 
ATOM      7  C   UNL     1      46.261   4.426   7.994  0.00  0.00    +0.000 A 
BRANCH   2   9
ATOM      8  N   UNL     1      48.083   1.728   6.928  0.00  0.00    +0.000 N 
ATOM      9  C   UNL     1      46.998   2.499   6.626  0.00  0.00    +0.000 C 
ATOM     10  O   UNL     1      46.674   2.700   5.462  0.00  0.00    +0.000 OA
ATOM     11  H   UNL     1      48.559   1.294   6.147  0.00  0.00    +0.000 HD
ATOM     12  H   UNL     1      48.237   1.340   7.847  0.00  0.00    +0.000 HD
ENDBRANCH   2   9
ENDBRANCH   1   5
BRANCH   1  13
ATOM     13  C   UNL     1      45.143   5.022  12.216  0.00  0.00    +0.000 C 
ATOM     14  C   UNL     1      45.927   3.773  12.607  0.00  0.00    +0.000 C 
ATOM     15  C   UNL     1      44.885   4.305  13.530  0.00  0.00    +0.000 C 
BRANCH  13  16
ATOM     16  C   UNL     1      45.868   6.355  12.197  0.00  0.00    +0.000 A 
ATOM     17  C   UNL     1      47.270   6.403  12.097  0.00  0.00    +0.000 A 
ATOM     18  C   UNL     1      47.957   7.616  11.985  0.00  0.00    +0.000 A 
ATOM     19  C   UNL     1      47.253   8.820  11.977  0.00  0.00    +0.000 A 
ATOM     20 CL   UNL     1      48.156  10.281  11.792  0.00  0.00    +0.000 Cl
ATOM     21  C   UNL     1      45.863   8.804  12.099  0.00  0.00    +0.000 A 
ATOM     22 CL   UNL     1      44.917  10.250  12.103  0.00  0.00    +0.000 Cl
ATOM     23  C   UNL     1      45.183   7.583  12.207  0.00  0.00    +0.000 A 
ENDBRANCH  13  16
ENDBRANCH   1  13
TORSDOF 4
ENDMDL
MODEL 6
REMARK VINA RESULT:    -6.062      4.077      6.539
REMARK INTER + INTRA:          -8.051
REMARK INTER:                  -7.585
REMARK INTRA:                  -0.466
REMARK UNBOUND:                -0.572
REMARK  Name = 
REMARK  4 active torsions:
REMARK  status: ('A' for Active; 'I' for Inactive)
REMARK    1  A    between atoms: C_2  and  C_4
REMARK    2  A    between atoms: C_7  and  O_8
REMARK    3  A    between atoms: O_8  and  C_9
REMARK    4  A    between atoms: C_9  and  C_10
REMARK                            x       y       z     vdW  Elec       q    Type
REMARK                         _______ _______ _______ _____ _____    ______ ____
ROOT
ATOM      1  O   UNL     1      44.811   6.936  11.291  0.00  0.00    +0.000 OA
ENDROOT
BRANCH   1   5
ATOM      2  C   UNL     1      48.025   7.553  13.845  0.00  0.00    +0.000 A 
ATOM      3  C   UNL     1      47.078   8.574  13.702  0.00  0.00    +0.000 A 
ATOM      4  C   UNL     1      45.966   8.389  12.877  0.00  0.00    +0.000 A 
ATOM      5  C   UNL     1      45.822   7.196  12.172  0.00  0.00    +0.000 A 
ATOM      6  C   UNL     1      46.743   6.163  12.345  0.00  0.00    +0.000 A 
ATOM      7  C   UNL     1      47.853   6.342  13.171  0.00  0.00    +0.000 A 
BRANCH   2   9
ATOM      8  N   UNL     1      50.455   7.506  14.047  0.00  0.00    +0.000 N 
ATOM      9  C   UNL     1      49.257   7.734  14.660  0.00  0.00    +0.000 C 
ATOM     10  O   UNL     1      49.207   8.102  15.827  0.00  0.00    +0.000 OA
ATOM     11  H   UNL     1      51.285   7.713  14.589  0.00  0.00    +0.000 HD
ATOM     12  H   UNL     1      50.551   7.446  13.045  0.00  0.00    +0.000 HD
ENDBRANCH   2   9
ENDBRANCH   1   5
BRANCH   1  13
ATOM     13  C   UNL     1      44.053   5.707  11.430  0.00  0.00    +0.000 C 
ATOM     14  C   UNL     1      42.556   5.999  11.406  0.00  0.00    +0.000 C 
ATOM     15  C   UNL     1      43.178   5.452  12.645  0.00  0.00    +0.000 C 
BRANCH  13  16
ATOM     16  C   UNL     1      44.576   4.546  10.604  0.00  0.00    +0.000 A 
ATOM     17  C   UNL     1      44.283   3.220  10.970  0.00  0.00    +0.000 A 
ATOM     18  C   UNL     1      44.674   2.136  10.178  0.00  0.00    +0.000 A 
ATOM     19  C   UNL     1      45.379   2.353   8.995  0.00  0.00    +0.000 A 
ATOM     20 CL   UNL     1      45.794   0.976   8.039  0.00  0.00    +0.000 Cl
ATOM     21  C   UNL     1      45.705   3.657   8.618  0.00  0.00    +0.000 A 
ATOM     22 CL   UNL     1      46.579   4.012   7.170  0.00  0.00    +0.000 Cl
ATOM     23  C   UNL     1      45.305   4.738   9.417  0.00  0.00    +0.000 A 
ENDBRANCH  13  16
ENDBRANCH   1  13
TORSDOF 4
ENDMDL
MODEL 7
REMARK VINA RESULT:    -5.888      4.587      7.196
REMARK INTER + INTRA:          -7.836
REMARK INTER:                  -7.397
REMARK INTRA:                  -0.439
REMARK UNBOUND:                -0.572
REMARK  Name = 
REMARK  4 active torsions:
REMARK  status: ('A' for Active; 'I' for Inactive)
REMARK    1  A    between atoms: C_2  and  C_4
REMARK    2  A    between atoms: C_7  and  O_8
REMARK    3  A    between atoms: O_8  and  C_9
REMARK    4  A    between atoms: C_9  and  C_10
REMARK                            x       y       z     vdW  Elec       q    Type
REMARK                         _______ _______ _______ _____ _____    ______ ____
ROOT
ATOM      1  O   UNL     1      47.573   6.667  12.700  0.00  0.00    +0.000 OA
ENDROOT
BRANCH   1   5
ATOM      2  C   UNL     1      48.075   5.073  16.500  0.00  0.00    +0.000 A 
ATOM      3  C   UNL     1      47.261   4.389  15.590  0.00  0.00    +0.000 A 
ATOM      4  C   UNL     1      47.096   4.878  14.291  0.00  0.00    +0.000 A 
ATOM      5  C   UNL     1      47.718   6.067  13.919  0.00  0.00    +0.000 A 
ATOM      6  C   UNL     1      48.562   6.728  14.812  0.00  0.00    +0.000 A 
ATOM      7  C   UNL     1      48.733   6.241  16.108  0.00  0.00    +0.000 A 
BRANCH   2   9
ATOM      8  N   UNL     1      47.166   4.825  18.749  0.00  0.00    +0.000 N 
ATOM      9  C   UNL     1      48.223   4.622  17.911  0.00  0.00    +0.000 C 
ATOM     10  O   UNL     1      49.241   4.065  18.304  0.00  0.00    +0.000 OA
ATOM     11  H   UNL     1      47.249   4.440  19.682  0.00  0.00    +0.000 HD
ATOM     12  H   UNL     1      46.240   5.047  18.414  0.00  0.00    +0.000 HD
ENDBRANCH   2   9
ENDBRANCH   1   5
BRANCH   1  13
ATOM     13  C   UNL     1      46.237   6.937  12.201  0.00  0.00    +0.000 C 
ATOM     14  C   UNL     1      46.120   8.390  11.754  0.00  0.00    +0.000 C 
ATOM     15  C   UNL     1      45.311   7.910  12.910  0.00  0.00    +0.000 C 
BRANCH  13  16
ATOM     16  C   UNL     1      45.671   5.855  11.300  0.00  0.00    +0.000 A 
ATOM     17  C   UNL     1      46.057   5.776   9.950  0.00  0.00    +0.000 A 
ATOM     18  C   UNL     1      45.623   4.736   9.122  0.00  0.00    +0.000 A 
ATOM     19  C   UNL     1      44.781   3.746   9.626  0.00  0.00    +0.000 A 
ATOM     20 CL   UNL     1      44.316   2.464   8.565  0.00  0.00    +0.000 Cl
ATOM     21  C   UNL     1      44.362   3.811  10.956  0.00  0.00    +0.000 A 
ATOM     22 CL   UNL     1      43.316   2.628  11.657  0.00  0.00    +0.000 Cl
ATOM     23  C   UNL     1      44.805   4.855  11.779  0.00  0.00    +0.000 A 
ENDBRANCH  13  16
ENDBRANCH   1  13
TORSDOF 4
ENDMDL
MODEL 8
REMARK VINA RESULT:    -5.831      3.179      5.003
REMARK INTER + INTRA:          -7.766
REMARK INTER:                  -7.083
REMARK INTRA:                  -0.682
REMARK UNBOUND:                -0.572
REMARK  Name = 
REMARK  4 active torsions:
REMARK  status: ('A' for Active; 'I' for Inactive)
REMARK    1  A    between atoms: C_2  and  C_4
REMARK    2  A    between atoms: C_7  and  O_8
REMARK    3  A    between atoms: O_8  and  C_9
REMARK    4  A    between atoms: C_9  and  C_10
REMARK                            x       y       z     vdW  Elec       q    Type
REMARK                         _______ _______ _______ _____ _____    ______ ____
ROOT
ATOM      1  O   UNL     1      46.486   7.727  12.555  0.00  0.00    +0.000 OA
ENDROOT
BRANCH   1   5
ATOM      2  C   UNL     1      44.585   4.177  11.547  0.00  0.00    +0.000 A 
ATOM      3  C   UNL     1      44.953   4.384  12.881  0.00  0.00    +0.000 A 
ATOM      4  C   UNL     1      45.565   5.580  13.263  0.00  0.00    +0.000 A 
ATOM      5  C   UNL     1      45.836   6.552  12.303  0.00  0.00    +0.000 A 
ATOM      6  C   UNL     1      45.433   6.365  10.981  0.00  0.00    +0.000 A 
ATOM      7  C   UNL     1      44.818   5.174  10.596  0.00  0.00    +0.000 A 
BRANCH   2   9
ATOM      8  N   UNL     1      44.602   2.258  10.042  0.00  0.00    +0.000 N 
ATOM      9  C   UNL     1      43.993   2.892  11.087  0.00  0.00    +0.000 C 
ATOM     10  O   UNL     1      43.015   2.400  11.637  0.00  0.00    +0.000 OA
ATOM     11  H   UNL     1      44.239   1.346   9.795  0.00  0.00    +0.000 HD
ATOM     12  H   UNL     1      45.533   2.494   9.730  0.00  0.00    +0.000 HD
ENDBRANCH   2   9
ENDBRANCH   1   5
BRANCH   1  13
ATOM     13  C   UNL     1      47.912   7.702  12.819  0.00  0.00    +0.000 C 
ATOM     14  C   UNL     1      48.651   8.609  11.841  0.00  0.00    +0.000 C 
ATOM     15  C   UNL     1      48.894   7.139  11.805  0.00  0.00    +0.000 C 
BRANCH  13  16
ATOM     16  C   UNL     1      48.282   7.771  14.289  0.00  0.00    +0.000 A 
ATOM     17  C   UNL     1      48.091   8.958  15.018  0.00  0.00    +0.000 A 
ATOM     18  C   UNL     1      48.336   9.023  16.394  0.00  0.00    +0.000 A 
ATOM     19  C   UNL     1      48.788   7.894  17.077  0.00  0.00    +0.000 A 
ATOM     20 CL   UNL     1      49.029   8.026  18.783  0.00  0.00    +0.000 Cl
ATOM     21  C   UNL     1      49.008   6.708  16.376  0.00  0.00    +0.000 A 
ATOM     22 CL   UNL     1      49.571   5.267  17.146  0.00  0.00    +0.000 Cl
ATOM     23  C   UNL     1      48.757   6.652  14.998  0.00  0.00    +0.000 A 
ENDBRANCH  13  16
ENDBRANCH   1  13
TORSDOF 4
ENDMDL
MODEL 9
REMARK VINA RESULT:    -5.828      2.548      4.316
REMARK INTER + INTRA:          -7.762
REMARK INTER:                  -7.614
REMARK INTRA:                  -0.148
REMARK UNBOUND:                -0.572
REMARK  Name = 
REMARK  4 active torsions:
REMARK  status: ('A' for Active; 'I' for Inactive)
REMARK    1  A    between atoms: C_2  and  C_4
REMARK    2  A    between atoms: C_7  and  O_8
REMARK    3  A    between atoms: O_8  and  C_9
REMARK    4  A    between atoms: C_9  and  C_10
REMARK                            x       y       z     vdW  Elec       q    Type
REMARK                         _______ _______ _______ _____ _____    ______ ____
ROOT
ATOM      1  O   UNL     1      46.123   6.292  13.435  0.00  0.00    +0.000 OA
ENDROOT
BRANCH   1   5
ATOM      2  C   UNL     1      44.954   3.805  10.324  0.00  0.00    +0.000 A 
ATOM      3  C   UNL     1      45.174   3.240  11.586  0.00  0.00    +0.000 A 
ATOM      4  C   UNL     1      45.537   4.051  12.664  0.00  0.00    +0.000 A 
ATOM      5  C   UNL     1      45.709   5.420  12.469  0.00  0.00    +0.000 A 
ATOM      6  C   UNL     1      45.450   5.990  11.222  0.00  0.00    +0.000 A 
ATOM      7  C   UNL     1      45.084   5.184  10.144  0.00  0.00    +0.000 A 
BRANCH   2   9
ATOM      8  N   UNL     1      44.350   3.616   7.969  0.00  0.00    +0.000 N 
ATOM      9  C   UNL     1      44.633   2.968   9.136  0.00  0.00    +0.000 C 
ATOM     10  O   UNL     1      44.648   1.744   9.189  0.00  0.00    +0.000 OA
ATOM     11  H   UNL     1      44.215   3.035   7.152  0.00  0.00    +0.000 HD
ATOM     12  H   UNL     1      44.566   4.591   7.822  0.00  0.00    +0.000 HD
ENDBRANCH   2   9
ENDBRANCH   1   5
BRANCH   1  13
ATOM     13  C   UNL     1      47.545   6.462  13.671  0.00  0.00    +0.000 C 
ATOM     14  C   UNL     1      47.991   7.859  13.253  0.00  0.00    +0.000 C 
ATOM     15  C   UNL     1      48.516   6.671  12.522  0.00  0.00    +0.000 C 
BRANCH  13  16
ATOM     16  C   UNL     1      48.032   5.913  14.999  0.00  0.00    +0.000 A 
ATOM     17  C   UNL     1      49.022   6.593  15.731  0.00  0.00    +0.000 A 
ATOM     18  C   UNL     1      49.425   6.161  16.999  0.00  0.00    +0.000 A 
ATOM     19  C   UNL     1      48.846   5.026  17.567  0.00  0.00    +0.000 A 
ATOM     20 CL   UNL     1      49.354   4.569  19.154  0.00  0.00    +0.000 Cl
ATOM     21  C   UNL     1      47.878   4.317  16.854  0.00  0.00    +0.000 A 
ATOM     22 CL   UNL     1      47.117   2.899  17.482  0.00  0.00    +0.000 Cl
ATOM     23  C   UNL     1      47.479   4.760  15.585  0.00  0.00    +0.000 A 
ENDBRANCH  13  16
ENDBRANCH   1  13
TORSDOF 4
ENDMDL
