MODEL 1
REMARK VINA RESULT:    -8.594      0.000      0.000
REMARK INTER + INTRA:         -11.815
REMARK INTER:                 -11.107
REMARK INTRA:                  -0.709
REMARK UNBOUND:                -0.709
REMARK  Name = 
REMARK  5 active torsions:
REMARK  status: ('A' for Active; 'I' for Inactive)
REMARK    1  A    between atoms: C_2  and  C_18
REMARK    2  A    between atoms: N_3  and  C_4
REMARK    3  A    between atoms: C_4  and  C_5
REMARK    4  A    between atoms: C_8  and  C_9
REMARK    5  A    between atoms: C_9  and  C_10
REMARK                            x       y       z     vdW  Elec       q    Type
REMARK                         _______ _______ _______ _____ _____    ______ ____
ROOT
ATOM      1  O   UNL     1      48.300   6.867  12.582  0.00  0.00    +0.000 OA
ATOM      2  C   UNL     1      47.651   6.695  13.612  0.00  0.00    +0.000 C 
ATOM      3  N   UNL     1      46.284   6.772  13.639  0.00  0.00    +0.000 N 
ATOM      4  H   UNL     1      45.805   6.789  14.533  0.00  0.00    +0.000 HD
ENDROOT
BRANCH   2   5
ATOM      5  C   UNL     1      48.306   6.352  14.879  0.00  0.00    +0.000 A 
ATOM      6  C   UNL     1      49.312   7.170  15.377  0.00  0.00    +0.000 A 
ATOM      7  S   UNL     1      49.961   6.631  16.859  0.00  0.00    +0.000 S 
ATOM      8  C   UNL     1      48.892   5.307  16.907  0.00  0.00    +0.000 A 
ATOM      9  N   UNL     1      48.892   4.447  17.961  0.00  0.00    +0.000 NA
ATOM     10  C   UNL     1      48.002   3.516  17.889  0.00  0.00    +0.000 A 
ATOM     11  N   UNL     1      47.122   3.354  16.851  0.00  0.00    +0.000 N 
ATOM     12  C   UNL     1      47.142   4.147  15.727  0.00  0.00    +0.000 A 
ATOM     13  O   UNL     1      46.444   3.886  14.753  0.00  0.00    +0.000 OA
ATOM     14  C   UNL     1      48.080   5.252  15.789  0.00  0.00    +0.000 A 
ATOM     15  H   UNL     1      46.473   2.579  16.839  0.00  0.00    +0.000 HD
ENDBRANCH   2   5
BRANCH   3  16
ATOM     16  C   UNL     1      45.505   7.148  12.486  0.00  0.00    +0.000 C 
BRANCH  16  17
ATOM     17  C   UNL     1      45.274   5.985  11.570  0.00  0.00    +0.000 A 
ATOM     18  C   UNL     1      44.517   4.884  11.970  0.00  0.00    +0.000 A 
ATOM     19  C   UNL     1      44.286   3.841  11.076  0.00  0.00    +0.000 A 
ATOM     20  C   UNL     1      44.839   3.913   9.800  0.00  0.00    +0.000 A 
ATOM     21  N   UNL     1      45.614   4.954   9.403  0.00  0.00    +0.000 NA
ATOM     22  C   UNL     1      45.816   5.955  10.291  0.00  0.00    +0.000 A 
BRANCH  20  23
ATOM     23  C   UNL     1      44.586   2.820   8.789  0.00  0.00    +0.000 C 
BRANCH  23  24
ATOM     24  C   UNL     1      45.737   2.540   7.858  0.00  0.00    +0.000 A 
ATOM     25  C   UNL     1      46.024   3.377   6.774  0.00  0.00    +0.000 A 
ATOM     26  C   UNL     1      47.042   3.038   5.887  0.00  0.00    +0.000 A 
ATOM     27  C   UNL     1      47.748   1.868   6.114  0.00  0.00    +0.000 A 
ATOM     28  N   UNL     1      47.518   1.045   7.157  0.00  0.00    +0.000 NA
ATOM     29  C   UNL     1      46.522   1.397   8.003  0.00  0.00    +0.000 A 
ENDBRANCH  23  24
ENDBRANCH  20  23
ENDBRANCH  16  17
ENDBRANCH   3  16
TORSDOF 5
ENDMDL
MODEL 2
REMARK VINA RESULT:    -8.324      1.606      2.268
REMARK INTER + INTRA:         -11.466
REMARK INTER:                 -10.941
REMARK INTRA:                  -0.525
REMARK UNBOUND:                -0.709
REMARK  Name = 
REMARK  5 active torsions:
REMARK  status: ('A' for Active; 'I' for Inactive)
REMARK    1  A    between atoms: C_2  and  C_18
REMARK    2  A    between atoms: N_3  and  C_4
REMARK    3  A    between atoms: C_4  and  C_5
REMARK    4  A    between atoms: C_8  and  C_9
REMARK    5  A    between atoms: C_9  and  C_10
REMARK                            x       y       z     vdW  Elec       q    Type
REMARK                         _______ _______ _______ _____ _____    ______ ____
ROOT
ATOM      1  O   UNL     1      48.278   5.889  13.579  0.00  0.00    +0.000 OA
ATOM      2  C   UNL     1      47.424   5.499  14.372  0.00  0.00    +0.000 C 
ATOM      3  N   UNL     1      46.083   5.589  14.107  0.00  0.00    +0.000 N 
ATOM      4  H   UNL     1      45.417   5.411  14.852  0.00  0.00    +0.000 HD
ENDROOT
BRANCH   2   5
ATOM      5  C   UNL     1      47.794   4.869  15.643  0.00  0.00    +0.000 A 
ATOM      6  C   UNL     1      47.518   3.523  15.850  0.00  0.00    +0.000 A 
ATOM      7  S   UNL     1      48.017   2.949  17.375  0.00  0.00    +0.000 S 
ATOM      8  C   UNL     1      48.658   4.469  17.798  0.00  0.00    +0.000 A 
ATOM      9  N   UNL     1      49.287   4.655  18.990  0.00  0.00    +0.000 NA
ATOM     10  C   UNL     1      49.763   5.843  19.160  0.00  0.00    +0.000 A 
ATOM     11  N   UNL     1      49.653   6.867  18.257  0.00  0.00    +0.000 N 
ATOM     12  C   UNL     1      48.953   6.749  17.079  0.00  0.00    +0.000 A 
ATOM     13  O   UNL     1      48.746   7.722  16.362  0.00  0.00    +0.000 OA
ATOM     14  C   UNL     1      48.457   5.412  16.807  0.00  0.00    +0.000 A 
ATOM     15  H   UNL     1      50.016   7.786  18.469  0.00  0.00    +0.000 HD
ENDBRANCH   2   5
BRANCH   3  16
ATOM     16  C   UNL     1      45.567   6.228  12.924  0.00  0.00    +0.000 C 
BRANCH  16  17
ATOM     17  C   UNL     1      45.353   5.245  11.812  0.00  0.00    +0.000 A 
ATOM     18  C   UNL     1      45.440   5.631  10.475  0.00  0.00    +0.000 A 
ATOM     19  C   UNL     1      45.278   4.682   9.468  0.00  0.00    +0.000 A 
ATOM     20  C   UNL     1      45.010   3.362   9.825  0.00  0.00    +0.000 A 
ATOM     21  N   UNL     1      44.879   2.972  11.118  0.00  0.00    +0.000 NA
ATOM     22  C   UNL     1      45.046   3.916  12.073  0.00  0.00    +0.000 A 
BRANCH  20  23
ATOM     23  C   UNL     1      44.861   2.296   8.766  0.00  0.00    +0.000 C 
BRANCH  23  24
ATOM     24  C   UNL     1      45.956   2.275   7.730  0.00  0.00    +0.000 A 
ATOM     25  C   UNL     1      46.015   3.227   6.707  0.00  0.00    +0.000 A 
ATOM     26  C   UNL     1      46.991   3.123   5.719  0.00  0.00    +0.000 A 
ATOM     27  C   UNL     1      47.885   2.067   5.787  0.00  0.00    +0.000 A 
ATOM     28  N   UNL     1      47.875   1.141   6.767  0.00  0.00    +0.000 NA
ATOM     29  C   UNL     1      46.915   1.264   7.714  0.00  0.00    +0.000 A 
ENDBRANCH  23  24
ENDBRANCH  20  23
ENDBRANCH  16  17
ENDBRANCH   3  16
TORSDOF 5
ENDMDL
MODEL 3
REMARK VINA RESULT:    -8.203      1.025      1.316
REMARK INTER + INTRA:         -11.309
REMARK INTER:                 -10.715
REMARK INTRA:                  -0.594
REMARK UNBOUND:                -0.709
REMARK  Name = 
REMARK  5 active torsions:
REMARK  status: ('A' for Active; 'I' for Inactive)
REMARK    1  A    between atoms: C_2  and  C_18
REMARK    2  A    between atoms: N_3  and  C_4
REMARK    3  A    between atoms: C_4  and  C_5
REMARK    4  A    between atoms: C_8  and  C_9
REMARK    5  A    between atoms: C_9  and  C_10
REMARK                            x       y       z     vdW  Elec       q    Type
REMARK                         _______ _______ _______ _____ _____    ______ ____
ROOT
ATOM      1  O   UNL     1      49.301   6.836  13.688  0.00  0.00    +0.000 OA
ATOM      2  C   UNL     1      48.380   6.645  14.479  0.00  0.00    +0.000 C 
ATOM      3  N   UNL     1      47.065   6.772  14.118  0.00  0.00    +0.000 N 
ATOM      4  H   UNL     1      46.350   6.769  14.838  0.00  0.00    +0.000 HD
ENDROOT
BRANCH   2   5
ATOM      5  C   UNL     1      48.635   6.224  15.861  0.00  0.00    +0.000 A 
ATOM      6  C   UNL     1      49.269   7.094  16.739  0.00  0.00    +0.000 A 
ATOM      7  S   UNL     1      49.482   6.451  18.304  0.00  0.00    +0.000 S 
ATOM      8  C   UNL     1      48.698   5.002  17.874  0.00  0.00    +0.000 A 
ATOM      9  N   UNL     1      48.503   4.016  18.790  0.00  0.00    +0.000 NA
ATOM     10  C   UNL     1      47.857   2.992  18.340  0.00  0.00    +0.000 A 
ATOM     11  N   UNL     1      47.404   2.856  17.054  0.00  0.00    +0.000 N 
ATOM     12  C   UNL     1      47.653   3.790  16.075  0.00  0.00    +0.000 A 
ATOM     13  O   UNL     1      47.366   3.573  14.902  0.00  0.00    +0.000 OA
ATOM     14  C   UNL     1      48.317   4.992  16.545  0.00  0.00    +0.000 A 
ATOM     15  H   UNL     1      46.937   2.012  16.756  0.00  0.00    +0.000 HD
ENDBRANCH   2   5
BRANCH   3  16
ATOM     16  C   UNL     1      46.659   7.226  12.812  0.00  0.00    +0.000 C 
BRANCH  16  17
ATOM     17  C   UNL     1      46.128   6.102  11.975  0.00  0.00    +0.000 A 
ATOM     18  C   UNL     1      45.713   4.901  12.550  0.00  0.00    +0.000 A 
ATOM     19  C   UNL     1      45.185   3.894  11.745  0.00  0.00    +0.000 A 
ATOM     20  C   UNL     1      45.100   4.106  10.372  0.00  0.00    +0.000 A 
ATOM     21  N   UNL     1      45.536   5.249   9.785  0.00  0.00    +0.000 NA
ATOM     22  C   UNL     1      46.040   6.210  10.593  0.00  0.00    +0.000 A 
BRANCH  20  23
ATOM     23  C   UNL     1      44.503   3.054   9.468  0.00  0.00    +0.000 C 
BRANCH  23  24
ATOM     24  C   UNL     1      45.423   2.555   8.382  0.00  0.00    +0.000 A 
ATOM     25  C   UNL     1      45.974   1.270   8.422  0.00  0.00    +0.000 A 
ATOM     26  C   UNL     1      46.887   0.878   7.446  0.00  0.00    +0.000 A 
ATOM     27  C   UNL     1      47.219   1.786   6.454  0.00  0.00    +0.000 A 
ATOM     28  N   UNL     1      46.694   3.025   6.368  0.00  0.00    +0.000 NA
ATOM     29  C   UNL     1      45.811   3.381   7.329  0.00  0.00    +0.000 A 
ENDBRANCH  23  24
ENDBRANCH  20  23
ENDBRANCH  16  17
ENDBRANCH   3  16
TORSDOF 5
ENDMDL
MODEL 4
REMARK VINA RESULT:    -8.090      2.029      3.291
REMARK INTER + INTRA:         -11.164
REMARK INTER:                 -10.753
REMARK INTRA:                  -0.411
REMARK UNBOUND:                -0.709
REMARK  Name = 
REMARK  5 active torsions:
REMARK  status: ('A' for Active; 'I' for Inactive)
REMARK    1  A    between atoms: C_2  and  C_18
REMARK    2  A    between atoms: N_3  and  C_4
REMARK    3  A    between atoms: C_4  and  C_5
REMARK    4  A    between atoms: C_8  and  C_9
REMARK    5  A    between atoms: C_9  and  C_10
REMARK                            x       y       z     vdW  Elec       q    Type
REMARK                         _______ _______ _______ _____ _____    ______ ____
ROOT
ATOM      1  O   UNL     1      46.407   4.485  14.238  0.00  0.00    +0.000 OA
ATOM      2  C   UNL     1      46.626   5.648  13.908  0.00  0.00    +0.000 C 
ATOM      3  N   UNL     1      45.679   6.429  13.300  0.00  0.00    +0.000 N 
ATOM      4  H   UNL     1      45.954   7.320  12.898  0.00  0.00    +0.000 HD
ENDROOT
BRANCH   2   5
ATOM      5  C   UNL     1      47.915   6.292  14.188  0.00  0.00    +0.000 A 
ATOM      6  C   UNL     1      48.464   6.207  15.461  0.00  0.00    +0.000 A 
ATOM      7  S   UNL     1      49.964   7.002  15.613  0.00  0.00    +0.000 S 
ATOM      8  C   UNL     1      49.953   7.453  13.971  0.00  0.00    +0.000 A 
ATOM      9  N   UNL     1      50.995   8.137  13.427  0.00  0.00    +0.000 NA
ATOM     10  C   UNL     1      50.875   8.374  12.164  0.00  0.00    +0.000 A 
ATOM     11  N   UNL     1      49.800   8.007  11.398  0.00  0.00    +0.000 N 
ATOM     12  C   UNL     1      48.688   7.391  11.923  0.00  0.00    +0.000 A 
ATOM     13  O   UNL     1      47.683   7.209  11.244  0.00  0.00    +0.000 OA
ATOM     14  C   UNL     1      48.802   7.039  13.326  0.00  0.00    +0.000 A 
ATOM     15  H   UNL     1      49.752   8.257  10.420  0.00  0.00    +0.000 HD
ENDBRANCH   2   5
BRANCH   3  16
ATOM     16  C   UNL     1      44.386   5.922  12.917  0.00  0.00    +0.000 C 
BRANCH  16  17
ATOM     17  C   UNL     1      44.491   4.906  11.821  0.00  0.00    +0.000 A 
ATOM     18  C   UNL     1      45.041   5.229  10.580  0.00  0.00    +0.000 A 
ATOM     19  C   UNL     1      45.161   4.247   9.600  0.00  0.00    +0.000 A 
ATOM     20  C   UNL     1      44.708   2.960   9.877  0.00  0.00    +0.000 A 
ATOM     21  N   UNL     1      44.132   2.633  11.061  0.00  0.00    +0.000 NA
ATOM     22  C   UNL     1      44.032   3.606  11.995  0.00  0.00    +0.000 A 
BRANCH  20  23
ATOM     23  C   UNL     1      44.851   1.858   8.854  0.00  0.00    +0.000 C 
BRANCH  23  24
ATOM     24  C   UNL     1      45.955   2.067   7.848  0.00  0.00    +0.000 A 
ATOM     25  C   UNL     1      45.954   3.160   6.975  0.00  0.00    +0.000 A 
ATOM     26  C   UNL     1      46.946   3.272   6.004  0.00  0.00    +0.000 A 
ATOM     27  C   UNL     1      47.914   2.284   5.937  0.00  0.00    +0.000 A 
ATOM     28  N   UNL     1      47.963   1.226   6.773  0.00  0.00    +0.000 NA
ATOM     29  C   UNL     1      46.987   1.141   7.707  0.00  0.00    +0.000 A 
ENDBRANCH  23  24
ENDBRANCH  20  23
ENDBRANCH  16  17
ENDBRANCH   3  16
TORSDOF 5
ENDMDL
MODEL 5
REMARK VINA RESULT:    -7.372      2.307      2.982
REMARK INTER + INTRA:         -10.235
REMARK INTER:                  -9.675
REMARK INTRA:                  -0.561
REMARK UNBOUND:                -0.709
REMARK  Name = 
REMARK  5 active torsions:
REMARK  status: ('A' for Active; 'I' for Inactive)
REMARK    1  A    between atoms: C_2  and  C_18
REMARK    2  A    between atoms: N_3  and  C_4
REMARK    3  A    between atoms: C_4  and  C_5
REMARK    4  A    between atoms: C_8  and  C_9
REMARK    5  A    between atoms: C_9  and  C_10
REMARK                            x       y       z     vdW  Elec       q    Type
REMARK                         _______ _______ _______ _____ _____    ______ ____
ROOT
ATOM      1  O   UNL     1      49.751   6.628  15.134  0.00  0.00    +0.000 OA
ATOM      2  C   UNL     1      48.680   6.209  15.565  0.00  0.00    +0.000 C 
ATOM      3  N   UNL     1      47.523   6.263  14.834  0.00  0.00    +0.000 N 
ATOM      4  H   UNL     1      46.638   6.061  15.288  0.00  0.00    +0.000 HD
ENDROOT
BRANCH   2   5
ATOM      5  C   UNL     1      48.582   5.580  16.887  0.00  0.00    +0.000 A 
ATOM      6  C   UNL     1      48.731   4.204  17.007  0.00  0.00    +0.000 A 
ATOM      7  S   UNL     1      48.596   3.639  18.609  0.00  0.00    +0.000 S 
ATOM      8  C   UNL     1      48.374   5.218  19.205  0.00  0.00    +0.000 A 
ATOM      9  N   UNL     1      48.237   5.449  20.539  0.00  0.00    +0.000 NA
ATOM     10  C   UNL     1      48.121   6.696  20.854  0.00  0.00    +0.000 A 
ATOM     11  N   UNL     1      48.111   7.731  19.958  0.00  0.00    +0.000 N 
ATOM     12  C   UNL     1      48.161   7.539  18.597  0.00  0.00    +0.000 A 
ATOM     13  O   UNL     1      48.001   8.471  17.817  0.00  0.00    +0.000 OA
ATOM     14  C   UNL     1      48.361   6.159  18.192  0.00  0.00    +0.000 A 
ATOM     15  H   UNL     1      47.979   8.683  20.269  0.00  0.00    +0.000 HD
ENDBRANCH   2   5
BRANCH   3  16
ATOM     16  C   UNL     1      47.452   6.895  13.541  0.00  0.00    +0.000 C 
BRANCH  16  17
ATOM     17  C   UNL     1      46.633   6.093  12.576  0.00  0.00    +0.000 A 
ATOM     18  C   UNL     1      46.306   6.589  11.314  0.00  0.00    +0.000 A 
ATOM     19  C   UNL     1      45.580   5.798  10.426  0.00  0.00    +0.000 A 
ATOM     20  C   UNL     1      45.178   4.527  10.831  0.00  0.00    +0.000 A 
ATOM     21  N   UNL     1      45.449   4.040  12.068  0.00  0.00    +0.000 NA
ATOM     22  C   UNL     1      46.159   4.830  12.906  0.00  0.00    +0.000 A 
BRANCH  20  23
ATOM     23  C   UNL     1      44.419   3.624   9.888  0.00  0.00    +0.000 C 
BRANCH  23  24
ATOM     24  C   UNL     1      45.243   3.044   8.767  0.00  0.00    +0.000 A 
ATOM     25  C   UNL     1      45.678   1.714   8.789  0.00  0.00    +0.000 A 
ATOM     26  C   UNL     1      46.508   1.240   7.777  0.00  0.00    +0.000 A 
ATOM     27  C   UNL     1      46.878   2.113   6.768  0.00  0.00    +0.000 A 
ATOM     28  N   UNL     1      46.465   3.395   6.698  0.00  0.00    +0.000 NA
ATOM     29  C   UNL     1      45.659   3.831   7.694  0.00  0.00    +0.000 A 
ENDBRANCH  23  24
ENDBRANCH  20  23
ENDBRANCH  16  17
ENDBRANCH   3  16
TORSDOF 5
ENDMDL
MODEL 6
REMARK VINA RESULT:    -7.227      3.103      8.032
REMARK INTER + INTRA:         -10.048
REMARK INTER:                  -9.279
REMARK INTRA:                  -0.770
REMARK UNBOUND:                -0.709
REMARK  Name = 
REMARK  5 active torsions:
REMARK  status: ('A' for Active; 'I' for Inactive)
REMARK    1  A    between atoms: C_2  and  C_18
REMARK    2  A    between atoms: N_3  and  C_4
REMARK    3  A    between atoms: C_4  and  C_5
REMARK    4  A    between atoms: C_8  and  C_9
REMARK    5  A    between atoms: C_9  and  C_10
REMARK                            x       y       z     vdW  Elec       q    Type
REMARK                         _______ _______ _______ _____ _____    ______ ____
ROOT
ATOM      1  O   UNL     1      45.731   7.778  11.582  0.00  0.00    +0.000 OA
ATOM      2  C   UNL     1      46.152   6.627  11.666  0.00  0.00    +0.000 C 
ATOM      3  N   UNL     1      47.171   6.279  12.512  0.00  0.00    +0.000 N 
ATOM      4  H   UNL     1      47.594   5.360  12.428  0.00  0.00    +0.000 HD
ENDROOT
BRANCH   2   5
ATOM      5  C   UNL     1      45.553   5.536  10.889  0.00  0.00    +0.000 A 
ATOM      6  C   UNL     1      45.699   5.514   9.508  0.00  0.00    +0.000 A 
ATOM      7  S   UNL     1      44.949   4.177   8.762  0.00  0.00    +0.000 S 
ATOM      8  C   UNL     1      44.436   3.558  10.263  0.00  0.00    +0.000 A 
ATOM      9  N   UNL     1      43.759   2.381  10.339  0.00  0.00    +0.000 NA
ATOM     10  C   UNL     1      43.471   2.009  11.541  0.00  0.00    +0.000 A 
ATOM     11  N   UNL     1      43.782   2.714  12.674  0.00  0.00    +0.000 N 
ATOM     12  C   UNL     1      44.389   3.948  12.639  0.00  0.00    +0.000 A 
ATOM     13  O   UNL     1      44.519   4.621  13.656  0.00  0.00    +0.000 OA
ATOM     14  C   UNL     1      44.796   4.381  11.315  0.00  0.00    +0.000 A 
ATOM     15  H   UNL     1      43.494   2.385  13.584  0.00  0.00    +0.000 HD
ENDBRANCH   2   5
BRANCH   3  16
ATOM     16  C   UNL     1      47.889   7.247  13.301  0.00  0.00    +0.000 C 
BRANCH  16  17
ATOM     17  C   UNL     1      48.479   6.631  14.533  0.00  0.00    +0.000 A 
ATOM     18  C   UNL     1      49.635   7.145  15.120  0.00  0.00    +0.000 A 
ATOM     19  C   UNL     1      50.130   6.574  16.290  0.00  0.00    +0.000 A 
ATOM     20  C   UNL     1      49.464   5.482  16.840  0.00  0.00    +0.000 A 
ATOM     21  N   UNL     1      48.362   4.939  16.264  0.00  0.00    +0.000 NA
ATOM     22  C   UNL     1      47.902   5.518  15.131  0.00  0.00    +0.000 A 
BRANCH  20  23
ATOM     23  C   UNL     1      49.948   4.854  18.125  0.00  0.00    +0.000 C 
BRANCH  23  24
ATOM     24  C   UNL     1      50.747   3.588  17.950  0.00  0.00    +0.000 A 
ATOM     25  C   UNL     1      52.102   3.523  18.290  0.00  0.00    +0.000 A 
ATOM     26  C   UNL     1      52.826   2.362  18.033  0.00  0.00    +0.000 A 
ATOM     27  C   UNL     1      52.169   1.295  17.443  0.00  0.00    +0.000 A 
ATOM     28  N   UNL     1      50.860   1.309  17.119  0.00  0.00    +0.000 NA
ATOM     29  C   UNL     1      50.180   2.450  17.378  0.00  0.00    +0.000 A 
ENDBRANCH  23  24
ENDBRANCH  20  23
ENDBRANCH  16  17
ENDBRANCH   3  16
TORSDOF 5
ENDMDL
MODEL 7
REMARK VINA RESULT:    -7.156      1.622      2.157
REMARK INTER + INTRA:          -9.957
REMARK INTER:                  -9.016
REMARK INTRA:                  -0.941
REMARK UNBOUND:                -0.709
REMARK  Name = 
REMARK  5 active torsions:
REMARK  status: ('A' for Active; 'I' for Inactive)
REMARK    1  A    between atoms: C_2  and  C_18
REMARK    2  A    between atoms: N_3  and  C_4
REMARK    3  A    between atoms: C_4  and  C_5
REMARK    4  A    between atoms: C_8  and  C_9
REMARK    5  A    between atoms: C_9  and  C_10
REMARK                            x       y       z     vdW  Elec       q    Type
REMARK                         _______ _______ _______ _____ _____    ______ ____
ROOT
ATOM      1  O   UNL     1      49.286   8.823  13.754  0.00  0.00    +0.000 OA
ATOM      2  C   UNL     1      48.501   8.482  14.636  0.00  0.00    +0.000 C 
ATOM      3  N   UNL     1      47.148   8.425  14.431  0.00  0.00    +0.000 N 
ATOM      4  H   UNL     1      46.530   8.302  15.226  0.00  0.00    +0.000 HD
ENDROOT
BRANCH   2   5
ATOM      5  C   UNL     1      48.974   8.071  15.962  0.00  0.00    +0.000 A 
ATOM      6  C   UNL     1      49.589   9.000  16.791  0.00  0.00    +0.000 A 
ATOM      7  S   UNL     1      50.072   8.358  18.296  0.00  0.00    +0.000 S 
ATOM      8  C   UNL     1      49.439   6.827  17.907  0.00  0.00    +0.000 A 
ATOM      9  N   UNL     1      49.486   5.803  18.802  0.00  0.00    +0.000 NA
ATOM     10  C   UNL     1      48.931   4.712  18.393  0.00  0.00    +0.000 A 
ATOM     11  N   UNL     1      48.349   4.543  17.165  0.00  0.00    +0.000 N 
ATOM     12  C   UNL     1      48.353   5.522  16.198  0.00  0.00    +0.000 A 
ATOM     13  O   UNL     1      47.958   5.293  15.060  0.00  0.00    +0.000 OA
ATOM     14  C   UNL     1      48.905   6.792  16.632  0.00  0.00    +0.000 A 
ATOM     15  H   UNL     1      47.964   3.650  16.893  0.00  0.00    +0.000 HD
ENDBRANCH   2   5
BRANCH   3  16
ATOM     16  C   UNL     1      46.532   8.846  13.198  0.00  0.00    +0.000 C 
BRANCH  16  17
ATOM     17  C   UNL     1      45.954   7.687  12.444  0.00  0.00    +0.000 A 
ATOM     18  C   UNL     1      46.602   6.453  12.399  0.00  0.00    +0.000 A 
ATOM     19  C   UNL     1      46.014   5.386  11.725  0.00  0.00    +0.000 A 
ATOM     20  C   UNL     1      44.791   5.583  11.089  0.00  0.00    +0.000 A 
ATOM     21  N   UNL     1      44.162   6.786  11.084  0.00  0.00    +0.000 NA
ATOM     22  C   UNL     1      44.755   7.802  11.751  0.00  0.00    +0.000 A 
BRANCH  20  23
ATOM     23  C   UNL     1      44.103   4.444  10.375  0.00  0.00    +0.000 C 
BRANCH  23  24
ATOM     24  C   UNL     1      44.974   3.685   9.408  0.00  0.00    +0.000 A 
ATOM     25  C   UNL     1      45.635   4.328   8.356  0.00  0.00    +0.000 A 
ATOM     26  C   UNL     1      46.361   3.579   7.433  0.00  0.00    +0.000 A 
ATOM     27  C   UNL     1      46.407   2.204   7.593  0.00  0.00    +0.000 A 
ATOM     28  N   UNL     1      45.803   1.548   8.604  0.00  0.00    +0.000 NA
ATOM     29  C   UNL     1      45.103   2.299   9.486  0.00  0.00    +0.000 A 
ENDBRANCH  23  24
ENDBRANCH  20  23
ENDBRANCH  16  17
ENDBRANCH   3  16
TORSDOF 5
ENDMDL
MODEL 8
REMARK VINA RESULT:    -7.097      2.142      2.849
REMARK INTER + INTRA:          -9.880
REMARK INTER:                  -9.229
REMARK INTRA:                  -0.651
REMARK UNBOUND:                -0.709
REMARK  Name = 
REMARK  5 active torsions:
REMARK  status: ('A' for Active; 'I' for Inactive)
REMARK    1  A    between atoms: C_2  and  C_18
REMARK    2  A    between atoms: N_3  and  C_4
REMARK    3  A    between atoms: C_4  and  C_5
REMARK    4  A    between atoms: C_8  and  C_9
REMARK    5  A    between atoms: C_9  and  C_10
REMARK                            x       y       z     vdW  Elec       q    Type
REMARK                         _______ _______ _______ _____ _____    ______ ____
ROOT
ATOM      1  O   UNL     1      48.272   8.052  15.823  0.00  0.00    +0.000 OA
ATOM      2  C   UNL     1      48.353   6.853  15.567  0.00  0.00    +0.000 C 
ATOM      3  N   UNL     1      47.800   6.305  14.440  0.00  0.00    +0.000 N 
ATOM      4  H   UNL     1      47.747   5.295  14.354  0.00  0.00    +0.000 HD
ENDROOT
BRANCH   2   5
ATOM      5  C   UNL     1      49.090   5.934  16.441  0.00  0.00    +0.000 A 
ATOM      6  C   UNL     1      48.402   4.950  17.140  0.00  0.00    +0.000 A 
ATOM      7  S   UNL     1      49.408   3.966  18.102  0.00  0.00    +0.000 S 
ATOM      8  C   UNL     1      50.803   4.794  17.586  0.00  0.00    +0.000 A 
ATOM      9  N   UNL     1      52.039   4.415  18.012  0.00  0.00    +0.000 NA
ATOM     10  C   UNL     1      53.009   5.101  17.508  0.00  0.00    +0.000 A 
ATOM     11  N   UNL     1      52.858   6.143  16.631  0.00  0.00    +0.000 N 
ATOM     12  C   UNL     1      51.626   6.614  16.241  0.00  0.00    +0.000 A 
ATOM     13  O   UNL     1      51.520   7.638  15.575  0.00  0.00    +0.000 OA
ATOM     14  C   UNL     1      50.503   5.833  16.725  0.00  0.00    +0.000 A 
ATOM     15  H   UNL     1      53.659   6.663  16.303  0.00  0.00    +0.000 HD
ENDBRANCH   2   5
BRANCH   3  16
ATOM     16  C   UNL     1      47.006   7.072  13.514  0.00  0.00    +0.000 C 
BRANCH  16  17
ATOM     17  C   UNL     1      46.387   6.202  12.462  0.00  0.00    +0.000 A 
ATOM     18  C   UNL     1      45.812   4.972  12.782  0.00  0.00    +0.000 A 
ATOM     19  C   UNL     1      45.208   4.210  11.785  0.00  0.00    +0.000 A 
ATOM     20  C   UNL     1      45.208   4.690  10.478  0.00  0.00    +0.000 A 
ATOM     21  N   UNL     1      45.798   5.863  10.136  0.00  0.00    +0.000 NA
ATOM     22  C   UNL     1      46.373   6.583  11.126  0.00  0.00    +0.000 A 
BRANCH  20  23
ATOM     23  C   UNL     1      44.534   3.911   9.373  0.00  0.00    +0.000 C 
BRANCH  23  24
ATOM     24  C   UNL     1      45.461   3.062   8.541  0.00  0.00    +0.000 A 
ATOM     25  C   UNL     1      46.149   3.587   7.443  0.00  0.00    +0.000 A 
ATOM     26  C   UNL     1      46.928   2.750   6.648  0.00  0.00    +0.000 A 
ATOM     27  C   UNL     1      46.999   1.407   6.981  0.00  0.00    +0.000 A 
ATOM     28  N   UNL     1      46.369   0.865   8.043  0.00  0.00    +0.000 NA
ATOM     29  C   UNL     1      45.617   1.700   8.797  0.00  0.00    +0.000 A 
ENDBRANCH  23  24
ENDBRANCH  20  23
ENDBRANCH  16  17
ENDBRANCH   3  16
TORSDOF 5
ENDMDL
MODEL 9
REMARK VINA RESULT:    -6.823      2.637      3.398
REMARK INTER + INTRA:          -9.526
REMARK INTER:                  -8.780
REMARK INTRA:                  -0.746
REMARK UNBOUND:                -0.709
REMARK  Name = 
REMARK  5 active torsions:
REMARK  status: ('A' for Active; 'I' for Inactive)
REMARK    1  A    between atoms: C_2  and  C_18
REMARK    2  A    between atoms: N_3  and  C_4
REMARK    3  A    between atoms: C_4  and  C_5
REMARK    4  A    between atoms: C_8  and  C_9
REMARK    5  A    between atoms: C_9  and  C_10
REMARK                            x       y       z     vdW  Elec       q    Type
REMARK                         _______ _______ _______ _____ _____    ______ ____
ROOT
ATOM      1  O   UNL     1      47.754   8.511  14.835  0.00  0.00    +0.000 OA
ATOM      2  C   UNL     1      48.435   7.778  14.121  0.00  0.00    +0.000 C 
ATOM      3  N   UNL     1      47.903   6.711  13.447  0.00  0.00    +0.000 N 
ATOM      4  H   UNL     1      48.526   6.041  13.008  0.00  0.00    +0.000 HD
ENDROOT
BRANCH   2   5
ATOM      5  C   UNL     1      49.865   8.030  13.913  0.00  0.00    +0.000 A 
ATOM      6  C   UNL     1      50.283   8.730  12.789  0.00  0.00    +0.000 A 
ATOM      7  S   UNL     1      51.973   8.940  12.704  0.00  0.00    +0.000 S 
ATOM      8  C   UNL     1      52.202   8.138  14.188  0.00  0.00    +0.000 A 
ATOM      9  N   UNL     1      53.444   8.006  14.727  0.00  0.00    +0.000 NA
ATOM     10  C   UNL     1      53.467   7.416  15.875  0.00  0.00    +0.000 A 
ATOM     11  N   UNL     1      52.364   6.929  16.526  0.00  0.00    +0.000 N 
ATOM     12  C   UNL     1      51.101   6.964  15.980  0.00  0.00    +0.000 A 
ATOM     13  O   UNL     1      50.161   6.390  16.517  0.00  0.00    +0.000 OA
ATOM     14  C   UNL     1      51.011   7.679  14.720  0.00  0.00    +0.000 A 
ATOM     15  H   UNL     1      52.455   6.444  17.407  0.00  0.00    +0.000 HD
ENDBRANCH   2   5
BRANCH   3  16
ATOM     16  C   UNL     1      46.527   6.310  13.591  0.00  0.00    +0.000 C 
BRANCH  16  17
ATOM     17  C   UNL     1      46.010   5.646  12.351  0.00  0.00    +0.000 A 
ATOM     18  C   UNL     1      46.013   6.303  11.120  0.00  0.00    +0.000 A 
ATOM     19  C   UNL     1      45.565   5.640   9.981  0.00  0.00    +0.000 A 
ATOM     20  C   UNL     1      45.103   4.332  10.101  0.00  0.00    +0.000 A 
ATOM     21  N   UNL     1      45.052   3.687  11.294  0.00  0.00    +0.000 NA
ATOM     22  C   UNL     1      45.497   4.356  12.383  0.00  0.00    +0.000 A 
BRANCH  20  23
ATOM     23  C   UNL     1      44.640   3.565   8.885  0.00  0.00    +0.000 C 
BRANCH  23  24
ATOM     24  C   UNL     1      45.706   2.735   8.217  0.00  0.00    +0.000 A 
ATOM     25  C   UNL     1      46.551   3.274   7.241  0.00  0.00    +0.000 A 
ATOM     26  C   UNL     1      47.465   2.453   6.585  0.00  0.00    +0.000 A 
ATOM     27  C   UNL     1      47.509   1.112   6.931  0.00  0.00    +0.000 A 
ATOM     28  N   UNL     1      46.728   0.558   7.880  0.00  0.00    +0.000 NA
ATOM     29  C   UNL     1      45.848   1.378   8.500  0.00  0.00    +0.000 A 
ENDBRANCH  23  24
ENDBRANCH  20  23
ENDBRANCH  16  17
ENDBRANCH   3  16
TORSDOF 5
ENDMDL
