MODEL 1
REMARK VINA RESULT:    -8.401      0.000      0.000
REMARK INTER + INTRA:         -13.654
REMARK INTER:                 -12.330
REMARK INTRA:                  -1.323
REMARK UNBOUND:                -1.323
REMARK  Name = 
REMARK  9 active torsions:
REMARK  status: ('A' for Active; 'I' for Inactive)
REMARK    1  A    between atoms: C_1  and  O_2
REMARK    2  A    between atoms: O_2  and  C_3
REMARK    3  A    between atoms: C_10  and  C_11
REMARK    4  A    between atoms: N_13  and  C_14
REMARK    5  A    between atoms: C_14  and  C_15
REMARK    6  A    between atoms: C_18  and  C_19
REMARK    7  A    between atoms: C_19  and  N_20
REMARK    8  A    between atoms: N_20  and  C_21
REMARK    9  A    between atoms: C_21  and  C_22
REMARK                            x       y       z     vdW  Elec       q    Type
REMARK                         _______ _______ _______ _____ _____    ______ ____
ROOT
ATOM      1  C   UNL     1      48.091   6.639  13.249  0.00  0.00    +0.000 C 
ENDROOT
BRANCH   1   2
ATOM      2  C   UNL     1      46.900   5.911  12.679  0.00  0.00    +0.000 A 
ATOM      3  C   UNL     1      46.323   4.833  13.362  0.00  0.00    +0.000 A 
ATOM      4  C   UNL     1      45.239   4.138  12.811  0.00  0.00    +0.000 A 
ATOM      5  C   UNL     1      44.711   4.503  11.564  0.00  0.00    +0.000 A 
ATOM      6  C   UNL     1      45.293   5.578  10.882  0.00  0.00    +0.000 A 
ATOM      7  C   UNL     1      46.378   6.272  11.429  0.00  0.00    +0.000 A 
BRANCH   5   8
ATOM      8  C   UNL     1      43.560   3.729  10.954  0.00  0.00    +0.000 C 
BRANCH   8   9
ATOM      9  N   UNL     1      43.817   3.405   9.554  0.00  0.00    +0.000 NA
ATOM     10  H   UNL     1      44.355   4.158   9.128  0.00  0.00    +0.000 HD
BRANCH   9  11
ATOM     11  C   UNL     1      44.566   2.156   9.421  0.00  0.00    +0.000 C 
BRANCH  11  12
ATOM     12  C   UNL     1      45.645   2.277   8.367  0.00  0.00    +0.000 A 
ATOM     13  C   UNL     1      46.445   1.178   8.021  0.00  0.00    +0.000 A 
ATOM     14  C   UNL     1      47.424   1.298   7.031  0.00  0.00    +0.000 A 
ATOM     15  C   UNL     1      47.614   2.515   6.378  0.00  0.00    +0.000 A 
ATOM     16  C   UNL     1      46.827   3.615   6.714  0.00  0.00    +0.000 A 
ATOM     17  C   UNL     1      45.848   3.496   7.700  0.00  0.00    +0.000 A 
ENDBRANCH  11  12
ENDBRANCH   9  11
ENDBRANCH   8   9
ENDBRANCH   5   8
ENDBRANCH   1   2
BRANCH   1  20
ATOM     18  C   UNL     1      49.135   6.883  15.461  0.00  0.00    +0.000 C 
ATOM     19  O   UNL     1      50.251   6.968  14.953  0.00  0.00    +0.000 OA
ATOM     20  N   UNL     1      48.018   6.712  14.689  0.00  0.00    +0.000 N 
ATOM     21  H   UNL     1      47.111   6.598  15.120  0.00  0.00    +0.000 HD
BRANCH  18  29
ATOM     22  C   UNL     1      48.878   4.511  17.949  0.00  0.00    +0.000 A 
ATOM     23  N   UNL     1      48.758   3.814  19.098  0.00  0.00    +0.000 NA
ATOM     24  C   UNL     1      48.598   4.497  20.234  0.00  0.00    +0.000 A 
ATOM     25  N   UNL     1      48.539   5.819  20.371  0.00  0.00    +0.000 NA
ATOM     26  C   UNL     1      48.671   6.474  19.206  0.00  0.00    +0.000 A 
ATOM     27  S   UNL     1      48.617   8.171  19.192  0.00  0.00    +0.000 S 
ATOM     28  C   UNL     1      48.832   8.212  17.508  0.00  0.00    +0.000 A 
ATOM     29  C   UNL     1      48.954   6.957  16.922  0.00  0.00    +0.000 A 
ATOM     30  C   UNL     1      48.853   5.916  17.944  0.00  0.00    +0.000 A 
BRANCH  22  32
ATOM     31  C   UNL     1      47.881   3.200  16.293  0.00  0.00    +0.000 C 
ATOM     32  O   UNL     1      49.077   3.803  16.782  0.00  0.00    +0.000 OA
ENDBRANCH  22  32
ENDBRANCH  18  29
ENDBRANCH   1  20
TORSDOF 8
ENDMDL
MODEL 2
REMARK VINA RESULT:    -7.898      1.443      2.530
REMARK INTER + INTRA:         -12.915
REMARK INTER:                 -11.805
REMARK INTRA:                  -1.110
REMARK UNBOUND:                -1.323
REMARK  Name = 
REMARK  9 active torsions:
REMARK  status: ('A' for Active; 'I' for Inactive)
REMARK    1  A    between atoms: C_1  and  O_2
REMARK    2  A    between atoms: O_2  and  C_3
REMARK    3  A    between atoms: C_10  and  C_11
REMARK    4  A    between atoms: N_13  and  C_14
REMARK    5  A    between atoms: C_14  and  C_15
REMARK    6  A    between atoms: C_18  and  C_19
REMARK    7  A    between atoms: C_19  and  N_20
REMARK    8  A    between atoms: N_20  and  C_21
REMARK    9  A    between atoms: C_21  and  C_22
REMARK                            x       y       z     vdW  Elec       q    Type
REMARK                         _______ _______ _______ _____ _____    ______ ____
ROOT
ATOM      1  C   UNL     1      47.895   6.573  13.622  0.00  0.00    +0.000 C 
ENDROOT
BRANCH   1   2
ATOM      2  C   UNL     1      46.771   5.918  12.860  0.00  0.00    +0.000 A 
ATOM      3  C   UNL     1      46.436   6.343  11.568  0.00  0.00    +0.000 A 
ATOM      4  C   UNL     1      45.367   5.756  10.879  0.00  0.00    +0.000 A 
ATOM      5  C   UNL     1      44.608   4.734  11.468  0.00  0.00    +0.000 A 
ATOM      6  C   UNL     1      44.942   4.315  12.761  0.00  0.00    +0.000 A 
ATOM      7  C   UNL     1      46.008   4.902  13.453  0.00  0.00    +0.000 A 
BRANCH   5   8
ATOM      8  C   UNL     1      43.432   4.123  10.735  0.00  0.00    +0.000 C 
BRANCH   8   9
ATOM      9  N   UNL     1      43.814   3.657   9.405  0.00  0.00    +0.000 NA
ATOM     10  H   UNL     1      44.344   4.388   8.932  0.00  0.00    +0.000 HD
BRANCH   9  11
ATOM     11  C   UNL     1      44.636   2.449   9.476  0.00  0.00    +0.000 C 
BRANCH  11  12
ATOM     12  C   UNL     1      45.651   2.414   8.355  0.00  0.00    +0.000 A 
ATOM     13  C   UNL     1      46.381   1.249   8.075  0.00  0.00    +0.000 A 
ATOM     14  C   UNL     1      47.300   1.224   7.023  0.00  0.00    +0.000 A 
ATOM     15  C   UNL     1      47.502   2.360   6.241  0.00  0.00    +0.000 A 
ATOM     16  C   UNL     1      46.784   3.524   6.510  0.00  0.00    +0.000 A 
ATOM     17  C   UNL     1      45.864   3.550   7.558  0.00  0.00    +0.000 A 
ENDBRANCH  11  12
ENDBRANCH   9  11
ENDBRANCH   8   9
ENDBRANCH   5   8
ENDBRANCH   1   2
BRANCH   1  20
ATOM     18  C   UNL     1      48.821   6.633  15.899  0.00  0.00    +0.000 C 
ATOM     19  O   UNL     1      49.706   7.409  15.545  0.00  0.00    +0.000 OA
ATOM     20  N   UNL     1      47.893   6.167  15.008  0.00  0.00    +0.000 N 
ATOM     21  H   UNL     1      47.196   5.495  15.299  0.00  0.00    +0.000 HD
BRANCH  18  29
ATOM     22  C   UNL     1      47.844   8.134  18.844  0.00  0.00    +0.000 A 
ATOM     23  N   UNL     1      47.516   8.461  20.111  0.00  0.00    +0.000 NA
ATOM     24  C   UNL     1      47.652   7.527  21.056  0.00  0.00    +0.000 A 
ATOM     25  N   UNL     1      48.086   6.280  20.892  0.00  0.00    +0.000 NA
ATOM     26  C   UNL     1      48.393   5.995  19.615  0.00  0.00    +0.000 A 
ATOM     27  S   UNL     1      48.967   4.446  19.222  0.00  0.00    +0.000 S 
ATOM     28  C   UNL     1      49.110   4.863  17.582  0.00  0.00    +0.000 A 
ATOM     29  C   UNL     1      48.726   6.169  17.294  0.00  0.00    +0.000 A 
ATOM     30  C   UNL     1      48.300   6.846  18.518  0.00  0.00    +0.000 A 
BRANCH  22  32
ATOM     31  C   UNL     1      47.729  10.420  18.378  0.00  0.00    +0.000 C 
ATOM     32  O   UNL     1      47.671   9.091  17.865  0.00  0.00    +0.000 OA
ENDBRANCH  22  32
ENDBRANCH  18  29
ENDBRANCH   1  20
TORSDOF 8
ENDMDL
MODEL 3
REMARK VINA RESULT:    -7.733      1.648      3.171
REMARK INTER + INTRA:         -12.673
REMARK INTER:                 -11.237
REMARK INTRA:                  -1.436
REMARK UNBOUND:                -1.323
REMARK  Name = 
REMARK  9 active torsions:
REMARK  status: ('A' for Active; 'I' for Inactive)
REMARK    1  A    between atoms: C_1  and  O_2
REMARK    2  A    between atoms: O_2  and  C_3
REMARK    3  A    between atoms: C_10  and  C_11
REMARK    4  A    between atoms: N_13  and  C_14
REMARK    5  A    between atoms: C_14  and  C_15
REMARK    6  A    between atoms: C_18  and  C_19
REMARK    7  A    between atoms: C_19  and  N_20
REMARK    8  A    between atoms: N_20  and  C_21
REMARK    9  A    between atoms: C_21  and  C_22
REMARK                            x       y       z     vdW  Elec       q    Type
REMARK                         _______ _______ _______ _____ _____    ______ ____
ROOT
ATOM      1  C   UNL     1      47.292   3.966  14.810  0.00  0.00    +0.000 C 
ENDROOT
BRANCH   1   2
ATOM      2  C   UNL     1      46.390   4.242  13.634  0.00  0.00    +0.000 A 
ATOM      3  C   UNL     1      46.090   5.556  13.251  0.00  0.00    +0.000 A 
ATOM      4  C   UNL     1      45.223   5.806  12.180  0.00  0.00    +0.000 A 
ATOM      5  C   UNL     1      44.633   4.749  11.471  0.00  0.00    +0.000 A 
ATOM      6  C   UNL     1      44.930   3.437  11.860  0.00  0.00    +0.000 A 
ATOM      7  C   UNL     1      45.795   3.185  12.931  0.00  0.00    +0.000 A 
BRANCH   5   8
ATOM      8  C   UNL     1      43.670   5.022  10.335  0.00  0.00    +0.000 C 
BRANCH   8   9
ATOM      9  N   UNL     1      44.002   4.234   9.152  0.00  0.00    +0.000 NA
ATOM     10  H   UNL     1      43.309   4.410   8.426  0.00  0.00    +0.000 HD
BRANCH   9  11
ATOM     11  C   UNL     1      45.326   4.575   8.633  0.00  0.00    +0.000 C 
BRANCH  11  12
ATOM     12  C   UNL     1      45.981   3.378   7.981  0.00  0.00    +0.000 A 
ATOM     13  C   UNL     1      46.788   3.526   6.843  0.00  0.00    +0.000 A 
ATOM     14  C   UNL     1      47.404   2.415   6.261  0.00  0.00    +0.000 A 
ATOM     15  C   UNL     1      47.222   1.146   6.809  0.00  0.00    +0.000 A 
ATOM     16  C   UNL     1      46.421   0.986   7.939  0.00  0.00    +0.000 A 
ATOM     17  C   UNL     1      45.808   2.095   8.522  0.00  0.00    +0.000 A 
ENDBRANCH  11  12
ENDBRANCH   9  11
ENDBRANCH   8   9
ENDBRANCH   5   8
ENDBRANCH   1   2
BRANCH   1  20
ATOM     18  C   UNL     1      48.489   5.260  16.524  0.00  0.00    +0.000 C 
ATOM     19  O   UNL     1      49.298   4.349  16.682  0.00  0.00    +0.000 OA
ATOM     20  N   UNL     1      47.464   5.147  15.624  0.00  0.00    +0.000 N 
ATOM     21  H   UNL     1      46.778   5.884  15.533  0.00  0.00    +0.000 HD
BRANCH  18  29
ATOM     22  C   UNL     1      48.658   8.591  15.653  0.00  0.00    +0.000 A 
ATOM     23  N   UNL     1      48.728   9.937  15.599  0.00  0.00    +0.000 NA
ATOM     24  C   UNL     1      48.809  10.609  16.751  0.00  0.00    +0.000 A 
ATOM     25  N   UNL     1      48.830  10.094  17.977  0.00  0.00    +0.000 NA
ATOM     26  C   UNL     1      48.749   8.753  17.985  0.00  0.00    +0.000 A 
ATOM     27  S   UNL     1      48.766   7.925  19.468  0.00  0.00    +0.000 S 
ATOM     28  C   UNL     1      48.646   6.423  18.685  0.00  0.00    +0.000 A 
ATOM     29  C   UNL     1      48.585   6.511  17.298  0.00  0.00    +0.000 A 
ATOM     30  C   UNL     1      48.652   7.910  16.882  0.00  0.00    +0.000 A 
BRANCH  22  32
ATOM     31  C   UNL     1      49.805   7.567  13.894  0.00  0.00    +0.000 C 
ATOM     32  O   UNL     1      48.541   7.903  14.463  0.00  0.00    +0.000 OA
ENDBRANCH  22  32
ENDBRANCH  18  29
ENDBRANCH   1  20
TORSDOF 8
ENDMDL
MODEL 4
REMARK VINA RESULT:    -7.541      2.162      2.704
REMARK INTER + INTRA:         -12.392
REMARK INTER:                 -11.428
REMARK INTRA:                  -0.963
REMARK UNBOUND:                -1.323
REMARK  Name = 
REMARK  9 active torsions:
REMARK  status: ('A' for Active; 'I' for Inactive)
REMARK    1  A    between atoms: C_1  and  O_2
REMARK    2  A    between atoms: O_2  and  C_3
REMARK    3  A    between atoms: C_10  and  C_11
REMARK    4  A    between atoms: N_13  and  C_14
REMARK    5  A    between atoms: C_14  and  C_15
REMARK    6  A    between atoms: C_18  and  C_19
REMARK    7  A    between atoms: C_19  and  N_20
REMARK    8  A    between atoms: N_20  and  C_21
REMARK    9  A    between atoms: C_21  and  C_22
REMARK                            x       y       z     vdW  Elec       q    Type
REMARK                         _______ _______ _______ _____ _____    ______ ____
ROOT
ATOM      1  C   UNL     1      48.316   7.059  14.755  0.00  0.00    +0.000 C 
ENDROOT
BRANCH   1   2
ATOM      2  C   UNL     1      47.330   6.177  14.031  0.00  0.00    +0.000 A 
ATOM      3  C   UNL     1      46.982   4.919  14.542  0.00  0.00    +0.000 A 
ATOM      4  C   UNL     1      46.094   4.090  13.847  0.00  0.00    +0.000 A 
ATOM      5  C   UNL     1      45.536   4.496  12.626  0.00  0.00    +0.000 A 
ATOM      6  C   UNL     1      45.888   5.752  12.117  0.00  0.00    +0.000 A 
ATOM      7  C   UNL     1      46.779   6.582  12.808  0.00  0.00    +0.000 A 
BRANCH   5   8
ATOM      8  C   UNL     1      44.601   3.584  11.860  0.00  0.00    +0.000 C 
BRANCH   8   9
ATOM      9  N   UNL     1      45.308   2.846  10.819  0.00  0.00    +0.000 NA
ATOM     10  H   UNL     1      45.373   1.865  11.088  0.00  0.00    +0.000 HD
BRANCH   9  11
ATOM     11  C   UNL     1      44.619   2.937   9.532  0.00  0.00    +0.000 C 
BRANCH  11  12
ATOM     12  C   UNL     1      45.556   2.622   8.388  0.00  0.00    +0.000 A 
ATOM     13  C   UNL     1      45.859   3.586   7.414  0.00  0.00    +0.000 A 
ATOM     14  C   UNL     1      46.743   3.289   6.373  0.00  0.00    +0.000 A 
ATOM     15  C   UNL     1      47.333   2.029   6.294  0.00  0.00    +0.000 A 
ATOM     16  C   UNL     1      47.040   1.063   7.254  0.00  0.00    +0.000 A 
ATOM     17  C   UNL     1      46.160   1.358   8.295  0.00  0.00    +0.000 A 
ENDBRANCH  11  12
ENDBRANCH   9  11
ENDBRANCH   8   9
ENDBRANCH   5   8
ENDBRANCH   1   2
BRANCH   1  20
ATOM     18  C   UNL     1      49.474   6.060  16.680  0.00  0.00    +0.000 C 
ATOM     19  O   UNL     1      48.644   6.532  17.455  0.00  0.00    +0.000 OA
ATOM     20  N   UNL     1      49.387   6.281  15.332  0.00  0.00    +0.000 N 
ATOM     21  H   UNL     1      50.099   5.926  14.708  0.00  0.00    +0.000 HD
BRANCH  18  29
ATOM     22  C   UNL     1      49.989   2.666  16.987  0.00  0.00    +0.000 A 
ATOM     23  N   UNL     1      50.452   1.418  17.206  0.00  0.00    +0.000 NA
ATOM     24  C   UNL     1      51.675   1.283  17.726  0.00  0.00    +0.000 A 
ATOM     25  N   UNL     1      52.513   2.260  18.063  0.00  0.00    +0.000 NA
ATOM     26  C   UNL     1      52.016   3.484  17.821  0.00  0.00    +0.000 A 
ATOM     27  S   UNL     1      52.951   4.852  18.195  0.00  0.00    +0.000 S 
ATOM     28  C   UNL     1      51.729   5.896  17.648  0.00  0.00    +0.000 A 
ATOM     29  C   UNL     1      50.598   5.243  17.170  0.00  0.00    +0.000 A 
ATOM     30  C   UNL     1      50.772   3.795  17.279  0.00  0.00    +0.000 A 
BRANCH  22  32
ATOM     31  C   UNL     1      47.697   2.871  17.391  0.00  0.00    +0.000 C 
ATOM     32  O   UNL     1      48.739   2.801  16.420  0.00  0.00    +0.000 OA
ENDBRANCH  22  32
ENDBRANCH  18  29
ENDBRANCH   1  20
TORSDOF 8
ENDMDL
MODEL 5
REMARK VINA RESULT:    -7.473      1.522      2.131
REMARK INTER + INTRA:         -12.292
REMARK INTER:                 -10.869
REMARK INTRA:                  -1.422
REMARK UNBOUND:                -1.323
REMARK  Name = 
REMARK  9 active torsions:
REMARK  status: ('A' for Active; 'I' for Inactive)
REMARK    1  A    between atoms: C_1  and  O_2
REMARK    2  A    between atoms: O_2  and  C_3
REMARK    3  A    between atoms: C_10  and  C_11
REMARK    4  A    between atoms: N_13  and  C_14
REMARK    5  A    between atoms: C_14  and  C_15
REMARK    6  A    between atoms: C_18  and  C_19
REMARK    7  A    between atoms: C_19  and  N_20
REMARK    8  A    between atoms: N_20  and  C_21
REMARK    9  A    between atoms: C_21  and  C_22
REMARK                            x       y       z     vdW  Elec       q    Type
REMARK                         _______ _______ _______ _____ _____    ______ ____
ROOT
ATOM      1  C   UNL     1      47.861   4.721  14.654  0.00  0.00    +0.000 C 
ENDROOT
BRANCH   1   2
ATOM      2  C   UNL     1      46.704   4.688  13.688  0.00  0.00    +0.000 A 
ATOM      3  C   UNL     1      46.204   3.470  13.208  0.00  0.00    +0.000 A 
ATOM      4  C   UNL     1      45.153   3.446  12.283  0.00  0.00    +0.000 A 
ATOM      5  C   UNL     1      44.581   4.638  11.815  0.00  0.00    +0.000 A 
ATOM      6  C   UNL     1      45.086   5.854  12.293  0.00  0.00    +0.000 A 
ATOM      7  C   UNL     1      46.139   5.880  13.215  0.00  0.00    +0.000 A 
BRANCH   5   8
ATOM      8  C   UNL     1      43.466   4.612  10.790  0.00  0.00    +0.000 C 
BRANCH   8   9
ATOM      9  N   UNL     1      43.785   3.723   9.676  0.00  0.00    +0.000 NA
ATOM     10  H   UNL     1      42.933   3.516   9.157  0.00  0.00    +0.000 HD
BRANCH   9  11
ATOM     11  C   UNL     1      44.755   4.330   8.765  0.00  0.00    +0.000 C 
BRANCH  11  12
ATOM     12  C   UNL     1      45.621   3.277   8.111  0.00  0.00    +0.000 A 
ATOM     13  C   UNL     1      45.662   1.965   8.605  0.00  0.00    +0.000 A 
ATOM     14  C   UNL     1      46.451   0.995   7.979  0.00  0.00    +0.000 A 
ATOM     15  C   UNL     1      47.206   1.326   6.855  0.00  0.00    +0.000 A 
ATOM     16  C   UNL     1      47.175   2.626   6.355  0.00  0.00    +0.000 A 
ATOM     17  C   UNL     1      46.386   3.594   6.977  0.00  0.00    +0.000 A 
ENDBRANCH  11  12
ENDBRANCH   9  11
ENDBRANCH   8   9
ENDBRANCH   5   8
ENDBRANCH   1   2
BRANCH   1  20
ATOM     18  C   UNL     1      48.759   6.771  15.670  0.00  0.00    +0.000 C 
ATOM     19  O   UNL     1      49.795   6.671  15.017  0.00  0.00    +0.000 OA
ATOM     20  N   UNL     1      47.758   5.845  15.554  0.00  0.00    +0.000 N 
ATOM     21  H   UNL     1      46.929   5.913  16.128  0.00  0.00    +0.000 HD
BRANCH  18  29
ATOM     22  C   UNL     1      47.875   6.954  18.997  0.00  0.00    +0.000 A 
ATOM     23  N   UNL     1      47.559   7.311  20.258  0.00  0.00    +0.000 NA
ATOM     24  C   UNL     1      47.526   8.613  20.553  0.00  0.00    +0.000 A 
ATOM     25  N   UNL     1      47.773   9.627  19.728  0.00  0.00    +0.000 NA
ATOM     26  C   UNL     1      48.091   9.227  18.485  0.00  0.00    +0.000 A 
ATOM     27  S   UNL     1      48.435  10.390  17.297  0.00  0.00    +0.000 S 
ATOM     28  C   UNL     1      48.708   9.187  16.130  0.00  0.00    +0.000 A 
ATOM     29  C   UNL     1      48.553   7.890  16.608  0.00  0.00    +0.000 A 
ATOM     30  C   UNL     1      48.178   7.918  18.020  0.00  0.00    +0.000 A 
BRANCH  22  32
ATOM     31  C   UNL     1      49.210   5.037  19.018  0.00  0.00    +0.000 C 
ATOM     32  O   UNL     1      47.941   5.607  18.705  0.00  0.00    +0.000 OA
ENDBRANCH  22  32
ENDBRANCH  18  29
ENDBRANCH   1  20
TORSDOF 8
ENDMDL
MODEL 6
REMARK VINA RESULT:    -7.471      1.797      2.261
REMARK INTER + INTRA:         -12.288
REMARK INTER:                 -11.041
REMARK INTRA:                  -1.248
REMARK UNBOUND:                -1.323
REMARK  Name = 
REMARK  9 active torsions:
REMARK  status: ('A' for Active; 'I' for Inactive)
REMARK    1  A    between atoms: C_1  and  O_2
REMARK    2  A    between atoms: O_2  and  C_3
REMARK    3  A    between atoms: C_10  and  C_11
REMARK    4  A    between atoms: N_13  and  C_14
REMARK    5  A    between atoms: C_14  and  C_15
REMARK    6  A    between atoms: C_18  and  C_19
REMARK    7  A    between atoms: C_19  and  N_20
REMARK    8  A    between atoms: N_20  and  C_21
REMARK    9  A    between atoms: C_21  and  C_22
REMARK                            x       y       z     vdW  Elec       q    Type
REMARK                         _______ _______ _______ _____ _____    ______ ____
ROOT
ATOM      1  C   UNL     1      47.457   7.622  13.277  0.00  0.00    +0.000 C 
ENDROOT
BRANCH   1   2
ATOM      2  C   UNL     1      46.602   6.471  12.812  0.00  0.00    +0.000 A 
ATOM      3  C   UNL     1      46.465   5.316  13.593  0.00  0.00    +0.000 A 
ATOM      4  C   UNL     1      45.699   4.235  13.140  0.00  0.00    +0.000 A 
ATOM      5  C   UNL     1      45.054   4.283  11.895  0.00  0.00    +0.000 A 
ATOM      6  C   UNL     1      45.196   5.437  11.114  0.00  0.00    +0.000 A 
ATOM      7  C   UNL     1      45.964   6.517  11.564  0.00  0.00    +0.000 A 
BRANCH   5   8
ATOM      8  C   UNL     1      44.253   3.101  11.392  0.00  0.00    +0.000 C 
BRANCH   8   9
ATOM      9  N   UNL     1      43.947   3.229   9.970  0.00  0.00    +0.000 NA
ATOM     10  H   UNL     1      44.455   4.025   9.587  0.00  0.00    +0.000 HD
BRANCH   9  11
ATOM     11  C   UNL     1      44.326   2.026   9.228  0.00  0.00    +0.000 C 
BRANCH  11  12
ATOM     12  C   UNL     1      45.519   2.290   8.336  0.00  0.00    +0.000 A 
ATOM     13  C   UNL     1      45.753   3.565   7.801  0.00  0.00    +0.000 A 
ATOM     14  C   UNL     1      46.870   3.801   6.995  0.00  0.00    +0.000 A 
ATOM     15  C   UNL     1      47.763   2.768   6.715  0.00  0.00    +0.000 A 
ATOM     16  C   UNL     1      47.540   1.496   7.240  0.00  0.00    +0.000 A 
ATOM     17  C   UNL     1      46.427   1.260   8.047  0.00  0.00    +0.000 A 
ENDBRANCH  11  12
ENDBRANCH   9  11
ENDBRANCH   8   9
ENDBRANCH   5   8
ENDBRANCH   1   2
BRANCH   1  20
ATOM     18  C   UNL     1      49.048   7.588  15.150  0.00  0.00    +0.000 C 
ATOM     19  O   UNL     1      48.378   8.413  15.767  0.00  0.00    +0.000 OA
ATOM     20  N   UNL     1      48.666   7.151  13.911  0.00  0.00    +0.000 N 
ATOM     21  H   UNL     1      49.247   6.506  13.394  0.00  0.00    +0.000 HD
BRANCH  18  29
ATOM     22  C   UNL     1      49.731   5.024  17.351  0.00  0.00    +0.000 A 
ATOM     23  N   UNL     1      50.274   4.095  18.164  0.00  0.00    +0.000 NA
ATOM     24  C   UNL     1      51.603   4.079  18.301  0.00  0.00    +0.000 A 
ATOM     25  N   UNL     1      52.477   4.893  17.715  0.00  0.00    +0.000 NA
ATOM     26  C   UNL     1      51.895   5.796  16.908  0.00  0.00    +0.000 A 
ATOM     27  S   UNL     1      52.861   6.920  16.081  0.00  0.00    +0.000 S 
ATOM     28  C   UNL     1      51.499   7.631  15.358  0.00  0.00    +0.000 A 
ATOM     29  C   UNL     1      50.293   7.038  15.717  0.00  0.00    +0.000 A 
ATOM     30  C   UNL     1      50.534   5.940  16.651  0.00  0.00    +0.000 A 
BRANCH  22  32
ATOM     31  C   UNL     1      47.658   5.278  18.399  0.00  0.00    +0.000 C 
ATOM     32  O   UNL     1      48.361   5.015  17.186  0.00  0.00    +0.000 OA
ENDBRANCH  22  32
ENDBRANCH  18  29
ENDBRANCH   1  20
TORSDOF 8
ENDMDL
MODEL 7
REMARK VINA RESULT:    -7.254      1.905      2.575
REMARK INTER + INTRA:         -11.969
REMARK INTER:                 -10.850
REMARK INTRA:                  -1.120
REMARK UNBOUND:                -1.323
REMARK  Name = 
REMARK  9 active torsions:
REMARK  status: ('A' for Active; 'I' for Inactive)
REMARK    1  A    between atoms: C_1  and  O_2
REMARK    2  A    between atoms: O_2  and  C_3
REMARK    3  A    between atoms: C_10  and  C_11
REMARK    4  A    between atoms: N_13  and  C_14
REMARK    5  A    between atoms: C_14  and  C_15
REMARK    6  A    between atoms: C_18  and  C_19
REMARK    7  A    between atoms: C_19  and  N_20
REMARK    8  A    between atoms: N_20  and  C_21
REMARK    9  A    between atoms: C_21  and  C_22
REMARK                            x       y       z     vdW  Elec       q    Type
REMARK                         _______ _______ _______ _____ _____    ______ ____
ROOT
ATOM      1  C   UNL     1      47.233   3.959  15.406  0.00  0.00    +0.000 C 
ENDROOT
BRANCH   1   2
ATOM      2  C   UNL     1      46.649   4.476  14.116  0.00  0.00    +0.000 A 
ATOM      3  C   UNL     1      45.847   3.656  13.311  0.00  0.00    +0.000 A 
ATOM      4  C   UNL     1      45.336   4.130  12.096  0.00  0.00    +0.000 A 
ATOM      5  C   UNL     1      45.618   5.432  11.658  0.00  0.00    +0.000 A 
ATOM      6  C   UNL     1      46.423   6.248  12.462  0.00  0.00    +0.000 A 
ATOM      7  C   UNL     1      46.937   5.775  13.675  0.00  0.00    +0.000 A 
BRANCH   5   8
ATOM      8  C   UNL     1      45.092   5.932  10.328  0.00  0.00    +0.000 C 
BRANCH   8   9
ATOM      9  N   UNL     1      45.789   5.307   9.208  0.00  0.00    +0.000 NA
ATOM     10  H   UNL     1      46.629   4.842   9.552  0.00  0.00    +0.000 HD
BRANCH   9  11
ATOM     11  C   UNL     1      44.946   4.319   8.535  0.00  0.00    +0.000 C 
BRANCH  11  12
ATOM     12  C   UNL     1      45.783   3.236   7.892  0.00  0.00    +0.000 A 
ATOM     13  C   UNL     1      45.875   1.958   8.464  0.00  0.00    +0.000 A 
ATOM     14  C   UNL     1      46.635   0.959   7.849  0.00  0.00    +0.000 A 
ATOM     15  C   UNL     1      47.310   1.226   6.658  0.00  0.00    +0.000 A 
ATOM     16  C   UNL     1      47.227   2.491   6.081  0.00  0.00    +0.000 A 
ATOM     17  C   UNL     1      46.467   3.488   6.693  0.00  0.00    +0.000 A 
ENDBRANCH  11  12
ENDBRANCH   9  11
ENDBRANCH   8   9
ENDBRANCH   5   8
ENDBRANCH   1   2
BRANCH   1  20
ATOM     18  C   UNL     1      47.706   5.289  17.418  0.00  0.00    +0.000 C 
ATOM     19  O   UNL     1      46.843   4.684  18.051  0.00  0.00    +0.000 OA
ATOM     20  N   UNL     1      47.955   4.996  16.105  0.00  0.00    +0.000 N 
ATOM     21  H   UNL     1      48.636   5.529  15.581  0.00  0.00    +0.000 HD
BRANCH  18  29
ATOM     22  C   UNL     1      51.089   5.786  17.854  0.00  0.00    +0.000 A 
ATOM     23  N   UNL     1      52.329   6.229  18.149  0.00  0.00    +0.000 NA
ATOM     24  C   UNL     1      52.443   7.389  18.801  0.00  0.00    +0.000 A 
ATOM     25  N   UNL     1      51.453   8.180  19.207  0.00  0.00    +0.000 NA
ATOM     26  C   UNL     1      50.238   7.706  18.885  0.00  0.00    +0.000 A 
ATOM     27  S   UNL     1      48.856   8.587  19.329  0.00  0.00    +0.000 S 
ATOM     28  C   UNL     1      47.833   7.426  18.630  0.00  0.00    +0.000 A 
ATOM     29  C   UNL     1      48.505   6.357  18.045  0.00  0.00    +0.000 A 
ATOM     30  C   UNL     1      49.948   6.527  18.205  0.00  0.00    +0.000 A 
BRANCH  22  32
ATOM     31  C   UNL     1      51.807   3.570  17.673  0.00  0.00    +0.000 C 
ATOM     32  O   UNL     1      50.976   4.605  17.151  0.00  0.00    +0.000 OA
ENDBRANCH  22  32
ENDBRANCH  18  29
ENDBRANCH   1  20
TORSDOF 8
ENDMDL
MODEL 8
REMARK VINA RESULT:    -6.809      4.655      9.259
REMARK INTER + INTRA:         -11.316
REMARK INTER:                 -10.363
REMARK INTRA:                  -0.953
REMARK UNBOUND:                -1.323
REMARK  Name = 
REMARK  9 active torsions:
REMARK  status: ('A' for Active; 'I' for Inactive)
REMARK    1  A    between atoms: C_1  and  O_2
REMARK    2  A    between atoms: O_2  and  C_3
REMARK    3  A    between atoms: C_10  and  C_11
REMARK    4  A    between atoms: N_13  and  C_14
REMARK    5  A    between atoms: C_14  and  C_15
REMARK    6  A    between atoms: C_18  and  C_19
REMARK    7  A    between atoms: C_19  and  N_20
REMARK    8  A    between atoms: N_20  and  C_21
REMARK    9  A    between atoms: C_21  and  C_22
REMARK                            x       y       z     vdW  Elec       q    Type
REMARK                         _______ _______ _______ _____ _____    ______ ____
ROOT
ATOM      1  C   UNL     1      47.160   3.363  16.824  0.00  0.00    +0.000 C 
ENDROOT
BRANCH   1   2
ATOM      2  C   UNL     1      48.640   3.333  17.109  0.00  0.00    +0.000 A 
ATOM      3  C   UNL     1      49.374   2.147  16.976  0.00  0.00    +0.000 A 
ATOM      4  C   UNL     1      50.741   2.117  17.277  0.00  0.00    +0.000 A 
ATOM      5  C   UNL     1      51.405   3.271  17.719  0.00  0.00    +0.000 A 
ATOM      6  C   UNL     1      50.668   4.454  17.855  0.00  0.00    +0.000 A 
ATOM      7  C   UNL     1      49.301   4.485  17.558  0.00  0.00    +0.000 A 
BRANCH   5   8
ATOM      8  C   UNL     1      52.876   3.229  18.075  0.00  0.00    +0.000 C 
BRANCH   8   9
ATOM      9  N   UNL     1      53.180   2.112  18.966  0.00  0.00    +0.000 NA
ATOM     10  H   UNL     1      52.622   1.304  18.692  0.00  0.00    +0.000 HD
BRANCH   9  11
ATOM     11  C   UNL     1      54.596   1.750  18.909  0.00  0.00    +0.000 C 
BRANCH  11  12
ATOM     12  C   UNL     1      54.816   0.551  18.014  0.00  0.00    +0.000 A 
ATOM     13  C   UNL     1      54.642  -0.755  18.498  0.00  0.00    +0.000 A 
ATOM     14  C   UNL     1      54.828  -1.854  17.655  0.00  0.00    +0.000 A 
ATOM     15  C   UNL     1      55.190  -1.661  16.322  0.00  0.00    +0.000 A 
ATOM     16  C   UNL     1      55.367  -0.370  15.830  0.00  0.00    +0.000 A 
ATOM     17  C   UNL     1      55.179   0.728  16.670  0.00  0.00    +0.000 A 
ENDBRANCH  11  12
ENDBRANCH   9  11
ENDBRANCH   8   9
ENDBRANCH   5   8
ENDBRANCH   1   2
BRANCH   1  20
ATOM     18  C   UNL     1      46.885   4.253  14.549  0.00  0.00    +0.000 C 
ATOM     19  O   UNL     1      47.240   3.183  14.060  0.00  0.00    +0.000 OA
ATOM     20  N   UNL     1      46.826   4.426  15.905  0.00  0.00    +0.000 N 
ATOM     21  H   UNL     1      46.575   5.323  16.297  0.00  0.00    +0.000 HD
BRANCH  18  29
ATOM     22  C   UNL     1      44.143   4.961  12.584  0.00  0.00    +0.000 A 
ATOM     23  N   UNL     1      43.210   5.487  11.765  0.00  0.00    +0.000 NA
ATOM     24  C   UNL     1      43.451   6.684  11.224  0.00  0.00    +0.000 A 
ATOM     25  N   UNL     1      44.532   7.438  11.401  0.00  0.00    +0.000 NA
ATOM     26  C   UNL     1      45.431   6.881  12.230  0.00  0.00    +0.000 A 
ATOM     27  S   UNL     1      46.876   7.706  12.568  0.00  0.00    +0.000 S 
ATOM     28  C   UNL     1      47.408   6.455  13.585  0.00  0.00    +0.000 A 
ATOM     29  C   UNL     1      46.513   5.396  13.696  0.00  0.00    +0.000 A 
ATOM     30  C   UNL     1      45.329   5.654  12.878  0.00  0.00    +0.000 A 
BRANCH  22  32
ATOM     31  C   UNL     1      43.410   2.771  12.230  0.00  0.00    +0.000 C 
ATOM     32  O   UNL     1      43.875   3.739  13.167  0.00  0.00    +0.000 OA
ENDBRANCH  22  32
ENDBRANCH  18  29
ENDBRANCH   1  20
TORSDOF 8
ENDMDL
MODEL 9
REMARK VINA RESULT:    -6.799      2.321      4.098
REMARK INTER + INTRA:         -11.303
REMARK INTER:                 -10.062
REMARK INTRA:                  -1.240
REMARK UNBOUND:                -1.323
REMARK  Name = 
REMARK  9 active torsions:
REMARK  status: ('A' for Active; 'I' for Inactive)
REMARK    1  A    between atoms: C_1  and  O_2
REMARK    2  A    between atoms: O_2  and  C_3
REMARK    3  A    between atoms: C_10  and  C_11
REMARK    4  A    between atoms: N_13  and  C_14
REMARK    5  A    between atoms: C_14  and  C_15
REMARK    6  A    between atoms: C_18  and  C_19
REMARK    7  A    between atoms: C_19  and  N_20
REMARK    8  A    between atoms: N_20  and  C_21
REMARK    9  A    between atoms: C_21  and  C_22
REMARK                            x       y       z     vdW  Elec       q    Type
REMARK                         _______ _______ _______ _____ _____    ______ ____
ROOT
ATOM      1  C   UNL     1      47.719   5.209  15.649  0.00  0.00    +0.000 C 
ENDROOT
BRANCH   1   2
ATOM      2  C   UNL     1      46.963   4.886  14.385  0.00  0.00    +0.000 A 
ATOM      3  C   UNL     1      46.364   5.901  13.626  0.00  0.00    +0.000 A 
ATOM      4  C   UNL     1      45.633   5.592  12.473  0.00  0.00    +0.000 A 
ATOM      5  C   UNL     1      45.481   4.262  12.054  0.00  0.00    +0.000 A 
ATOM      6  C   UNL     1      46.077   3.250  12.816  0.00  0.00    +0.000 A 
ATOM      7  C   UNL     1      46.805   3.556  13.971  0.00  0.00    +0.000 A 
BRANCH   5   8
ATOM      8  C   UNL     1      44.662   3.927  10.825  0.00  0.00    +0.000 C 
BRANCH   8   9
ATOM      9  N   UNL     1      44.718   2.500  10.518  0.00  0.00    +0.000 NA
ATOM     10  H   UNL     1      44.079   1.999  11.133  0.00  0.00    +0.000 HD
BRANCH   9  11
ATOM     11  C   UNL     1      44.341   2.235   9.129  0.00  0.00    +0.000 C 
BRANCH  11  12
ATOM     12  C   UNL     1      45.543   2.309   8.214  0.00  0.00    +0.000 A 
ATOM     13  C   UNL     1      46.383   1.201   8.032  0.00  0.00    +0.000 A 
ATOM     14  C   UNL     1      47.479   1.276   7.167  0.00  0.00    +0.000 A 
ATOM     15  C   UNL     1      47.747   2.458   6.478  0.00  0.00    +0.000 A 
ATOM     16  C   UNL     1      46.921   3.566   6.652  0.00  0.00    +0.000 A 
ATOM     17  C   UNL     1      45.825   3.492   7.512  0.00  0.00    +0.000 A 
ENDBRANCH  11  12
ENDBRANCH   9  11
ENDBRANCH   8   9
ENDBRANCH   5   8
ENDBRANCH   1   2
BRANCH   1  20
ATOM     18  C   UNL     1      49.569   6.804  15.924  0.00  0.00    +0.000 C 
ATOM     19  O   UNL     1      50.327   5.903  16.276  0.00  0.00    +0.000 OA
ATOM     20  N   UNL     1      48.264   6.545  15.604  0.00  0.00    +0.000 N 
ATOM     21  H   UNL     1      47.638   7.300  15.358  0.00  0.00    +0.000 HD
BRANCH  18  29
ATOM     22  C   UNL     1      49.479   9.187  13.435  0.00  0.00    +0.000 A 
ATOM     23  N   UNL     1      49.571  10.288  12.661  0.00  0.00    +0.000 NA
ATOM     24  C   UNL     1      50.159  11.371  13.175  0.00  0.00    +0.000 A 
ATOM     25  N   UNL     1      50.679  11.497  14.393  0.00  0.00    +0.000 NA
ATOM     26  C   UNL     1      50.559  10.381  15.133  0.00  0.00    +0.000 A 
ATOM     27  S   UNL     1      51.172  10.361  16.716  0.00  0.00    +0.000 S 
ATOM     28  C   UNL     1      50.673   8.753  16.939  0.00  0.00    +0.000 A 
ATOM     29  C   UNL     1      50.033   8.200  15.835  0.00  0.00    +0.000 A 
ATOM     30  C   UNL     1      49.970   9.179  14.751  0.00  0.00    +0.000 A 
BRANCH  22  32
ATOM     31  C   UNL     1      49.600   7.442  11.887  0.00  0.00    +0.000 C 
ATOM     32  O   UNL     1      48.842   8.081  12.911  0.00  0.00    +0.000 OA
ENDBRANCH  22  32
ENDBRANCH  18  29
ENDBRANCH   1  20
TORSDOF 8
ENDMDL
