MODEL 1
REMARK VINA RESULT:    -8.484      0.000      0.000
REMARK INTER + INTRA:         -12.570
REMARK INTER:                 -11.956
REMARK INTRA:                  -0.614
REMARK UNBOUND:                -0.614
REMARK  Name = 
REMARK  7 active torsions:
REMARK  status: ('A' for Active; 'I' for Inactive)
REMARK    1  A    between atoms: C_2  and  C_20
REMARK    2  A    between atoms: N_3  and  C_4
REMARK    3  A    between atoms: C_4  and  C_5
REMARK    4  A    between atoms: C_8  and  C_9
REMARK    5  A    between atoms: C_9  and  N_10
REMARK    6  A    between atoms: N_10  and  C_11
REMARK    7  A    between atoms: C_11  and  C_12
REMARK                            x       y       z     vdW  Elec       q    Type
REMARK                         _______ _______ _______ _____ _____    ______ ____
ROOT
ATOM      1  C   UNL     1      47.911   6.540  13.468  0.00  0.00    +0.000 C 
ENDROOT
BRANCH   1   2
ATOM      2  C   UNL     1      46.844   5.642  12.902  0.00  0.00    +0.000 A 
ATOM      3  C   UNL     1      46.726   4.325  13.328  0.00  0.00    +0.000 A 
ATOM      4  N   UNL     1      45.791   3.476  12.839  0.00  0.00    +0.000 NA
ATOM      5  C   UNL     1      44.982   3.981  11.870  0.00  0.00    +0.000 A 
ATOM      6  C   UNL     1      45.118   5.292  11.426  0.00  0.00    +0.000 A 
ATOM      7  N   UNL     1      46.037   6.146  11.931  0.00  0.00    +0.000 NA
BRANCH   5   8
ATOM      8  C   UNL     1      43.883   3.094  11.332  0.00  0.00    +0.000 C 
BRANCH   8   9
ATOM      9  N   UNL     1      44.288   2.276  10.178  0.00  0.00    +0.000 NA
ATOM     10  H   UNL     1      43.502   1.660   9.959  0.00  0.00    +0.000 HD
BRANCH   9  11
ATOM     11  C   UNL     1      44.567   3.094   8.997  0.00  0.00    +0.000 C 
BRANCH  11  12
ATOM     12  C   UNL     1      45.700   2.516   8.188  0.00  0.00    +0.000 A 
ATOM     13  C   UNL     1      46.490   3.330   7.372  0.00  0.00    +0.000 A 
ATOM     14  C   UNL     1      47.534   2.754   6.666  0.00  0.00    +0.000 A 
ATOM     15  N   UNL     1      47.843   1.441   6.717  0.00  0.00    +0.000 NA
ATOM     16  C   UNL     1      47.067   0.669   7.507  0.00  0.00    +0.000 A 
ATOM     17  C   UNL     1      46.002   1.152   8.252  0.00  0.00    +0.000 A 
ENDBRANCH  11  12
ENDBRANCH   9  11
ENDBRANCH   8   9
ENDBRANCH   5   8
ENDBRANCH   1   2
BRANCH   1  20
ATOM     18  O   UNL     1      50.129   6.690  15.152  0.00  0.00    +0.000 OA
ATOM     19  C   UNL     1      49.012   6.701  15.663  0.00  0.00    +0.000 C 
ATOM     20  N   UNL     1      47.873   6.567  14.913  0.00  0.00    +0.000 N 
ATOM     21  H   UNL     1      46.975   6.813  15.321  0.00  0.00    +0.000 HD
BRANCH  19  22
ATOM     22  C   UNL     1      48.830   6.818  17.113  0.00  0.00    +0.000 A 
ATOM     23  C   UNL     1      48.531   8.052  17.674  0.00  0.00    +0.000 A 
ATOM     24  S   UNL     1      48.341   8.002  19.369  0.00  0.00    +0.000 S 
ATOM     25  C   UNL     1      48.612   6.322  19.406  0.00  0.00    +0.000 A 
ATOM     26  N   UNL     1      48.548   5.626  20.574  0.00  0.00    +0.000 NA
ATOM     27  C   UNL     1      48.737   4.357  20.448  0.00  0.00    +0.000 A 
ATOM     28  N   UNL     1      49.007   3.717  19.265  0.00  0.00    +0.000 N 
ATOM     29  C   UNL     1      49.145   4.387  18.074  0.00  0.00    +0.000 A 
ATOM     30  O   UNL     1      49.499   3.808  17.053  0.00  0.00    +0.000 OA
ATOM     31  C   UNL     1      48.886   5.813  18.149  0.00  0.00    +0.000 A 
ATOM     32  H   UNL     1      49.181   2.724  19.239  0.00  0.00    +0.000 HD
ENDBRANCH  19  22
ENDBRANCH   1  20
TORSDOF 7
ENDMDL
MODEL 2
REMARK VINA RESULT:    -8.461      1.706      2.099
REMARK INTER + INTRA:         -12.538
REMARK INTER:                 -11.599
REMARK INTRA:                  -0.939
REMARK UNBOUND:                -0.614
REMARK  Name = 
REMARK  7 active torsions:
REMARK  status: ('A' for Active; 'I' for Inactive)
REMARK    1  A    between atoms: C_2  and  C_20
REMARK    2  A    between atoms: N_3  and  C_4
REMARK    3  A    between atoms: C_4  and  C_5
REMARK    4  A    between atoms: C_8  and  C_9
REMARK    5  A    between atoms: C_9  and  N_10
REMARK    6  A    between atoms: N_10  and  C_11
REMARK    7  A    between atoms: C_11  and  C_12
REMARK                            x       y       z     vdW  Elec       q    Type
REMARK                         _______ _______ _______ _____ _____    ______ ____
ROOT
ATOM      1  C   UNL     1      47.083   8.203  13.197  0.00  0.00    +0.000 C 
ENDROOT
BRANCH   1   2
ATOM      2  C   UNL     1      46.182   7.306  12.392  0.00  0.00    +0.000 A 
ATOM      3  C   UNL     1      44.857   7.113  12.765  0.00  0.00    +0.000 A 
ATOM      4  N   UNL     1      44.012   6.306  12.081  0.00  0.00    +0.000 NA
ATOM      5  C   UNL     1      44.546   5.661  11.010  0.00  0.00    +0.000 A 
ATOM      6  C   UNL     1      45.879   5.835  10.653  0.00  0.00    +0.000 A 
ATOM      7  N   UNL     1      46.716   6.658  11.324  0.00  0.00    +0.000 NA
BRANCH   5   8
ATOM      8  C   UNL     1      43.631   4.795  10.176  0.00  0.00    +0.000 C 
BRANCH   8   9
ATOM      9  N   UNL     1      44.257   4.272   8.952  0.00  0.00    +0.000 NA
ATOM     10  H   UNL     1      45.176   4.715   8.873  0.00  0.00    +0.000 HD
BRANCH   9  11
ATOM     11  C   UNL     1      44.455   2.823   9.012  0.00  0.00    +0.000 C 
BRANCH  11  12
ATOM     12  C   UNL     1      45.687   2.408   8.248  0.00  0.00    +0.000 A 
ATOM     13  C   UNL     1      46.070   1.066   8.175  0.00  0.00    +0.000 A 
ATOM     14  C   UNL     1      47.198   0.734   7.441  0.00  0.00    +0.000 A 
ATOM     15  N   UNL     1      47.960   1.634   6.783  0.00  0.00    +0.000 NA
ATOM     16  C   UNL     1      47.578   2.925   6.869  0.00  0.00    +0.000 A 
ATOM     17  C   UNL     1      46.466   3.356   7.576  0.00  0.00    +0.000 A 
ENDBRANCH  11  12
ENDBRANCH   9  11
ENDBRANCH   8   9
ENDBRANCH   5   8
ENDBRANCH   1   2
BRANCH   1  20
ATOM     18  O   UNL     1      49.322   6.583  13.578  0.00  0.00    +0.000 OA
ATOM     19  C   UNL     1      48.625   6.848  14.555  0.00  0.00    +0.000 C 
ATOM     20  N   UNL     1      47.475   7.583  14.444  0.00  0.00    +0.000 N 
ATOM     21  H   UNL     1      47.055   7.982  15.279  0.00  0.00    +0.000 HD
BRANCH  19  22
ATOM     22  C   UNL     1      48.963   6.359  15.896  0.00  0.00    +0.000 A 
ATOM     23  C   UNL     1      49.792   7.111  16.716  0.00  0.00    +0.000 A 
ATOM     24  S   UNL     1      50.068   6.400  18.242  0.00  0.00    +0.000 S 
ATOM     25  C   UNL     1      49.055   5.082  17.873  0.00  0.00    +0.000 A 
ATOM     26  N   UNL     1      48.817   4.103  18.787  0.00  0.00    +0.000 NA
ATOM     27  C   UNL     1      48.002   3.187  18.386  0.00  0.00    +0.000 A 
ATOM     28  N   UNL     1      47.417   3.145  17.146  0.00  0.00    +0.000 N 
ATOM     29  C   UNL     1      47.680   4.076  16.170  0.00  0.00    +0.000 A 
ATOM     30  O   UNL     1      47.235   3.954  15.035  0.00  0.00    +0.000 OA
ATOM     31  C   UNL     1      48.548   5.162  16.588  0.00  0.00    +0.000 A 
ATOM     32  H   UNL     1      46.815   2.382  16.880  0.00  0.00    +0.000 HD
ENDBRANCH  19  22
ENDBRANCH   1  20
TORSDOF 7
ENDMDL
MODEL 3
REMARK VINA RESULT:    -8.350      1.614      2.735
REMARK INTER + INTRA:         -12.382
REMARK INTER:                 -11.495
REMARK INTRA:                  -0.887
REMARK UNBOUND:                -0.614
REMARK  Name = 
REMARK  7 active torsions:
REMARK  status: ('A' for Active; 'I' for Inactive)
REMARK    1  A    between atoms: C_2  and  C_20
REMARK    2  A    between atoms: N_3  and  C_4
REMARK    3  A    between atoms: C_4  and  C_5
REMARK    4  A    between atoms: C_8  and  C_9
REMARK    5  A    between atoms: C_9  and  N_10
REMARK    6  A    between atoms: N_10  and  C_11
REMARK    7  A    between atoms: C_11  and  C_12
REMARK                            x       y       z     vdW  Elec       q    Type
REMARK                         _______ _______ _______ _____ _____    ______ ____
ROOT
ATOM      1  C   UNL     1      47.187   3.679  15.036  0.00  0.00    +0.000 C 
ENDROOT
BRANCH   1   2
ATOM      2  C   UNL     1      46.564   4.159  13.753  0.00  0.00    +0.000 A 
ATOM      3  C   UNL     1      46.877   5.411  13.237  0.00  0.00    +0.000 A 
ATOM      4  N   UNL     1      46.332   5.893  12.095  0.00  0.00    +0.000 NA
ATOM      5  C   UNL     1      45.424   5.084  11.487  0.00  0.00    +0.000 A 
ATOM      6  C   UNL     1      45.093   3.842  12.017  0.00  0.00    +0.000 A 
ATOM      7  N   UNL     1      45.654   3.353  13.146  0.00  0.00    +0.000 NA
BRANCH   5   8
ATOM      8  C   UNL     1      44.830   5.546  10.176  0.00  0.00    +0.000 C 
BRANCH   8   9
ATOM      9  N   UNL     1      45.565   5.080   8.990  0.00  0.00    +0.000 NA
ATOM     10  H   UNL     1      46.491   4.785   9.309  0.00  0.00    +0.000 HD
BRANCH   9  11
ATOM     11  C   UNL     1      44.915   3.932   8.358  0.00  0.00    +0.000 C 
BRANCH  11  12
ATOM     12  C   UNL     1      45.930   2.987   7.766  0.00  0.00    +0.000 A 
ATOM     13  C   UNL     1      46.044   1.673   8.229  0.00  0.00    +0.000 A 
ATOM     14  C   UNL     1      46.978   0.837   7.636  0.00  0.00    +0.000 A 
ATOM     15  N   UNL     1      47.793   1.214   6.628  0.00  0.00    +0.000 NA
ATOM     16  C   UNL     1      47.672   2.487   6.198  0.00  0.00    +0.000 A 
ATOM     17  C   UNL     1      46.768   3.397   6.725  0.00  0.00    +0.000 A 
ENDBRANCH  11  12
ENDBRANCH   9  11
ENDBRANCH   8   9
ENDBRANCH   5   8
ENDBRANCH   1   2
BRANCH   1  20
ATOM     18  O   UNL     1      47.609   3.415  17.780  0.00  0.00    +0.000 OA
ATOM     19  C   UNL     1      47.655   4.542  17.292  0.00  0.00    +0.000 C 
ATOM     20  N   UNL     1      47.397   4.766  15.965  0.00  0.00    +0.000 N 
ATOM     21  H   UNL     1      47.670   5.651  15.547  0.00  0.00    +0.000 HD
BRANCH  19  22
ATOM     22  C   UNL     1      47.952   5.722  18.110  0.00  0.00    +0.000 A 
ATOM     23  C   UNL     1      47.230   5.957  19.271  0.00  0.00    +0.000 A 
ATOM     24  S   UNL     1      47.716   7.364  20.104  0.00  0.00    +0.000 S 
ATOM     25  C   UNL     1      48.936   7.686  18.962  0.00  0.00    +0.000 A 
ATOM     26  N   UNL     1      49.770   8.752  19.107  0.00  0.00    +0.000 NA
ATOM     27  C   UNL     1      50.670   8.853  18.188  0.00  0.00    +0.000 A 
ATOM     28  N   UNL     1      50.802   7.999  17.122  0.00  0.00    +0.000 N 
ATOM     29  C   UNL     1      49.943   6.950  16.901  0.00  0.00    +0.000 A 
ATOM     30  O   UNL     1      50.012   6.272  15.882  0.00  0.00    +0.000 OA
ATOM     31  C   UNL     1      48.944   6.757  17.936  0.00  0.00    +0.000 A 
ATOM     32  H   UNL     1      51.506   8.153  16.417  0.00  0.00    +0.000 HD
ENDBRANCH  19  22
ENDBRANCH   1  20
TORSDOF 7
ENDMDL
MODEL 4
REMARK VINA RESULT:    -8.131      2.270      3.855
REMARK INTER + INTRA:         -12.073
REMARK INTER:                 -11.018
REMARK INTRA:                  -1.055
REMARK UNBOUND:                -0.614
REMARK  Name = 
REMARK  7 active torsions:
REMARK  status: ('A' for Active; 'I' for Inactive)
REMARK    1  A    between atoms: C_2  and  C_20
REMARK    2  A    between atoms: N_3  and  C_4
REMARK    3  A    between atoms: C_4  and  C_5
REMARK    4  A    between atoms: C_8  and  C_9
REMARK    5  A    between atoms: C_9  and  N_10
REMARK    6  A    between atoms: N_10  and  C_11
REMARK    7  A    between atoms: C_11  and  C_12
REMARK                            x       y       z     vdW  Elec       q    Type
REMARK                         _______ _______ _______ _____ _____    ______ ____
ROOT
ATOM      1  C   UNL     1      46.996   4.563  14.716  0.00  0.00    +0.000 C 
ENDROOT
BRANCH   1   2
ATOM      2  C   UNL     1      46.108   4.525  13.501  0.00  0.00    +0.000 A 
ATOM      3  C   UNL     1      45.829   5.686  12.790  0.00  0.00    +0.000 A 
ATOM      4  N   UNL     1      45.025   5.705  11.700  0.00  0.00    +0.000 NA
ATOM      5  C   UNL     1      44.474   4.512  11.352  0.00  0.00    +0.000 A 
ATOM      6  C   UNL     1      44.733   3.355  12.079  0.00  0.00    +0.000 A 
ATOM      7  N   UNL     1      45.553   3.334  13.154  0.00  0.00    +0.000 NA
BRANCH   5   8
ATOM      8  C   UNL     1      43.617   4.464  10.108  0.00  0.00    +0.000 C 
BRANCH   8   9
ATOM      9  N   UNL     1      44.127   3.560   9.066  0.00  0.00    +0.000 NA
ATOM     10  H   UNL     1      43.365   3.409   8.402  0.00  0.00    +0.000 HD
BRANCH   9  11
ATOM     11  C   UNL     1      45.255   4.144   8.337  0.00  0.00    +0.000 C 
BRANCH  11  12
ATOM     12  C   UNL     1      46.152   3.072   7.771  0.00  0.00    +0.000 A 
ATOM     13  C   UNL     1      46.057   1.749   8.210  0.00  0.00    +0.000 A 
ATOM     14  C   UNL     1      46.890   0.798   7.641  0.00  0.00    +0.000 A 
ATOM     15  N   UNL     1      47.797   1.070   6.679  0.00  0.00    +0.000 NA
ATOM     16  C   UNL     1      47.877   2.354   6.272  0.00  0.00    +0.000 A 
ATOM     17  C   UNL     1      47.088   3.375   6.777  0.00  0.00    +0.000 A 
ENDBRANCH  11  12
ENDBRANCH   9  11
ENDBRANCH   8   9
ENDBRANCH   5   8
ENDBRANCH   1   2
BRANCH   1  20
ATOM     18  O   UNL     1      49.109   5.170  16.432  0.00  0.00    +0.000 OA
ATOM     19  C   UNL     1      48.650   6.073  15.736  0.00  0.00    +0.000 C 
ATOM     20  N   UNL     1      47.572   5.874  14.914  0.00  0.00    +0.000 N 
ATOM     21  H   UNL     1      47.367   6.555  14.187  0.00  0.00    +0.000 HD
BRANCH  19  22
ATOM     22  C   UNL     1      49.205   7.429  15.772  0.00  0.00    +0.000 A 
ATOM     23  C   UNL     1      49.275   8.115  16.976  0.00  0.00    +0.000 A 
ATOM     24  S   UNL     1      49.959   9.671  16.836  0.00  0.00    +0.000 S 
ATOM     25  C   UNL     1      50.221   9.467  15.167  0.00  0.00    +0.000 A 
ATOM     26  N   UNL     1      50.828  10.435  14.428  0.00  0.00    +0.000 NA
ATOM     27  C   UNL     1      50.995  10.131  13.186  0.00  0.00    +0.000 A 
ATOM     28  N   UNL     1      50.594   8.954  12.605  0.00  0.00    +0.000 N 
ATOM     29  C   UNL     1      49.920   7.977  13.298  0.00  0.00    +0.000 A 
ATOM     30  O   UNL     1      49.472   6.987  12.731  0.00  0.00    +0.000 OA
ATOM     31  C   UNL     1      49.755   8.245  14.715  0.00  0.00    +0.000 A 
ATOM     32  H   UNL     1      50.722   8.790  11.619  0.00  0.00    +0.000 HD
ENDBRANCH  19  22
ENDBRANCH   1  20
TORSDOF 7
ENDMDL
MODEL 5
REMARK VINA RESULT:    -8.118      1.715      2.573
REMARK INTER + INTRA:         -12.054
REMARK INTER:                 -11.321
REMARK INTRA:                  -0.733
REMARK UNBOUND:                -0.614
REMARK  Name = 
REMARK  7 active torsions:
REMARK  status: ('A' for Active; 'I' for Inactive)
REMARK    1  A    between atoms: C_2  and  C_20
REMARK    2  A    between atoms: N_3  and  C_4
REMARK    3  A    between atoms: C_4  and  C_5
REMARK    4  A    between atoms: C_8  and  C_9
REMARK    5  A    between atoms: C_9  and  N_10
REMARK    6  A    between atoms: N_10  and  C_11
REMARK    7  A    between atoms: C_11  and  C_12
REMARK                            x       y       z     vdW  Elec       q    Type
REMARK                         _______ _______ _______ _____ _____    ______ ____
ROOT
ATOM      1  C   UNL     1      47.282   4.186  15.074  0.00  0.00    +0.000 C 
ENDROOT
BRANCH   1   2
ATOM      2  C   UNL     1      46.512   4.387  13.797  0.00  0.00    +0.000 A 
ATOM      3  C   UNL     1      46.316   5.662  13.281  0.00  0.00    +0.000 A 
ATOM      4  N   UNL     1      45.618   5.894  12.143  0.00  0.00    +0.000 NA
ATOM      5  C   UNL     1      45.086   4.797  11.541  0.00  0.00    +0.000 A 
ATOM      6  C   UNL     1      45.262   3.524  12.073  0.00  0.00    +0.000 A 
ATOM      7  N   UNL     1      45.977   3.291  13.197  0.00  0.00    +0.000 NA
BRANCH   5   8
ATOM      8  C   UNL     1      44.349   4.993  10.237  0.00  0.00    +0.000 C 
BRANCH   8   9
ATOM      9  N   UNL     1      45.201   4.859   9.045  0.00  0.00    +0.000 NA
ATOM     10  H   UNL     1      46.136   4.607   9.372  0.00  0.00    +0.000 HD
BRANCH   9  11
ATOM     11  C   UNL     1      44.732   3.798   8.151  0.00  0.00    +0.000 C 
BRANCH  11  12
ATOM     12  C   UNL     1      45.873   2.926   7.692  0.00  0.00    +0.000 A 
ATOM     13  C   UNL     1      45.991   1.605   8.131  0.00  0.00    +0.000 A 
ATOM     14  C   UNL     1      47.045   0.838   7.661  0.00  0.00    +0.000 A 
ATOM     15  N   UNL     1      47.977   1.290   6.795  0.00  0.00    +0.000 NA
ATOM     16  C   UNL     1      47.850   2.570   6.386  0.00  0.00    +0.000 A 
ATOM     17  C   UNL     1      46.830   3.414   6.797  0.00  0.00    +0.000 A 
ENDBRANCH  11  12
ENDBRANCH   9  11
ENDBRANCH   8   9
ENDBRANCH   5   8
ENDBRANCH   1   2
BRANCH   1  20
ATOM     18  O   UNL     1      49.464   4.728  16.726  0.00  0.00    +0.000 OA
ATOM     19  C   UNL     1      48.674   5.640  16.491  0.00  0.00    +0.000 C 
ATOM     20  N   UNL     1      47.544   5.441  15.742  0.00  0.00    +0.000 N 
ATOM     21  H   UNL     1      47.045   6.245  15.370  0.00  0.00    +0.000 HD
BRANCH  19  22
ATOM     22  C   UNL     1      48.873   6.988  17.031  0.00  0.00    +0.000 A 
ATOM     23  C   UNL     1      49.516   7.950  16.265  0.00  0.00    +0.000 A 
ATOM     24  S   UNL     1      49.649   9.463  17.043  0.00  0.00    +0.000 S 
ATOM     25  C   UNL     1      48.816   8.895  18.414  0.00  0.00    +0.000 A 
ATOM     26  N   UNL     1      48.547   9.718  19.463  0.00  0.00    +0.000 NA
ATOM     27  C   UNL     1      47.878   9.164  20.417  0.00  0.00    +0.000 A 
ATOM     28  N   UNL     1      47.469   7.855  20.430  0.00  0.00    +0.000 N 
ATOM     29  C   UNL     1      47.774   6.971  19.423  0.00  0.00    +0.000 A 
ATOM     30  O   UNL     1      47.496   5.781  19.513  0.00  0.00    +0.000 OA
ATOM     31  C   UNL     1      48.479   7.557  18.298  0.00  0.00    +0.000 A 
ATOM     32  H   UNL     1      46.978   7.472  21.223  0.00  0.00    +0.000 HD
ENDBRANCH  19  22
ENDBRANCH   1  20
TORSDOF 7
ENDMDL
MODEL 6
REMARK VINA RESULT:    -7.947      1.575      2.466
REMARK INTER + INTRA:         -11.813
REMARK INTER:                 -10.939
REMARK INTRA:                  -0.874
REMARK UNBOUND:                -0.614
REMARK  Name = 
REMARK  7 active torsions:
REMARK  status: ('A' for Active; 'I' for Inactive)
REMARK    1  A    between atoms: C_2  and  C_20
REMARK    2  A    between atoms: N_3  and  C_4
REMARK    3  A    between atoms: C_4  and  C_5
REMARK    4  A    between atoms: C_8  and  C_9
REMARK    5  A    between atoms: C_9  and  N_10
REMARK    6  A    between atoms: N_10  and  C_11
REMARK    7  A    between atoms: C_11  and  C_12
REMARK                            x       y       z     vdW  Elec       q    Type
REMARK                         _______ _______ _______ _____ _____    ______ ____
ROOT
ATOM      1  C   UNL     1      48.038   6.442  13.778  0.00  0.00    +0.000 C 
ENDROOT
BRANCH   1   2
ATOM      2  C   UNL     1      46.819   6.033  12.995  0.00  0.00    +0.000 A 
ATOM      3  C   UNL     1      46.595   6.535  11.718  0.00  0.00    +0.000 A 
ATOM      4  N   UNL     1      45.508   6.207  10.981  0.00  0.00    +0.000 NA
ATOM      5  C   UNL     1      44.618   5.371  11.579  0.00  0.00    +0.000 A 
ATOM      6  C   UNL     1      44.830   4.890  12.866  0.00  0.00    +0.000 A 
ATOM      7  N   UNL     1      45.927   5.201  13.593  0.00  0.00    +0.000 NA
BRANCH   5   8
ATOM      8  C   UNL     1      43.416   4.926  10.778  0.00  0.00    +0.000 C 
BRANCH   8   9
ATOM      9  N   UNL     1      43.754   4.337   9.473  0.00  0.00    +0.000 NA
ATOM     10  H   UNL     1      44.451   4.949   9.041  0.00  0.00    +0.000 HD
BRANCH   9  11
ATOM     11  C   UNL     1      44.342   3.004   9.607  0.00  0.00    +0.000 C 
BRANCH  11  12
ATOM     12  C   UNL     1      45.427   2.779   8.585  0.00  0.00    +0.000 A 
ATOM     13  C   UNL     1      45.978   1.510   8.389  0.00  0.00    +0.000 A 
ATOM     14  C   UNL     1      46.957   1.352   7.420  0.00  0.00    +0.000 A 
ATOM     15  N   UNL     1      47.419   2.356   6.645  0.00  0.00    +0.000 NA
ATOM     16  C   UNL     1      46.878   3.575   6.853  0.00  0.00    +0.000 A 
ATOM     17  C   UNL     1      45.894   3.833   7.794  0.00  0.00    +0.000 A 
ENDBRANCH  11  12
ENDBRANCH   9  11
ENDBRANCH   8   9
ENDBRANCH   5   8
ENDBRANCH   1   2
BRANCH   1  20
ATOM     18  O   UNL     1      50.105   6.492  15.649  0.00  0.00    +0.000 OA
ATOM     19  C   UNL     1      48.980   6.185  16.036  0.00  0.00    +0.000 C 
ATOM     20  N   UNL     1      47.923   6.075  15.171  0.00  0.00    +0.000 N 
ATOM     21  H   UNL     1      46.977   6.055  15.541  0.00  0.00    +0.000 HD
BRANCH  19  22
ATOM     22  C   UNL     1      48.708   5.879  17.444  0.00  0.00    +0.000 A 
ATOM     23  C   UNL     1      48.903   4.590  17.921  0.00  0.00    +0.000 A 
ATOM     24  S   UNL     1      48.552   4.417  19.581  0.00  0.00    +0.000 S 
ATOM     25  C   UNL     1      48.167   6.068  19.729  0.00  0.00    +0.000 A 
ATOM     26  N   UNL     1      47.816   6.602  20.931  0.00  0.00    +0.000 NA
ATOM     27  C   UNL     1      47.587   7.871  20.903  0.00  0.00    +0.000 A 
ATOM     28  N   UNL     1      47.656   8.656  19.781  0.00  0.00    +0.000 N 
ATOM     29  C   UNL     1      47.942   8.149  18.536  0.00  0.00    +0.000 A 
ATOM     30  O   UNL     1      47.885   8.850  17.533  0.00  0.00    +0.000 OA
ATOM     31  C   UNL     1      48.263   6.733  18.520  0.00  0.00    +0.000 A 
ATOM     32  H   UNL     1      47.431   9.638  19.818  0.00  0.00    +0.000 HD
ENDBRANCH  19  22
ENDBRANCH   1  20
TORSDOF 7
ENDMDL
MODEL 7
REMARK VINA RESULT:    -7.557      1.551      2.014
REMARK INTER + INTRA:         -11.264
REMARK INTER:                 -10.315
REMARK INTRA:                  -0.950
REMARK UNBOUND:                -0.614
REMARK  Name = 
REMARK  7 active torsions:
REMARK  status: ('A' for Active; 'I' for Inactive)
REMARK    1  A    between atoms: C_2  and  C_20
REMARK    2  A    between atoms: N_3  and  C_4
REMARK    3  A    between atoms: C_4  and  C_5
REMARK    4  A    between atoms: C_8  and  C_9
REMARK    5  A    between atoms: C_9  and  N_10
REMARK    6  A    between atoms: N_10  and  C_11
REMARK    7  A    between atoms: C_11  and  C_12
REMARK                            x       y       z     vdW  Elec       q    Type
REMARK                         _______ _______ _______ _____ _____    ______ ____
ROOT
ATOM      1  C   UNL     1      46.607   8.470  13.047  0.00  0.00    +0.000 C 
ENDROOT
BRANCH   1   2
ATOM      2  C   UNL     1      45.922   7.210  12.590  0.00  0.00    +0.000 A 
ATOM      3  C   UNL     1      46.400   5.964  12.977  0.00  0.00    +0.000 A 
ATOM      4  N   UNL     1      45.826   4.802  12.580  0.00  0.00    +0.000 NA
ATOM      5  C   UNL     1      44.760   4.924  11.746  0.00  0.00    +0.000 A 
ATOM      6  C   UNL     1      44.298   6.172  11.340  0.00  0.00    +0.000 A 
ATOM      7  N   UNL     1      44.858   7.331  11.754  0.00  0.00    +0.000 NA
BRANCH   5   8
ATOM      8  C   UNL     1      44.045   3.662  11.322  0.00  0.00    +0.000 C 
BRANCH   8   9
ATOM      9  N   UNL     1      44.924   2.658  10.703  0.00  0.00    +0.000 NA
ATOM     10  H   UNL     1      44.877   1.819  11.287  0.00  0.00    +0.000 HD
BRANCH   9  11
ATOM     11  C   UNL     1      44.484   2.298   9.355  0.00  0.00    +0.000 C 
BRANCH  11  12
ATOM     12  C   UNL     1      45.620   2.387   8.367  0.00  0.00    +0.000 A 
ATOM     13  C   UNL     1      46.363   1.254   8.023  0.00  0.00    +0.000 A 
ATOM     14  C   UNL     1      47.382   1.385   7.092  0.00  0.00    +0.000 A 
ATOM     15  N   UNL     1      47.707   2.548   6.489  0.00  0.00    +0.000 NA
ATOM     16  C   UNL     1      46.982   3.631   6.838  0.00  0.00    +0.000 A 
ATOM     17  C   UNL     1      45.943   3.602   7.756  0.00  0.00    +0.000 A 
ENDBRANCH  11  12
ENDBRANCH   9  11
ENDBRANCH   8   9
ENDBRANCH   5   8
ENDBRANCH   1   2
BRANCH   1  20
ATOM     18  O   UNL     1      48.916   9.684  14.034  0.00  0.00    +0.000 OA
ATOM     19  C   UNL     1      48.233   9.020  14.810  0.00  0.00    +0.000 C 
ATOM     20  N   UNL     1      47.120   8.340  14.393  0.00  0.00    +0.000 N 
ATOM     21  H   UNL     1      46.454   8.002  15.082  0.00  0.00    +0.000 HD
BRANCH  19  22
ATOM     22  C   UNL     1      48.592   8.884  16.225  0.00  0.00    +0.000 A 
ATOM     23  C   UNL     1      48.635  10.007  17.039  0.00  0.00    +0.000 A 
ATOM     24  S   UNL     1      49.055   9.663  18.656  0.00  0.00    +0.000 S 
ATOM     25  C   UNL     1      49.155   7.995  18.334  0.00  0.00    +0.000 A 
ATOM     26  N   UNL     1      49.442   7.105  19.322  0.00  0.00    +0.000 NA
ATOM     27  C   UNL     1      49.448   5.872  18.943  0.00  0.00    +0.000 A 
ATOM     28  N   UNL     1      49.215   5.444  17.661  0.00  0.00    +0.000 N 
ATOM     29  C   UNL     1      48.986   6.310  16.619  0.00  0.00    +0.000 A 
ATOM     30  O   UNL     1      48.895   5.910  15.465  0.00  0.00    +0.000 OA
ATOM     31  C   UNL     1      48.913   7.709  17.001  0.00  0.00    +0.000 A 
ATOM     32  H   UNL     1      49.269   4.466  17.421  0.00  0.00    +0.000 HD
ENDBRANCH  19  22
ENDBRANCH   1  20
TORSDOF 7
ENDMDL
MODEL 8
REMARK VINA RESULT:    -7.524      3.551      8.360
REMARK INTER + INTRA:         -11.217
REMARK INTER:                 -10.041
REMARK INTRA:                  -1.176
REMARK UNBOUND:                -0.614
REMARK  Name = 
REMARK  7 active torsions:
REMARK  status: ('A' for Active; 'I' for Inactive)
REMARK    1  A    between atoms: C_2  and  C_20
REMARK    2  A    between atoms: N_3  and  C_4
REMARK    3  A    between atoms: C_4  and  C_5
REMARK    4  A    between atoms: C_8  and  C_9
REMARK    5  A    between atoms: C_9  and  N_10
REMARK    6  A    between atoms: N_10  and  C_11
REMARK    7  A    between atoms: C_11  and  C_12
REMARK                            x       y       z     vdW  Elec       q    Type
REMARK                         _______ _______ _______ _____ _____    ______ ____
ROOT
ATOM      1  C   UNL     1      48.333   8.064  12.346  0.00  0.00    +0.000 C 
ENDROOT
BRANCH   1   2
ATOM      2  C   UNL     1      48.571   7.866  13.818  0.00  0.00    +0.000 A 
ATOM      3  C   UNL     1      48.131   8.807  14.741  0.00  0.00    +0.000 A 
ATOM      4  N   UNL     1      48.334   8.680  16.074  0.00  0.00    +0.000 NA
ATOM      5  C   UNL     1      49.030   7.578  16.464  0.00  0.00    +0.000 A 
ATOM      6  C   UNL     1      49.491   6.650  15.537  0.00  0.00    +0.000 A 
ATOM      7  N   UNL     1      49.269   6.767  14.209  0.00  0.00    +0.000 NA
BRANCH   5   8
ATOM      8  C   UNL     1      49.232   7.356  17.945  0.00  0.00    +0.000 C 
BRANCH   8   9
ATOM      9  N   UNL     1      48.461   6.229  18.490  0.00  0.00    +0.000 NA
ATOM     10  H   UNL     1      47.902   5.849  17.722  0.00  0.00    +0.000 HD
BRANCH   9  11
ATOM     11  C   UNL     1      49.328   5.161  18.991  0.00  0.00    +0.000 C 
BRANCH  11  12
ATOM     12  C   UNL     1      49.374   3.999  18.031  0.00  0.00    +0.000 A 
ATOM     13  C   UNL     1      50.547   3.259  17.854  0.00  0.00    +0.000 A 
ATOM     14  C   UNL     1      50.531   2.186  16.977  0.00  0.00    +0.000 A 
ATOM     15  N   UNL     1      49.443   1.804  16.274  0.00  0.00    +0.000 NA
ATOM     16  C   UNL     1      48.322   2.534  16.455  0.00  0.00    +0.000 A 
ATOM     17  C   UNL     1      48.238   3.621  17.310  0.00  0.00    +0.000 A 
ENDBRANCH  11  12
ENDBRANCH   9  11
ENDBRANCH   8   9
ENDBRANCH   5   8
ENDBRANCH   1   2
BRANCH   1  20
ATOM     18  O   UNL     1      45.568   7.908  12.018  0.00  0.00    +0.000 OA
ATOM     19  C   UNL     1      46.255   6.983  11.592  0.00  0.00    +0.000 C 
ATOM     20  N   UNL     1      47.613   6.951  11.768  0.00  0.00    +0.000 N 
ATOM     21  H   UNL     1      48.174   6.311  11.212  0.00  0.00    +0.000 HD
BRANCH  19  22
ATOM     22  C   UNL     1      45.657   5.835  10.902  0.00  0.00    +0.000 A 
ATOM     23  C   UNL     1      45.906   5.635   9.552  0.00  0.00    +0.000 A 
ATOM     24  S   UNL     1      45.144   4.248   8.916  0.00  0.00    +0.000 S 
ATOM     25  C   UNL     1      44.488   3.844  10.434  0.00  0.00    +0.000 A 
ATOM     26  N   UNL     1      43.744   2.717  10.600  0.00  0.00    +0.000 NA
ATOM     27  C   UNL     1      43.343   2.517  11.809  0.00  0.00    +0.000 A 
ATOM     28  N   UNL     1      43.598   3.351  12.868  0.00  0.00    +0.000 N 
ATOM     29  C   UNL     1      44.287   4.532  12.734  0.00  0.00    +0.000 A 
ATOM     30  O   UNL     1      44.402   5.314  13.671  0.00  0.00    +0.000 OA
ATOM     31  C   UNL     1      44.811   4.779  11.403  0.00  0.00    +0.000 A 
ATOM     32  H   UNL     1      43.225   3.157  13.785  0.00  0.00    +0.000 HD
ENDBRANCH  19  22
ENDBRANCH   1  20
TORSDOF 7
ENDMDL
MODEL 9
REMARK VINA RESULT:    -7.413      3.143      5.147
REMARK INTER + INTRA:         -11.061
REMARK INTER:                 -10.147
REMARK INTRA:                  -0.915
REMARK UNBOUND:                -0.614
REMARK  Name = 
REMARK  7 active torsions:
REMARK  status: ('A' for Active; 'I' for Inactive)
REMARK    1  A    between atoms: C_2  and  C_20
REMARK    2  A    between atoms: N_3  and  C_4
REMARK    3  A    between atoms: C_4  and  C_5
REMARK    4  A    between atoms: C_8  and  C_9
REMARK    5  A    between atoms: C_9  and  N_10
REMARK    6  A    between atoms: N_10  and  C_11
REMARK    7  A    between atoms: C_11  and  C_12
REMARK                            x       y       z     vdW  Elec       q    Type
REMARK                         _______ _______ _______ _____ _____    ______ ____
ROOT
ATOM      1  C   UNL     1      47.709   3.377  17.421  0.00  0.00    +0.000 C 
ENDROOT
BRANCH   1   2
ATOM      2  C   UNL     1      47.607   4.170  16.145  0.00  0.00    +0.000 A 
ATOM      3  C   UNL     1      48.238   5.402  16.023  0.00  0.00    +0.000 A 
ATOM      4  N   UNL     1      48.163   6.158  14.902  0.00  0.00    +0.000 NA
ATOM      5  C   UNL     1      47.399   5.651  13.897  0.00  0.00    +0.000 A 
ATOM      6  C   UNL     1      46.748   4.430  14.030  0.00  0.00    +0.000 A 
ATOM      7  N   UNL     1      46.841   3.666  15.142  0.00  0.00    +0.000 NA
BRANCH   5   8
ATOM      8  C   UNL     1      47.330   6.425  12.601  0.00  0.00    +0.000 C 
BRANCH   8   9
ATOM      9  N   UNL     1      46.028   7.063  12.356  0.00  0.00    +0.000 NA
ATOM     10  H   UNL     1      46.175   8.074  12.407  0.00  0.00    +0.000 HD
BRANCH   9  11
ATOM     11  C   UNL     1      45.504   6.748  11.026  0.00  0.00    +0.000 C 
BRANCH  11  12
ATOM     12  C   UNL     1      44.756   5.439  11.029  0.00  0.00    +0.000 A 
ATOM     13  C   UNL     1      45.052   4.440  10.098  0.00  0.00    +0.000 A 
ATOM     14  C   UNL     1      44.351   3.245  10.158  0.00  0.00    +0.000 A 
ATOM     15  N   UNL     1      43.389   2.982  11.068  0.00  0.00    +0.000 NA
ATOM     16  C   UNL     1      43.114   3.961  11.955  0.00  0.00    +0.000 A 
ATOM     17  C   UNL     1      43.761   5.186  11.978  0.00  0.00    +0.000 A 
ENDBRANCH  11  12
ENDBRANCH   9  11
ENDBRANCH   8   9
ENDBRANCH   5   8
ENDBRANCH   1   2
BRANCH   1  20
ATOM     18  O   UNL     1      49.450   1.659  16.080  0.00  0.00    +0.000 OA
ATOM     19  C   UNL     1      49.889   2.305  17.029  0.00  0.00    +0.000 C 
ATOM     20  N   UNL     1      49.086   3.123  17.780  0.00  0.00    +0.000 N 
ATOM     21  H   UNL     1      49.512   3.812  18.393  0.00  0.00    +0.000 HD
BRANCH  19  22
ATOM     22  C   UNL     1      51.293   2.209  17.440  0.00  0.00    +0.000 A 
ATOM     23  C   UNL     1      51.891   0.964  17.571  0.00  0.00    +0.000 A 
ATOM     24  S   UNL     1      53.529   1.039  18.042  0.00  0.00    +0.000 S 
ATOM     25  C   UNL     1      53.507   2.741  18.047  0.00  0.00    +0.000 A 
ATOM     26  N   UNL     1      54.628   3.457  18.332  0.00  0.00    +0.000 NA
ATOM     27  C   UNL     1      54.476   4.736  18.263  0.00  0.00    +0.000 A 
ATOM     28  N   UNL     1      53.298   5.370  17.956  0.00  0.00    +0.000 N 
ATOM     29  C   UNL     1      52.127   4.690  17.725  0.00  0.00    +0.000 A 
ATOM     30  O   UNL     1      51.066   5.282  17.566  0.00  0.00    +0.000 OA
ATOM     31  C   UNL     1      52.255   3.244  17.736  0.00  0.00    +0.000 A 
ATOM     32  H   UNL     1      53.235   6.377  17.952  0.00  0.00    +0.000 HD
ENDBRANCH  19  22
ENDBRANCH   1  20
TORSDOF 7
ENDMDL
