MODEL 1
REMARK VINA RESULT:    -7.934      0.000      0.000
REMARK INTER + INTRA:         -10.890
REMARK INTER:                 -10.485
REMARK INTRA:                  -0.406
REMARK UNBOUND:                -0.406
REMARK  Name = 
REMARK  6 active torsions:
REMARK  status: ('A' for Active; 'I' for Inactive)
REMARK    1  A    between atoms: N_1  and  C_2
REMARK    2  A    between atoms: C_2  and  C_3
REMARK    3  A    between atoms: C_6  and  C_7
REMARK    4  A    between atoms: C_7  and  O_8
REMARK    5  A    between atoms: O_8  and  C_9
REMARK    6  A    between atoms: C_13  and  C_14
REMARK                            x       y       z     vdW  Elec       q    Type
REMARK                         _______ _______ _______ _____ _____    ______ ____
ROOT
ATOM      1  O   UNL     1      43.978   4.341  10.787  0.00  0.00    +0.000 OA
ENDROOT
BRANCH   1   2
ATOM      2  C   UNL     1      44.905   4.902  11.623  0.00  0.00    +0.000 A 
ATOM      3  C   UNL     1      45.282   6.210  11.345  0.00  0.00    +0.000 A 
ATOM      4  N   UNL     1      46.191   6.913  12.065  0.00  0.00    +0.000 NA
ATOM      5  C   UNL     1      46.754   6.272  13.120  0.00  0.00    +0.000 A 
ATOM      6  C   UNL     1      46.450   4.971  13.488  0.00  0.00    +0.000 A 
ATOM      7  C   UNL     1      45.506   4.280  12.717  0.00  0.00    +0.000 A 
BRANCH   6   8
ATOM      8  C   UNL     1      47.071   4.272  14.641  0.00  0.00    +0.000 C 
ATOM      9  N   UNL     1      47.183   4.928  15.835  0.00  0.00    +0.000 N 
ATOM     10  O   UNL     1      47.480   3.121  14.535  0.00  0.00    +0.000 OA
ATOM     11  H   UNL     1      46.888   5.870  16.030  0.00  0.00    +0.000 HD
ATOM     12  H   UNL     1      47.620   4.412  16.589  0.00  0.00    +0.000 HD
ENDBRANCH   6   8
ENDBRANCH   1   2
BRANCH   1  13
ATOM     13  C   UNL     1      44.200   2.974  10.440  0.00  0.00    +0.000 C 
BRANCH  13  17
ATOM     14  C   UNL     1      46.592   2.761   6.838  0.00  0.00    +0.000 A 
ATOM     15  C   UNL     1      45.973   3.961   7.217  0.00  0.00    +0.000 A 
ATOM     16  C   UNL     1      45.183   4.027   8.366  0.00  0.00    +0.000 A 
ATOM     17  C   UNL     1      44.994   2.891   9.163  0.00  0.00    +0.000 A 
ATOM     18  C   UNL     1      45.571   1.680   8.763  0.00  0.00    +0.000 A 
ATOM     19  C   UNL     1      46.369   1.617   7.617  0.00  0.00    +0.000 A 
BRANCH  14  20
ATOM     20  C   UNL     1      47.454   2.700   5.603  0.00  0.00    +0.000 C 
BRANCH  20  21
ATOM     21  N   UNL     1      48.535   1.729   5.738  0.00  0.00    +0.000 NA
ATOM     22  H   UNL     1      48.683   1.270   4.841  0.00  0.00    +0.000 HD
ATOM     23  H   UNL     1      48.244   1.002   6.390  0.00  0.00    +0.000 HD
ENDBRANCH  20  21
ENDBRANCH  14  20
ENDBRANCH  13  17
ENDBRANCH   1  13
TORSDOF 6
ENDMDL
MODEL 2
REMARK VINA RESULT:    -7.671      1.609      2.087
REMARK INTER + INTRA:         -10.544
REMARK INTER:                  -9.994
REMARK INTRA:                  -0.550
REMARK UNBOUND:                -0.406
REMARK  Name = 
REMARK  6 active torsions:
REMARK  status: ('A' for Active; 'I' for Inactive)
REMARK    1  A    between atoms: N_1  and  C_2
REMARK    2  A    between atoms: C_2  and  C_3
REMARK    3  A    between atoms: C_6  and  C_7
REMARK    4  A    between atoms: C_7  and  O_8
REMARK    5  A    between atoms: O_8  and  C_9
REMARK    6  A    between atoms: C_13  and  C_14
REMARK                            x       y       z     vdW  Elec       q    Type
REMARK                         _______ _______ _______ _____ _____    ______ ____
ROOT
ATOM      1  O   UNL     1      44.661   5.637  10.719  0.00  0.00    +0.000 OA
ENDROOT
BRANCH   1   2
ATOM      2  C   UNL     1      45.461   5.438  11.810  0.00  0.00    +0.000 A 
ATOM      3  C   UNL     1      45.011   4.522  12.753  0.00  0.00    +0.000 A 
ATOM      4  N   UNL     1      45.674   4.210  13.894  0.00  0.00    +0.000 NA
ATOM      5  C   UNL     1      46.851   4.852  14.105  0.00  0.00    +0.000 A 
ATOM      6  C   UNL     1      47.394   5.782  13.232  0.00  0.00    +0.000 A 
ATOM      7  C   UNL     1      46.676   6.074  12.064  0.00  0.00    +0.000 A 
BRANCH   6   8
ATOM      8  C   UNL     1      48.679   6.484  13.467  0.00  0.00    +0.000 C 
ATOM      9  N   UNL     1      49.383   6.960  12.396  0.00  0.00    +0.000 N 
ATOM     10  O   UNL     1      49.114   6.641  14.602  0.00  0.00    +0.000 OA
ATOM     11  H   UNL     1      49.123   6.881  11.427  0.00  0.00    +0.000 HD
ATOM     12  H   UNL     1      50.258   7.425  12.607  0.00  0.00    +0.000 HD
ENDBRANCH   6   8
ENDBRANCH   1   2
BRANCH   1  13
ATOM     13  C   UNL     1      43.975   4.484  10.233  0.00  0.00    +0.000 C 
BRANCH  13  17
ATOM     14  C   UNL     1      46.604   2.325   7.555  0.00  0.00    +0.000 A 
ATOM     15  C   UNL     1      46.482   3.719   7.469  0.00  0.00    +0.000 A 
ATOM     16  C   UNL     1      45.618   4.416   8.317  0.00  0.00    +0.000 A 
ATOM     17  C   UNL     1      44.855   3.730   9.270  0.00  0.00    +0.000 A 
ATOM     18  C   UNL     1      44.939   2.334   9.328  0.00  0.00    +0.000 A 
ATOM     19  C   UNL     1      45.811   1.639   8.485  0.00  0.00    +0.000 A 
BRANCH  14  20
ATOM     20  C   UNL     1      47.548   1.582   6.645  0.00  0.00    +0.000 C 
BRANCH  20  21
ATOM     21  N   UNL     1      48.632   2.435   6.167  0.00  0.00    +0.000 NA
ATOM     22  H   UNL     1      48.364   2.841   5.272  0.00  0.00    +0.000 HD
ATOM     23  H   UNL     1      49.451   1.857   5.989  0.00  0.00    +0.000 HD
ENDBRANCH  20  21
ENDBRANCH  14  20
ENDBRANCH  13  17
ENDBRANCH   1  13
TORSDOF 6
ENDMDL
MODEL 3
REMARK VINA RESULT:    -7.475      2.167      6.343
REMARK INTER + INTRA:         -10.284
REMARK INTER:                 -10.104
REMARK INTRA:                  -0.181
REMARK UNBOUND:                -0.406
REMARK  Name = 
REMARK  6 active torsions:
REMARK  status: ('A' for Active; 'I' for Inactive)
REMARK    1  A    between atoms: N_1  and  C_2
REMARK    2  A    between atoms: C_2  and  C_3
REMARK    3  A    between atoms: C_6  and  C_7
REMARK    4  A    between atoms: C_7  and  O_8
REMARK    5  A    between atoms: O_8  and  C_9
REMARK    6  A    between atoms: C_13  and  C_14
REMARK                            x       y       z     vdW  Elec       q    Type
REMARK                         _______ _______ _______ _____ _____    ______ ____
ROOT
ATOM      1  O   UNL     1      43.714   2.806  10.574  0.00  0.00    +0.000 OA
ENDROOT
BRANCH   1   2
ATOM      2  C   UNL     1      44.557   2.895   9.501  0.00  0.00    +0.000 A 
ATOM      3  C   UNL     1      44.563   4.102   8.813  0.00  0.00    +0.000 A 
ATOM      4  N   UNL     1      45.331   4.359   7.725  0.00  0.00    +0.000 NA
ATOM      5  C   UNL     1      46.134   3.351   7.300  0.00  0.00    +0.000 A 
ATOM      6  C   UNL     1      46.210   2.110   7.911  0.00  0.00    +0.000 A 
ATOM      7  C   UNL     1      45.400   1.887   9.033  0.00  0.00    +0.000 A 
BRANCH   6   8
ATOM      8  C   UNL     1      47.088   1.009   7.442  0.00  0.00    +0.000 C 
ATOM      9  N   UNL     1      46.708  -0.286   7.663  0.00  0.00    +0.000 N 
ATOM     10  O   UNL     1      48.142   1.246   6.863  0.00  0.00    +0.000 OA
ATOM     11  H   UNL     1      45.871  -0.591   8.131  0.00  0.00    +0.000 HD
ATOM     12  H   UNL     1      47.344  -1.001   7.331  0.00  0.00    +0.000 HD
ENDBRANCH   6   8
ENDBRANCH   1   2
BRANCH   1  13
ATOM     13  C   UNL     1      43.326   4.046  11.164  0.00  0.00    +0.000 C 
BRANCH  13  17
ATOM     14  C   UNL     1      46.684   5.653  13.374  0.00  0.00    +0.000 A 
ATOM     15  C   UNL     1      46.373   4.288  13.437  0.00  0.00    +0.000 A 
ATOM     16  C   UNL     1      45.278   3.770  12.742  0.00  0.00    +0.000 A 
ATOM     17  C   UNL     1      44.467   4.611  11.970  0.00  0.00    +0.000 A 
ATOM     18  C   UNL     1      44.745   5.982  11.943  0.00  0.00    +0.000 A 
ATOM     19  C   UNL     1      45.848   6.497  12.631  0.00  0.00    +0.000 A 
BRANCH  14  20
ATOM     20  C   UNL     1      47.876   6.202  14.117  0.00  0.00    +0.000 C 
BRANCH  20  21
ATOM     21  N   UNL     1      48.048   5.566  15.419  0.00  0.00    +0.000 NA
ATOM     22  H   UNL     1      48.361   4.607  15.281  0.00  0.00    +0.000 HD
ATOM     23  H   UNL     1      47.141   5.510  15.880  0.00  0.00    +0.000 HD
ENDBRANCH  20  21
ENDBRANCH  14  20
ENDBRANCH  13  17
ENDBRANCH   1  13
TORSDOF 6
ENDMDL
MODEL 4
REMARK VINA RESULT:    -7.389      2.173      6.510
REMARK INTER + INTRA:         -10.170
REMARK INTER:                  -9.639
REMARK INTRA:                  -0.531
REMARK UNBOUND:                -0.406
REMARK  Name = 
REMARK  6 active torsions:
REMARK  status: ('A' for Active; 'I' for Inactive)
REMARK    1  A    between atoms: N_1  and  C_2
REMARK    2  A    between atoms: C_2  and  C_3
REMARK    3  A    between atoms: C_6  and  C_7
REMARK    4  A    between atoms: C_7  and  O_8
REMARK    5  A    between atoms: O_8  and  C_9
REMARK    6  A    between atoms: C_13  and  C_14
REMARK                            x       y       z     vdW  Elec       q    Type
REMARK                         _______ _______ _______ _____ _____    ______ ____
ROOT
ATOM      1  O   UNL     1      44.087   4.426   9.175  0.00  0.00    +0.000 OA
ENDROOT
BRANCH   1   2
ATOM      2  C   UNL     1      44.868   3.429   8.658  0.00  0.00    +0.000 A 
ATOM      3  C   UNL     1      44.724   2.169   9.224  0.00  0.00    +0.000 A 
ATOM      4  N   UNL     1      45.423   1.073   8.839  0.00  0.00    +0.000 NA
ATOM      5  C   UNL     1      46.317   1.247   7.833  0.00  0.00    +0.000 A 
ATOM      6  C   UNL     1      46.539   2.458   7.196  0.00  0.00    +0.000 A 
ATOM      7  C   UNL     1      45.796   3.565   7.626  0.00  0.00    +0.000 A 
BRANCH   6   8
ATOM      8  C   UNL     1      47.520   2.646   6.099  0.00  0.00    +0.000 C 
ATOM      9  N   UNL     1      48.852   2.480   6.360  0.00  0.00    +0.000 N 
ATOM     10  O   UNL     1      47.152   2.947   4.969  0.00  0.00    +0.000 OA
ATOM     11  H   UNL     1      49.261   2.241   7.247  0.00  0.00    +0.000 HD
ATOM     12  H   UNL     1      49.482   2.627   5.580  0.00  0.00    +0.000 HD
ENDBRANCH   6   8
ENDBRANCH   1   2
BRANCH   1  13
ATOM     13  C   UNL     1      43.792   4.326  10.568  0.00  0.00    +0.000 C 
BRANCH  13  17
ATOM     14  C   UNL     1      47.079   6.045  12.801  0.00  0.00    +0.000 A 
ATOM     15  C   UNL     1      46.527   4.812  13.175  0.00  0.00    +0.000 A 
ATOM     16  C   UNL     1      45.453   4.265  12.470  0.00  0.00    +0.000 A 
ATOM     17  C   UNL     1      44.905   4.944  11.374  0.00  0.00    +0.000 A 
ATOM     18  C   UNL     1      45.422   6.197  11.027  0.00  0.00    +0.000 A 
ATOM     19  C   UNL     1      46.503   6.739  11.729  0.00  0.00    +0.000 A 
BRANCH  14  20
ATOM     20  C   UNL     1      48.246   6.623  13.560  0.00  0.00    +0.000 C 
BRANCH  20  21
ATOM     21  N   UNL     1      49.459   6.663  12.748  0.00  0.00    +0.000 NA
ATOM     22  H   UNL     1      49.301   6.138  11.890  0.00  0.00    +0.000 HD
ATOM     23  H   UNL     1      50.204   6.181  13.249  0.00  0.00    +0.000 HD
ENDBRANCH  20  21
ENDBRANCH  14  20
ENDBRANCH  13  17
ENDBRANCH   1  13
TORSDOF 6
ENDMDL
MODEL 5
REMARK VINA RESULT:    -7.217      1.709      2.155
REMARK INTER + INTRA:          -9.943
REMARK INTER:                  -9.367
REMARK INTRA:                  -0.576
REMARK UNBOUND:                -0.406
REMARK  Name = 
REMARK  6 active torsions:
REMARK  status: ('A' for Active; 'I' for Inactive)
REMARK    1  A    between atoms: N_1  and  C_2
REMARK    2  A    between atoms: C_2  and  C_3
REMARK    3  A    between atoms: C_6  and  C_7
REMARK    4  A    between atoms: C_7  and  O_8
REMARK    5  A    between atoms: O_8  and  C_9
REMARK    6  A    between atoms: C_13  and  C_14
REMARK                            x       y       z     vdW  Elec       q    Type
REMARK                         _______ _______ _______ _____ _____    ______ ____
ROOT
ATOM      1  O   UNL     1      44.356   4.325  11.538  0.00  0.00    +0.000 OA
ENDROOT
BRANCH   1   2
ATOM      2  C   UNL     1      44.976   5.518  11.792  0.00  0.00    +0.000 A 
ATOM      3  C   UNL     1      44.279   6.668  11.443  0.00  0.00    +0.000 A 
ATOM      4  N   UNL     1      44.746   7.929  11.617  0.00  0.00    +0.000 NA
ATOM      5  C   UNL     1      45.980   8.046  12.169  0.00  0.00    +0.000 A 
ATOM      6  C   UNL     1      46.761   6.969  12.556  0.00  0.00    +0.000 A 
ATOM      7  C   UNL     1      46.240   5.683  12.358  0.00  0.00    +0.000 A 
BRANCH   6   8
ATOM      8  C   UNL     1      48.112   7.100  13.156  0.00  0.00    +0.000 C 
ATOM      9  N   UNL     1      48.419   8.230  13.863  0.00  0.00    +0.000 N 
ATOM     10  O   UNL     1      48.949   6.214  13.027  0.00  0.00    +0.000 OA
ATOM     11  H   UNL     1      47.813   9.017  14.025  0.00  0.00    +0.000 HD
ATOM     12  H   UNL     1      49.355   8.276  14.247  0.00  0.00    +0.000 HD
ENDBRANCH   6   8
ENDBRANCH   1   2
BRANCH   1  13
ATOM     13  C   UNL     1      43.789   4.184  10.236  0.00  0.00    +0.000 C 
BRANCH  13  17
ATOM     14  C   UNL     1      46.584   2.381   7.464  0.00  0.00    +0.000 A 
ATOM     15  C   UNL     1      45.908   1.597   8.410  0.00  0.00    +0.000 A 
ATOM     16  C   UNL     1      45.023   2.180   9.320  0.00  0.00    +0.000 A 
ATOM     17  C   UNL     1      44.795   3.561   9.303  0.00  0.00    +0.000 A 
ATOM     18  C   UNL     1      45.503   4.353   8.390  0.00  0.00    +0.000 A 
ATOM     19  C   UNL     1      46.382   3.767   7.475  0.00  0.00    +0.000 A 
BRANCH  14  20
ATOM     20  C   UNL     1      47.528   1.743   6.477  0.00  0.00    +0.000 C 
BRANCH  20  21
ATOM     21  N   UNL     1      48.733   2.544   6.279  0.00  0.00    +0.000 NA
ATOM     22  H   UNL     1      48.488   3.394   5.775  0.00  0.00    +0.000 HD
ATOM     23  H   UNL     1      49.375   2.028   5.680  0.00  0.00    +0.000 HD
ENDBRANCH  20  21
ENDBRANCH  14  20
ENDBRANCH  13  17
ENDBRANCH   1  13
TORSDOF 6
ENDMDL
MODEL 6
REMARK VINA RESULT:    -6.658      1.773      3.436
REMARK INTER + INTRA:          -9.204
REMARK INTER:                  -8.699
REMARK INTRA:                  -0.505
REMARK UNBOUND:                -0.406
REMARK  Name = 
REMARK  6 active torsions:
REMARK  status: ('A' for Active; 'I' for Inactive)
REMARK    1  A    between atoms: N_1  and  C_2
REMARK    2  A    between atoms: C_2  and  C_3
REMARK    3  A    between atoms: C_6  and  C_7
REMARK    4  A    between atoms: C_7  and  O_8
REMARK    5  A    between atoms: O_8  and  C_9
REMARK    6  A    between atoms: C_13  and  C_14
REMARK                            x       y       z     vdW  Elec       q    Type
REMARK                         _______ _______ _______ _____ _____    ______ ____
ROOT
ATOM      1  O   UNL     1      45.065   4.175  11.687  0.00  0.00    +0.000 OA
ENDROOT
BRANCH   1   2
ATOM      2  C   UNL     1      45.301   5.495  11.957  0.00  0.00    +0.000 A 
ATOM      3  C   UNL     1      46.314   5.773  12.866  0.00  0.00    +0.000 A 
ATOM      4  N   UNL     1      46.675   7.021  13.252  0.00  0.00    +0.000 NA
ATOM      5  C   UNL     1      45.982   8.049  12.700  0.00  0.00    +0.000 A 
ATOM      6  C   UNL     1      44.956   7.888  11.782  0.00  0.00    +0.000 A 
ATOM      7  C   UNL     1      44.615   6.580  11.411  0.00  0.00    +0.000 A 
BRANCH   6   8
ATOM      8  C   UNL     1      44.198   9.014  11.183  0.00  0.00    +0.000 C 
ATOM      9  N   UNL     1      44.778  10.251  11.125  0.00  0.00    +0.000 N 
ATOM     10  O   UNL     1      43.066   8.849  10.742  0.00  0.00    +0.000 OA
ATOM     11  H   UNL     1      45.694  10.497  11.461  0.00  0.00    +0.000 HD
ATOM     12  H   UNL     1      44.218  10.988  10.714  0.00  0.00    +0.000 HD
ENDBRANCH   6   8
ENDBRANCH   1   2
BRANCH   1  13
ATOM     13  C   UNL     1      44.214   3.911  10.571  0.00  0.00    +0.000 C 
BRANCH  13  17
ATOM     14  C   UNL     1      46.476   2.692   7.087  0.00  0.00    +0.000 A 
ATOM     15  C   UNL     1      46.013   1.742   8.008  0.00  0.00    +0.000 A 
ATOM     16  C   UNL     1      45.302   2.134   9.144  0.00  0.00    +0.000 A 
ATOM     17  C   UNL     1      45.040   3.489   9.384  0.00  0.00    +0.000 A 
ATOM     18  C   UNL     1      45.541   4.444   8.492  0.00  0.00    +0.000 A 
ATOM     19  C   UNL     1      46.245   4.049   7.350  0.00  0.00    +0.000 A 
BRANCH  14  20
ATOM     20  C   UNL     1      47.232   2.260   5.856  0.00  0.00    +0.000 C 
BRANCH  20  21
ATOM     21  N   UNL     1      48.607   1.878   6.166  0.00  0.00    +0.000 NA
ATOM     22  H   UNL     1      48.645   1.523   7.120  0.00  0.00    +0.000 HD
ATOM     23  H   UNL     1      49.192   2.711   6.143  0.00  0.00    +0.000 HD
ENDBRANCH  20  21
ENDBRANCH  14  20
ENDBRANCH  13  17
ENDBRANCH   1  13
TORSDOF 6
ENDMDL
MODEL 7
REMARK VINA RESULT:    -6.484      2.138      6.646
REMARK INTER + INTRA:          -8.975
REMARK INTER:                  -8.688
REMARK INTRA:                  -0.287
REMARK UNBOUND:                -0.406
REMARK  Name = 
REMARK  6 active torsions:
REMARK  status: ('A' for Active; 'I' for Inactive)
REMARK    1  A    between atoms: N_1  and  C_2
REMARK    2  A    between atoms: C_2  and  C_3
REMARK    3  A    between atoms: C_6  and  C_7
REMARK    4  A    between atoms: C_7  and  O_8
REMARK    5  A    between atoms: O_8  and  C_9
REMARK    6  A    between atoms: C_13  and  C_14
REMARK                            x       y       z     vdW  Elec       q    Type
REMARK                         _______ _______ _______ _____ _____    ______ ____
ROOT
ATOM      1  O   UNL     1      44.454   4.919   9.930  0.00  0.00    +0.000 OA
ENDROOT
BRANCH   1   2
ATOM      2  C   UNL     1      44.948   3.826   9.274  0.00  0.00    +0.000 A 
ATOM      3  C   UNL     1      44.423   2.592   9.639  0.00  0.00    +0.000 A 
ATOM      4  N   UNL     1      44.804   1.408   9.098  0.00  0.00    +0.000 NA
ATOM      5  C   UNL     1      45.763   1.462   8.139  0.00  0.00    +0.000 A 
ATOM      6  C   UNL     1      46.353   2.635   7.698  0.00  0.00    +0.000 A 
ATOM      7  C   UNL     1      45.930   3.836   8.284  0.00  0.00    +0.000 A 
BRANCH   6   8
ATOM      8  C   UNL     1      47.403   2.690   6.652  0.00  0.00    +0.000 C 
ATOM      9  N   UNL     1      47.203   3.470   5.547  0.00  0.00    +0.000 N 
ATOM     10  O   UNL     1      48.442   2.049   6.767  0.00  0.00    +0.000 OA
ATOM     11  H   UNL     1      46.390   4.029   5.349  0.00  0.00    +0.000 HD
ATOM     12  H   UNL     1      47.946   3.468   4.858  0.00  0.00    +0.000 HD
ENDBRANCH   6   8
ENDBRANCH   1   2
BRANCH   1  13
ATOM     13  C   UNL     1      45.412   5.914  10.291  0.00  0.00    +0.000 C 
BRANCH  13  17
ATOM     14  C   UNL     1      47.046   5.057  14.208  0.00  0.00    +0.000 A 
ATOM     15  C   UNL     1      47.604   6.061  13.403  0.00  0.00    +0.000 A 
ATOM     16  C   UNL     1      47.093   6.325  12.130  0.00  0.00    +0.000 A 
ATOM     17  C   UNL     1      46.011   5.586  11.634  0.00  0.00    +0.000 A 
ATOM     18  C   UNL     1      45.482   4.552  12.415  0.00  0.00    +0.000 A 
ATOM     19  C   UNL     1      45.989   4.295  13.692  0.00  0.00    +0.000 A 
BRANCH  14  20
ATOM     20  C   UNL     1      47.596   4.787  15.585  0.00  0.00    +0.000 C 
BRANCH  20  21
ATOM     21  N   UNL     1      47.672   3.357  15.871  0.00  0.00    +0.000 NA
ATOM     22  H   UNL     1      46.777   2.926  15.648  0.00  0.00    +0.000 HD
ATOM     23  H   UNL     1      47.812   3.230  16.872  0.00  0.00    +0.000 HD
ENDBRANCH  20  21
ENDBRANCH  14  20
ENDBRANCH  13  17
ENDBRANCH   1  13
TORSDOF 6
ENDMDL
MODEL 8
REMARK VINA RESULT:    -6.186      2.474      6.451
REMARK INTER + INTRA:          -8.580
REMARK INTER:                  -7.964
REMARK INTRA:                  -0.616
REMARK UNBOUND:                -0.406
REMARK  Name = 
REMARK  6 active torsions:
REMARK  status: ('A' for Active; 'I' for Inactive)
REMARK    1  A    between atoms: N_1  and  C_2
REMARK    2  A    between atoms: C_2  and  C_3
REMARK    3  A    between atoms: C_6  and  C_7
REMARK    4  A    between atoms: C_7  and  O_8
REMARK    5  A    between atoms: O_8  and  C_9
REMARK    6  A    between atoms: C_13  and  C_14
REMARK                            x       y       z     vdW  Elec       q    Type
REMARK                         _______ _______ _______ _____ _____    ______ ____
ROOT
ATOM      1  O   UNL     1      43.806   5.869  11.272  0.00  0.00    +0.000 OA
ENDROOT
BRANCH   1   2
ATOM      2  C   UNL     1      44.128   4.731  10.584  0.00  0.00    +0.000 A 
ATOM      3  C   UNL     1      43.546   3.550  11.027  0.00  0.00    +0.000 A 
ATOM      4  N   UNL     1      43.761   2.334  10.467  0.00  0.00    +0.000 NA
ATOM      5  C   UNL     1      44.607   2.298   9.406  0.00  0.00    +0.000 A 
ATOM      6  C   UNL     1      45.239   3.413   8.880  0.00  0.00    +0.000 A 
ATOM      7  C   UNL     1      44.989   4.650   9.489  0.00  0.00    +0.000 A 
BRANCH   6   8
ATOM      8  C   UNL     1      46.165   3.369   7.722  0.00  0.00    +0.000 C 
ATOM      9  N   UNL     1      46.723   2.174   7.360  0.00  0.00    +0.000 N 
ATOM     10  O   UNL     1      46.434   4.385   7.089  0.00  0.00    +0.000 OA
ATOM     11  H   UNL     1      46.578   1.286   7.811  0.00  0.00    +0.000 HD
ATOM     12  H   UNL     1      47.355   2.197   6.568  0.00  0.00    +0.000 HD
ENDBRANCH   6   8
ENDBRANCH   1   2
BRANCH   1  13
ATOM     13  C   UNL     1      44.187   5.892  12.647  0.00  0.00    +0.000 C 
BRANCH  13  17
ATOM     14  C   UNL     1      48.041   7.840  12.949  0.00  0.00    +0.000 A 
ATOM     15  C   UNL     1      47.935   6.445  13.043  0.00  0.00    +0.000 A 
ATOM     16  C   UNL     1      46.690   5.816  12.968  0.00  0.00    +0.000 A 
ATOM     17  C   UNL     1      45.523   6.571  12.799  0.00  0.00    +0.000 A 
ATOM     18  C   UNL     1      45.621   7.967  12.751  0.00  0.00    +0.000 A 
ATOM     19  C   UNL     1      46.868   8.594  12.818  0.00  0.00    +0.000 A 
BRANCH  14  20
ATOM     20  C   UNL     1      49.390   8.511  13.019  0.00  0.00    +0.000 C 
BRANCH  20  21
ATOM     21  N   UNL     1      50.484   7.551  12.906  0.00  0.00    +0.000 NA
ATOM     22  H   UNL     1      51.102   7.657  13.709  0.00  0.00    +0.000 HD
ATOM     23  H   UNL     1      51.038   7.781  12.083  0.00  0.00    +0.000 HD
ENDBRANCH  20  21
ENDBRANCH  14  20
ENDBRANCH  13  17
ENDBRANCH   1  13
TORSDOF 6
ENDMDL
MODEL 9
REMARK VINA RESULT:    -6.066      2.888      7.953
REMARK INTER + INTRA:          -8.422
REMARK INTER:                  -8.106
REMARK INTRA:                  -0.316
REMARK UNBOUND:                -0.406
REMARK  Name = 
REMARK  6 active torsions:
REMARK  status: ('A' for Active; 'I' for Inactive)
REMARK    1  A    between atoms: N_1  and  C_2
REMARK    2  A    between atoms: C_2  and  C_3
REMARK    3  A    between atoms: C_6  and  C_7
REMARK    4  A    between atoms: C_7  and  O_8
REMARK    5  A    between atoms: O_8  and  C_9
REMARK    6  A    between atoms: C_13  and  C_14
REMARK                            x       y       z     vdW  Elec       q    Type
REMARK                         _______ _______ _______ _____ _____    ______ ____
ROOT
ATOM      1  O   UNL     1      45.709   4.065  14.013  0.00  0.00    +0.000 OA
ENDROOT
BRANCH   1   2
ATOM      2  C   UNL     1      44.989   4.252  12.865  0.00  0.00    +0.000 A 
ATOM      3  C   UNL     1      43.985   5.211  12.909  0.00  0.00    +0.000 A 
ATOM      4  N   UNL     1      43.174   5.519  11.867  0.00  0.00    +0.000 NA
ATOM      5  C   UNL     1      43.376   4.826  10.718  0.00  0.00    +0.000 A 
ATOM      6  C   UNL     1      44.349   3.851  10.561  0.00  0.00    +0.000 A 
ATOM      7  C   UNL     1      45.165   3.565  11.664  0.00  0.00    +0.000 A 
BRANCH   6   8
ATOM      8  C   UNL     1      44.565   3.094   9.304  0.00  0.00    +0.000 C 
ATOM      9  N   UNL     1      44.347   3.716   8.106  0.00  0.00    +0.000 N 
ATOM     10  O   UNL     1      44.936   1.926   9.327  0.00  0.00    +0.000 OA
ATOM     11  H   UNL     1      44.037   4.664   7.973  0.00  0.00    +0.000 HD
ATOM     12  H   UNL     1      44.501   3.155   7.277  0.00  0.00    +0.000 HD
ENDBRANCH   6   8
ENDBRANCH   1   2
BRANCH   1  13
ATOM     13  C   UNL     1      46.909   4.830  14.126  0.00  0.00    +0.000 C 
BRANCH  13  17
ATOM     14  C   UNL     1      48.591   4.458  18.097  0.00  0.00    +0.000 A 
ATOM     15  C   UNL     1      47.714   3.485  17.597  0.00  0.00    +0.000 A 
ATOM     16  C   UNL     1      47.153   3.613  16.325  0.00  0.00    +0.000 A 
ATOM     17  C   UNL     1      47.457   4.722  15.525  0.00  0.00    +0.000 A 
ATOM     18  C   UNL     1      48.294   5.719  16.039  0.00  0.00    +0.000 A 
ATOM     19  C   UNL     1      48.862   5.584  17.309  0.00  0.00    +0.000 A 
BRANCH  14  20
ATOM     20  C   UNL     1      49.203   4.306  19.467  0.00  0.00    +0.000 C 
BRANCH  20  21
ATOM     21  N   UNL     1      48.327   3.575  20.378  0.00  0.00    +0.000 NA
ATOM     22  H   UNL     1      48.428   2.576  20.204  0.00  0.00    +0.000 HD
ATOM     23  H   UNL     1      47.360   3.810  20.163  0.00  0.00    +0.000 HD
ENDBRANCH  20  21
ENDBRANCH  14  20
ENDBRANCH  13  17
ENDBRANCH   1  13
TORSDOF 6
ENDMDL
