MODEL 1
REMARK VINA RESULT:    -8.207      0.000      0.000
REMARK INTER + INTRA:         -11.121
REMARK INTER:                 -10.606
REMARK INTRA:                  -0.515
REMARK UNBOUND:                -0.515
REMARK  Name = 
REMARK  7 active torsions:
REMARK  status: ('A' for Active; 'I' for Inactive)
REMARK    1  A    between atoms: C_1  and  C_2
REMARK    2  A    between atoms: C_2  and  N_3
REMARK    3  A    between atoms: C_2  and  C_17
REMARK    4  A    between atoms: C_4  and  C_6
REMARK    5  A    between atoms: N_12  and  C_13
REMARK    6  A    between atoms: C_20  and  C_21
REMARK    7  A    between atoms: C_21  and  N_22
REMARK                            x       y       z     vdW  Elec       q    Type
REMARK                         _______ _______ _______ _____ _____    ______ ____
ROOT
ATOM      1  C   UNL     1      47.991   7.780  13.794  0.00  0.00    +0.000 C 
ATOM      2  C   UNL     1      47.964   6.300  14.184  0.00  0.00    +0.000 C 
ENDROOT
BRANCH   2   3
ATOM      3  C   UNL     1      46.839   5.557  13.516  0.00  0.00    +0.000 A 
ATOM      4  C   UNL     1      46.794   4.179  13.496  0.00  0.00    +0.000 A 
ATOM      5  N   UNL     1      45.812   3.463  12.914  0.00  0.00    +0.000 NA
ATOM      6  C   UNL     1      44.811   4.157  12.337  0.00  0.00    +0.000 A 
ATOM      7  N   UNL     1      44.738   5.508  12.327  0.00  0.00    +0.000 NA
ATOM      8  C   UNL     1      45.760   6.171  12.909  0.00  0.00    +0.000 A 
BRANCH   6   9
ATOM      9  C   UNL     1      43.688   3.378  11.662  0.00  0.00    +0.000 C 
BRANCH   9  10
ATOM     10  N   UNL     1      44.206   2.283  10.829  0.00  0.00    +0.000 N 
ATOM     11  C   UNL     1      44.887   2.720   9.683  0.00  0.00    +0.000 A 
ATOM     12  C   UNL     1      45.430   1.759   8.832  0.00  0.00    +0.000 A 
ATOM     13  C   UNL     1      46.121   2.160   7.689  0.00  0.00    +0.000 A 
ATOM     14  C   UNL     1      46.259   3.514   7.422  0.00  0.00    +0.000 A 
ATOM     15  C   UNL     1      45.706   4.406   8.322  0.00  0.00    +0.000 A 
ATOM     16  N   UNL     1      45.035   4.038   9.437  0.00  0.00    +0.000 NA
ATOM     17  H   UNL     1      43.461   1.646  10.563  0.00  0.00    +0.000 HD
ENDBRANCH   9  10
ENDBRANCH   6   9
ENDBRANCH   2   3
BRANCH   2  18
ATOM     18  N   UNL     1      47.859   6.156  15.620  0.00  0.00    +0.000 N 
ATOM     19  C   UNL     1      48.945   6.079  16.455  0.00  0.00    +0.000 C 
ATOM     20  O   UNL     1      50.094   5.990  16.033  0.00  0.00    +0.000 OA
ATOM     21  H   UNL     1      46.968   6.408  16.032  0.00  0.00    +0.000 HD
BRANCH  19  22
ATOM     22  C   UNL     1      48.640   6.058  17.889  0.00  0.00    +0.000 A 
ATOM     23  C   UNL     1      48.835   4.898  18.623  0.00  0.00    +0.000 A 
ATOM     24  S   UNL     1      48.409   5.054  20.268  0.00  0.00    +0.000 S 
ATOM     25  C   UNL     1      47.993   6.693  20.063  0.00  0.00    +0.000 A 
ATOM     26  N   UNL     1      47.569   7.442  21.111  0.00  0.00    +0.000 NA
ATOM     27  C   UNL     1      47.319   8.678  20.822  0.00  0.00    +0.000 A 
ATOM     28  N   UNL     1      47.442   9.247  19.571  0.00  0.00    +0.000 N 
ATOM     29  C   UNL     1      47.126  10.645  19.360  0.00  0.00    +0.000 C 
ATOM     30  C   UNL     1      47.829   8.497  18.467  0.00  0.00    +0.000 A 
ATOM     31  O   UNL     1      47.866   8.958  17.328  0.00  0.00    +0.000 OA
ATOM     32  C   UNL     1      48.150   7.108  18.756  0.00  0.00    +0.000 A 
ENDBRANCH  19  22
ENDBRANCH   2  18
TORSDOF 5
ENDMDL
MODEL 2
REMARK VINA RESULT:    -8.009      3.678      4.632
REMARK INTER + INTRA:         -10.864
REMARK INTER:                  -9.869
REMARK INTRA:                  -0.995
REMARK UNBOUND:                -0.515
REMARK  Name = 
REMARK  7 active torsions:
REMARK  status: ('A' for Active; 'I' for Inactive)
REMARK    1  A    between atoms: C_1  and  C_2
REMARK    2  A    between atoms: C_2  and  N_3
REMARK    3  A    between atoms: C_2  and  C_17
REMARK    4  A    between atoms: C_4  and  C_6
REMARK    5  A    between atoms: N_12  and  C_13
REMARK    6  A    between atoms: C_20  and  C_21
REMARK    7  A    between atoms: C_21  and  N_22
REMARK                            x       y       z     vdW  Elec       q    Type
REMARK                         _______ _______ _______ _____ _____    ______ ____
ROOT
ATOM      1  C   UNL     1      47.232   4.369  15.190  0.00  0.00    +0.000 C 
ATOM      2  C   UNL     1      46.949   5.573  14.288  0.00  0.00    +0.000 C 
ENDROOT
BRANCH   2   3
ATOM      3  C   UNL     1      46.243   5.178  13.020  0.00  0.00    +0.000 A 
ATOM      4  C   UNL     1      45.553   3.988  12.918  0.00  0.00    +0.000 A 
ATOM      5  N   UNL     1      44.902   3.584  11.809  0.00  0.00    +0.000 NA
ATOM      6  C   UNL     1      44.925   4.419  10.750  0.00  0.00    +0.000 A 
ATOM      7  N   UNL     1      45.542   5.623  10.753  0.00  0.00    +0.000 NA
ATOM      8  C   UNL     1      46.193   5.964  11.885  0.00  0.00    +0.000 A 
BRANCH   6   9
ATOM      9  C   UNL     1      44.206   3.989   9.477  0.00  0.00    +0.000 C 
BRANCH   9  10
ATOM     10  N   UNL     1      44.973   4.336   8.271  0.00  0.00    +0.000 N 
ATOM     11  C   UNL     1      45.772   3.288   7.790  0.00  0.00    +0.000 A 
ATOM     12  C   UNL     1      46.529   3.511   6.641  0.00  0.00    +0.000 A 
ATOM     13  C   UNL     1      47.328   2.487   6.131  0.00  0.00    +0.000 A 
ATOM     14  C   UNL     1      47.349   1.261   6.778  0.00  0.00    +0.000 A 
ATOM     15  C   UNL     1      46.559   1.112   7.903  0.00  0.00    +0.000 A 
ATOM     16  N   UNL     1      45.777   2.091   8.412  0.00  0.00    +0.000 NA
ATOM     17  H   UNL     1      45.546   5.159   8.430  0.00  0.00    +0.000 HD
ENDBRANCH   9  10
ENDBRANCH   6   9
ENDBRANCH   2   3
BRANCH   2  18
ATOM     18  N   UNL     1      48.179   6.265  13.966  0.00  0.00    +0.000 N 
ATOM     19  C   UNL     1      48.323   7.627  14.040  0.00  0.00    +0.000 C 
ATOM     20  O   UNL     1      47.377   8.378  14.254  0.00  0.00    +0.000 OA
ATOM     21  H   UNL     1      49.023   5.703  13.968  0.00  0.00    +0.000 HD
BRANCH  19  22
ATOM     22  C   UNL     1      49.677   8.134  13.792  0.00  0.00    +0.000 A 
ATOM     23  C   UNL     1      49.901   9.046  12.772  0.00  0.00    +0.000 A 
ATOM     24  S   UNL     1      51.537   9.507  12.620  0.00  0.00    +0.000 S 
ATOM     25  C   UNL     1      51.992   8.537  13.943  0.00  0.00    +0.000 A 
ATOM     26  N   UNL     1      53.279   8.498  14.371  0.00  0.00    +0.000 NA
ATOM     27  C   UNL     1      53.480   7.748  15.405  0.00  0.00    +0.000 A 
ATOM     28  N   UNL     1      52.513   7.013  16.060  0.00  0.00    +0.000 N 
ATOM     29  C   UNL     1      52.853   6.198  17.208  0.00  0.00    +0.000 C 
ATOM     30  C   UNL     1      51.194   6.994  15.620  0.00  0.00    +0.000 A 
ATOM     31  O   UNL     1      50.331   6.285  16.133  0.00  0.00    +0.000 OA
ATOM     32  C   UNL     1      50.920   7.851  14.476  0.00  0.00    +0.000 A 
ENDBRANCH  19  22
ENDBRANCH   2  18
TORSDOF 5
ENDMDL
MODEL 3
REMARK VINA RESULT:    -7.908      3.136      4.296
REMARK INTER + INTRA:         -10.735
REMARK INTER:                  -9.971
REMARK INTRA:                  -0.763
REMARK UNBOUND:                -0.515
REMARK  Name = 
REMARK  7 active torsions:
REMARK  status: ('A' for Active; 'I' for Inactive)
REMARK    1  A    between atoms: C_1  and  C_2
REMARK    2  A    between atoms: C_2  and  N_3
REMARK    3  A    between atoms: C_2  and  C_17
REMARK    4  A    between atoms: C_4  and  C_6
REMARK    5  A    between atoms: N_12  and  C_13
REMARK    6  A    between atoms: C_20  and  C_21
REMARK    7  A    between atoms: C_21  and  N_22
REMARK                            x       y       z     vdW  Elec       q    Type
REMARK                         _______ _______ _______ _____ _____    ______ ____
ROOT
ATOM      1  C   UNL     1      47.525   3.650  15.414  0.00  0.00    +0.000 C 
ATOM      2  C   UNL     1      46.896   4.920  14.836  0.00  0.00    +0.000 C 
ENDROOT
BRANCH   2   3
ATOM      3  C   UNL     1      46.169   4.657  13.546  0.00  0.00    +0.000 A 
ATOM      4  C   UNL     1      45.734   5.687  12.739  0.00  0.00    +0.000 A 
ATOM      5  N   UNL     1      45.079   5.511  11.574  0.00  0.00    +0.000 NA
ATOM      6  C   UNL     1      44.862   4.238  11.184  0.00  0.00    +0.000 A 
ATOM      7  N   UNL     1      45.275   3.155  11.881  0.00  0.00    +0.000 NA
ATOM      8  C   UNL     1      45.908   3.394  13.049  0.00  0.00    +0.000 A 
BRANCH   6   9
ATOM      9  C   UNL     1      44.117   4.003   9.875  0.00  0.00    +0.000 C 
BRANCH   9  10
ATOM     10  N   UNL     1      44.899   4.450   8.713  0.00  0.00    +0.000 N 
ATOM     11  C   UNL     1      45.665   3.432   8.124  0.00  0.00    +0.000 A 
ATOM     12  C   UNL     1      46.432   3.749   7.004  0.00  0.00    +0.000 A 
ATOM     13  C   UNL     1      47.198   2.759   6.390  0.00  0.00    +0.000 A 
ATOM     14  C   UNL     1      47.177   1.471   6.904  0.00  0.00    +0.000 A 
ATOM     15  C   UNL     1      46.379   1.232   8.007  0.00  0.00    +0.000 A 
ATOM     16  N   UNL     1      45.628   2.177   8.616  0.00  0.00    +0.000 NA
ATOM     17  H   UNL     1      45.498   5.232   8.957  0.00  0.00    +0.000 HD
ENDBRANCH   9  10
ENDBRANCH   6   9
ENDBRANCH   2   3
BRANCH   2  18
ATOM     18  N   UNL     1      47.905   5.937  14.629  0.00  0.00    +0.000 N 
ATOM     19  C   UNL     1      48.666   6.466  15.641  0.00  0.00    +0.000 C 
ATOM     20  O   UNL     1      48.454   6.215  16.824  0.00  0.00    +0.000 OA
ATOM     21  H   UNL     1      48.248   6.042  13.681  0.00  0.00    +0.000 HD
BRANCH  19  22
ATOM     22  C   UNL     1      49.719   7.396  15.221  0.00  0.00    +0.000 A 
ATOM     23  C   UNL     1      51.022   7.213  15.659  0.00  0.00    +0.000 A 
ATOM     24  S   UNL     1      52.104   8.401  15.085  0.00  0.00    +0.000 S 
ATOM     25  C   UNL     1      50.875   9.172  14.195  0.00  0.00    +0.000 A 
ATOM     26  N   UNL     1      51.143  10.264  13.434  0.00  0.00    +0.000 NA
ATOM     27  C   UNL     1      50.126  10.729  12.784  0.00  0.00    +0.000 A 
ATOM     28  N   UNL     1      48.847  10.213  12.825  0.00  0.00    +0.000 N 
ATOM     29  C   UNL     1      47.779  10.822  12.059  0.00  0.00    +0.000 C 
ATOM     30  C   UNL     1      48.529   9.124  13.628  0.00  0.00    +0.000 A 
ATOM     31  O   UNL     1      47.382   8.697  13.747  0.00  0.00    +0.000 OA
ATOM     32  C   UNL     1      49.652   8.551  14.353  0.00  0.00    +0.000 A 
ENDBRANCH  19  22
ENDBRANCH   2  18
TORSDOF 5
ENDMDL
MODEL 4
REMARK VINA RESULT:    -6.969      5.029      8.726
REMARK INTER + INTRA:          -9.521
REMARK INTER:                  -9.540
REMARK INTRA:                   0.019
REMARK UNBOUND:                -0.515
REMARK  Name = 
REMARK  7 active torsions:
REMARK  status: ('A' for Active; 'I' for Inactive)
REMARK    1  A    between atoms: C_1  and  C_2
REMARK    2  A    between atoms: C_2  and  N_3
REMARK    3  A    between atoms: C_2  and  C_17
REMARK    4  A    between atoms: C_4  and  C_6
REMARK    5  A    between atoms: N_12  and  C_13
REMARK    6  A    between atoms: C_20  and  C_21
REMARK    7  A    between atoms: C_21  and  N_22
REMARK                            x       y       z     vdW  Elec       q    Type
REMARK                         _______ _______ _______ _____ _____    ______ ____
ROOT
ATOM      1  C   UNL     1      45.279   9.294  12.365  0.00  0.00    +0.000 C 
ATOM      2  C   UNL     1      46.198   8.210  12.934  0.00  0.00    +0.000 C 
ENDROOT
BRANCH   2   3
ATOM      3  C   UNL     1      47.604   8.328  12.413  0.00  0.00    +0.000 A 
ATOM      4  C   UNL     1      48.168   9.554  12.125  0.00  0.00    +0.000 A 
ATOM      5  N   UNL     1      49.421   9.718  11.657  0.00  0.00    +0.000 NA
ATOM      6  C   UNL     1      50.159   8.603  11.484  0.00  0.00    +0.000 A 
ATOM      7  N   UNL     1      49.717   7.356  11.767  0.00  0.00    +0.000 NA
ATOM      8  C   UNL     1      48.448   7.252  12.214  0.00  0.00    +0.000 A 
BRANCH   6   9
ATOM      9  C   UNL     1      51.578   8.753  10.949  0.00  0.00    +0.000 C 
BRANCH   9  10
ATOM     10  N   UNL     1      52.347   7.507  11.079  0.00  0.00    +0.000 N 
ATOM     11  C   UNL     1      52.758   6.968   9.851  0.00  0.00    +0.000 A 
ATOM     12  C   UNL     1      53.507   5.792   9.865  0.00  0.00    +0.000 A 
ATOM     13  C   UNL     1      53.939   5.234   8.662  0.00  0.00    +0.000 A 
ATOM     14  C   UNL     1      53.618   5.866   7.470  0.00  0.00    +0.000 A 
ATOM     15  C   UNL     1      52.886   7.037   7.539  0.00  0.00    +0.000 A 
ATOM     16  N   UNL     1      52.459   7.595   8.694  0.00  0.00    +0.000 NA
ATOM     17  H   UNL     1      51.823   6.811  11.602  0.00  0.00    +0.000 HD
ENDBRANCH   9  10
ENDBRANCH   6   9
ENDBRANCH   2   3
BRANCH   2  18
ATOM     18  N   UNL     1      45.675   6.894  12.635  0.00  0.00    +0.000 N 
ATOM     19  C   UNL     1      44.784   6.646  11.622  0.00  0.00    +0.000 C 
ATOM     20  O   UNL     1      44.255   7.545  10.976  0.00  0.00    +0.000 OA
ATOM     21  H   UNL     1      46.204   6.109  12.997  0.00  0.00    +0.000 HD
BRANCH  19  22
ATOM     22  C   UNL     1      44.463   5.232  11.395  0.00  0.00    +0.000 A 
ATOM     23  C   UNL     1      43.659   4.550  12.296  0.00  0.00    +0.000 A 
ATOM     24  S   UNL     1      43.410   2.914  11.880  0.00  0.00    +0.000 S 
ATOM     25  C   UNL     1      44.330   3.077  10.457  0.00  0.00    +0.000 A 
ATOM     26  N   UNL     1      44.492   2.032   9.606  0.00  0.00    +0.000 NA
ATOM     27  C   UNL     1      45.185   2.302   8.548  0.00  0.00    +0.000 A 
ATOM     28  N   UNL     1      45.750   3.527   8.253  0.00  0.00    +0.000 N 
ATOM     29  C   UNL     1      46.515   3.715   7.038  0.00  0.00    +0.000 C 
ATOM     30  C   UNL     1      45.641   4.605   9.124  0.00  0.00    +0.000 A 
ATOM     31  O   UNL     1      46.204   5.680   8.926  0.00  0.00    +0.000 OA
ATOM     32  C   UNL     1      44.843   4.351  10.313  0.00  0.00    +0.000 A 
ENDBRANCH  19  22
ENDBRANCH   2  18
TORSDOF 5
ENDMDL
MODEL 5
REMARK VINA RESULT:    -5.668      5.237      9.335
REMARK INTER + INTRA:          -7.839
REMARK INTER:                  -7.948
REMARK INTRA:                   0.109
REMARK UNBOUND:                -0.515
REMARK  Name = 
REMARK  7 active torsions:
REMARK  status: ('A' for Active; 'I' for Inactive)
REMARK    1  A    between atoms: C_1  and  C_2
REMARK    2  A    between atoms: C_2  and  N_3
REMARK    3  A    between atoms: C_2  and  C_17
REMARK    4  A    between atoms: C_4  and  C_6
REMARK    5  A    between atoms: N_12  and  C_13
REMARK    6  A    between atoms: C_20  and  C_21
REMARK    7  A    between atoms: C_21  and  N_22
REMARK                            x       y       z     vdW  Elec       q    Type
REMARK                         _______ _______ _______ _____ _____    ______ ____
ROOT
ATOM      1  C   UNL     1      45.212   9.348  11.694  0.00  0.00    +0.000 C 
ATOM      2  C   UNL     1      46.062   8.377  12.517  0.00  0.00    +0.000 C 
ENDROOT
BRANCH   2   3
ATOM      3  C   UNL     1      47.531   8.525  12.231  0.00  0.00    +0.000 A 
ATOM      4  C   UNL     1      48.232   9.649  12.614  0.00  0.00    +0.000 A 
ATOM      5  N   UNL     1      49.547   9.835  12.385  0.00  0.00    +0.000 NA
ATOM      6  C   UNL     1      50.203   8.839  11.755  0.00  0.00    +0.000 A 
ATOM      7  N   UNL     1      49.622   7.682  11.366  0.00  0.00    +0.000 NA
ATOM      8  C   UNL     1      48.298   7.561  11.606  0.00  0.00    +0.000 A 
BRANCH   6   9
ATOM      9  C   UNL     1      51.690   9.021  11.473  0.00  0.00    +0.000 C 
BRANCH   9  10
ATOM     10  N   UNL     1      52.495   8.924  12.699  0.00  0.00    +0.000 N 
ATOM     11  C   UNL     1      53.590   8.053  12.587  0.00  0.00    +0.000 A 
ATOM     12  C   UNL     1      54.427   7.901  13.691  0.00  0.00    +0.000 A 
ATOM     13  C   UNL     1      55.529   7.051  13.610  0.00  0.00    +0.000 A 
ATOM     14  C   UNL     1      55.775   6.374  12.425  0.00  0.00    +0.000 A 
ATOM     15  C   UNL     1      54.908   6.589  11.369  0.00  0.00    +0.000 A 
ATOM     16  N   UNL     1      53.836   7.410  11.427  0.00  0.00    +0.000 NA
ATOM     17  H   UNL     1      51.920   8.652  13.491  0.00  0.00    +0.000 HD
ENDBRANCH   9  10
ENDBRANCH   6   9
ENDBRANCH   2   3
BRANCH   2  18
ATOM     18  N   UNL     1      45.652   7.011  12.271  0.00  0.00    +0.000 N 
ATOM     19  C   UNL     1      44.469   6.673  11.664  0.00  0.00    +0.000 C 
ATOM     20  O   UNL     1      43.603   7.502  11.404  0.00  0.00    +0.000 OA
ATOM     21  H   UNL     1      46.387   6.313  12.288  0.00  0.00    +0.000 HD
BRANCH  19  22
ATOM     22  C   UNL     1      44.284   5.243  11.392  0.00  0.00    +0.000 A 
ATOM     23  C   UNL     1      43.485   4.476  12.226  0.00  0.00    +0.000 A 
ATOM     24  S   UNL     1      43.403   2.835  11.766  0.00  0.00    +0.000 S 
ATOM     25  C   UNL     1      44.397   3.106  10.410  0.00  0.00    +0.000 A 
ATOM     26  N   UNL     1      44.701   2.098   9.555  0.00  0.00    +0.000 NA
ATOM     27  C   UNL     1      45.436   2.449   8.550  0.00  0.00    +0.000 A 
ATOM     28  N   UNL     1      45.913   3.722   8.314  0.00  0.00    +0.000 N 
ATOM     29  C   UNL     1      46.737   4.002   7.157  0.00  0.00    +0.000 C 
ATOM     30  C   UNL     1      45.657   4.767   9.195  0.00  0.00    +0.000 A 
ATOM     31  O   UNL     1      46.138   5.890   9.053  0.00  0.00    +0.000 OA
ATOM     32  C   UNL     1      44.807   4.421  10.323  0.00  0.00    +0.000 A 
ENDBRANCH  19  22
ENDBRANCH   2  18
TORSDOF 5
ENDMDL
MODEL 6
REMARK VINA RESULT:    -5.521      5.698      8.079
REMARK INTER + INTRA:          -7.650
REMARK INTER:                  -6.547
REMARK INTRA:                  -1.103
REMARK UNBOUND:                -0.515
REMARK  Name = 
REMARK  7 active torsions:
REMARK  status: ('A' for Active; 'I' for Inactive)
REMARK    1  A    between atoms: C_1  and  C_2
REMARK    2  A    between atoms: C_2  and  N_3
REMARK    3  A    between atoms: C_2  and  C_17
REMARK    4  A    between atoms: C_4  and  C_6
REMARK    5  A    between atoms: N_12  and  C_13
REMARK    6  A    between atoms: C_20  and  C_21
REMARK    7  A    between atoms: C_21  and  N_22
REMARK                            x       y       z     vdW  Elec       q    Type
REMARK                         _______ _______ _______ _____ _____    ______ ____
ROOT
ATOM      1  C   UNL     1      48.083  10.009  11.448  0.00  0.00    +0.000 C 
ATOM      2  C   UNL     1      49.187   9.348  12.278  0.00  0.00    +0.000 C 
ENDROOT
BRANCH   2   3
ATOM      3  C   UNL     1      50.480   9.237  11.519  0.00  0.00    +0.000 A 
ATOM      4  C   UNL     1      50.961  10.280  10.755  0.00  0.00    +0.000 A 
ATOM      5  N   UNL     1      52.112  10.236  10.055  0.00  0.00    +0.000 NA
ATOM      6  C   UNL     1      52.831   9.098  10.135  0.00  0.00    +0.000 A 
ATOM      7  N   UNL     1      52.470   8.028  10.880  0.00  0.00    +0.000 NA
ATOM      8  C   UNL     1      51.298   8.123  11.543  0.00  0.00    +0.000 A 
BRANCH   6   9
ATOM      9  C   UNL     1      54.134   9.013   9.349  0.00  0.00    +0.000 C 
BRANCH   9  10
ATOM     10  N   UNL     1      54.618   7.629   9.240  0.00  0.00    +0.000 N 
ATOM     11  C   UNL     1      54.600   7.127   7.930  0.00  0.00    +0.000 A 
ATOM     12  C   UNL     1      55.053   5.825   7.717  0.00  0.00    +0.000 A 
ATOM     13  C   UNL     1      55.058   5.299   6.425  0.00  0.00    +0.000 A 
ATOM     14  C   UNL     1      54.613   6.085   5.373  0.00  0.00    +0.000 A 
ATOM     15  C   UNL     1      54.194   7.371   5.663  0.00  0.00    +0.000 A 
ATOM     16  N   UNL     1      54.184   7.901   6.907  0.00  0.00    +0.000 NA
ATOM     17  H   UNL     1      54.092   7.011   9.851  0.00  0.00    +0.000 HD
ENDBRANCH   9  10
ENDBRANCH   6   9
ENDBRANCH   2   3
BRANCH   2  18
ATOM     18  N   UNL     1      48.768   8.036  12.724  0.00  0.00    +0.000 N 
ATOM     19  C   UNL     1      47.988   7.826  13.833  0.00  0.00    +0.000 C 
ATOM     20  O   UNL     1      47.697   8.727  14.612  0.00  0.00    +0.000 OA
ATOM     21  H   UNL     1      48.815   7.293  12.036  0.00  0.00    +0.000 HD
BRANCH  19  22
ATOM     22  C   UNL     1      47.567   6.438  14.056  0.00  0.00    +0.000 A 
ATOM     23  C   UNL     1      47.945   5.776  15.214  0.00  0.00    +0.000 A 
ATOM     24  S   UNL     1      47.381   4.168  15.291  0.00  0.00    +0.000 S 
ATOM     25  C   UNL     1      46.574   4.319  13.800  0.00  0.00    +0.000 A 
ATOM     26  N   UNL     1      45.852   3.290  13.288  0.00  0.00    +0.000 NA
ATOM     27  C   UNL     1      45.263   3.551  12.167  0.00  0.00    +0.000 A 
ATOM     28  N   UNL     1      45.332   4.750  11.488  0.00  0.00    +0.000 N 
ATOM     29  C   UNL     1      44.636   4.930  10.231  0.00  0.00    +0.000 C 
ATOM     30  C   UNL     1      46.099   5.809  11.961  0.00  0.00    +0.000 A 
ATOM     31  O   UNL     1      46.244   6.857  11.335  0.00  0.00    +0.000 OA
ATOM     32  C   UNL     1      46.753   5.566  13.237  0.00  0.00    +0.000 A 
ENDBRANCH  19  22
ENDBRANCH   2  18
TORSDOF 5
ENDMDL
MODEL 7
REMARK VINA RESULT:    -5.496     10.334     13.701
REMARK INTER + INTRA:          -7.617
REMARK INTER:                  -6.772
REMARK INTRA:                  -0.845
REMARK UNBOUND:                -0.515
REMARK  Name = 
REMARK  7 active torsions:
REMARK  status: ('A' for Active; 'I' for Inactive)
REMARK    1  A    between atoms: C_1  and  C_2
REMARK    2  A    between atoms: C_2  and  N_3
REMARK    3  A    between atoms: C_2  and  C_17
REMARK    4  A    between atoms: C_4  and  C_6
REMARK    5  A    between atoms: N_12  and  C_13
REMARK    6  A    between atoms: C_20  and  C_21
REMARK    7  A    between atoms: C_21  and  N_22
REMARK                            x       y       z     vdW  Elec       q    Type
REMARK                         _______ _______ _______ _____ _____    ______ ____
ROOT
ATOM      1  C   UNL     1      41.450  -4.343  14.337  0.00  0.00    +0.000 C 
ATOM      2  C   UNL     1      40.870  -2.960  14.028  0.00  0.00    +0.000 C 
ENDROOT
BRANCH   2   3
ATOM      3  C   UNL     1      40.136  -2.377  15.204  0.00  0.00    +0.000 A 
ATOM      4  C   UNL     1      38.823  -1.969  15.106  0.00  0.00    +0.000 A 
ATOM      5  N   UNL     1      38.117  -1.440  16.125  0.00  0.00    +0.000 NA
ATOM      6  C   UNL     1      38.749  -1.330  17.312  0.00  0.00    +0.000 A 
ATOM      7  N   UNL     1      40.023  -1.729  17.527  0.00  0.00    +0.000 NA
ATOM      8  C   UNL     1      40.685  -2.232  16.464  0.00  0.00    +0.000 A 
BRANCH   6   9
ATOM      9  C   UNL     1      37.982  -0.728  18.483  0.00  0.00    +0.000 C 
BRANCH   9  10
ATOM     10  N   UNL     1      38.646   0.470  19.016  0.00  0.00    +0.000 N 
ATOM     11  C   UNL     1      38.316   1.649  18.330  0.00  0.00    +0.000 A 
ATOM     12  C   UNL     1      38.883   2.846  18.766  0.00  0.00    +0.000 A 
ATOM     13  C   UNL     1      38.569   4.037  18.113  0.00  0.00    +0.000 A 
ATOM     14  C   UNL     1      37.690   4.008  17.041  0.00  0.00    +0.000 A 
ATOM     15  C   UNL     1      37.156   2.785  16.678  0.00  0.00    +0.000 A 
ATOM     16  N   UNL     1      37.447   1.620  17.299  0.00  0.00    +0.000 NA
ATOM     17  H   UNL     1      39.655   0.351  19.027  0.00  0.00    +0.000 HD
ENDBRANCH   9  10
ENDBRANCH   6   9
ENDBRANCH   2   3
BRANCH   2  18
ATOM     18  N   UNL     1      39.986  -3.025  12.884  0.00  0.00    +0.000 N 
ATOM     19  C   UNL     1      40.281  -2.466  11.667  0.00  0.00    +0.000 C 
ATOM     20  O   UNL     1      41.260  -1.748  11.492  0.00  0.00    +0.000 OA
ATOM     21  H   UNL     1      39.273  -3.745  12.910  0.00  0.00    +0.000 HD
BRANCH  19  22
ATOM     22  C   UNL     1      39.317  -2.740  10.595  0.00  0.00    +0.000 A 
ATOM     23  C   UNL     1      39.379  -3.934   9.894  0.00  0.00    +0.000 A 
ATOM     24  S   UNL     1      38.193  -4.068   8.675  0.00  0.00    +0.000 S 
ATOM     25  C   UNL     1      37.528  -2.553   9.075  0.00  0.00    +0.000 A 
ATOM     26  N   UNL     1      36.443  -2.070   8.419  0.00  0.00    +0.000 NA
ATOM     27  C   UNL     1      36.021  -0.925   8.846  0.00  0.00    +0.000 A 
ATOM     28  N   UNL     1      36.588  -0.196   9.872  0.00  0.00    +0.000 N 
ATOM     29  C   UNL     1      36.035   1.084  10.264  0.00  0.00    +0.000 C 
ATOM     30  C   UNL     1      37.727  -0.640  10.535  0.00  0.00    +0.000 A 
ATOM     31  O   UNL     1      38.300   0.027  11.394  0.00  0.00    +0.000 OA
ATOM     32  C   UNL     1      38.215  -1.941  10.104  0.00  0.00    +0.000 A 
ENDBRANCH  19  22
ENDBRANCH   2  18
TORSDOF 5
ENDMDL
MODEL 8
REMARK VINA RESULT:    -5.418     10.207     12.203
REMARK INTER + INTRA:          -7.516
REMARK INTER:                  -6.306
REMARK INTRA:                  -1.211
REMARK UNBOUND:                -0.515
REMARK  Name = 
REMARK  7 active torsions:
REMARK  status: ('A' for Active; 'I' for Inactive)
REMARK    1  A    between atoms: C_1  and  C_2
REMARK    2  A    between atoms: C_2  and  N_3
REMARK    3  A    between atoms: C_2  and  C_17
REMARK    4  A    between atoms: C_4  and  C_6
REMARK    5  A    between atoms: N_12  and  C_13
REMARK    6  A    between atoms: C_20  and  C_21
REMARK    7  A    between atoms: C_21  and  N_22
REMARK                            x       y       z     vdW  Elec       q    Type
REMARK                         _______ _______ _______ _____ _____    ______ ____
ROOT
ATOM      1  C   UNL     1      41.575  -3.824  13.182  0.00  0.00    +0.000 C 
ATOM      2  C   UNL     1      40.702  -3.968  14.432  0.00  0.00    +0.000 C 
ENDROOT
BRANCH   2   3
ATOM      3  C   UNL     1      39.788  -2.789  14.624  0.00  0.00    +0.000 A 
ATOM      4  C   UNL     1      39.935  -1.927  15.692  0.00  0.00    +0.000 A 
ATOM      5  N   UNL     1      39.147  -0.857  15.913  0.00  0.00    +0.000 NA
ATOM      6  C   UNL     1      38.171  -0.621  15.013  0.00  0.00    +0.000 A 
ATOM      7  N   UNL     1      37.960  -1.381  13.914  0.00  0.00    +0.000 NA
ATOM      8  C   UNL     1      38.768  -2.451  13.756  0.00  0.00    +0.000 A 
BRANCH   6   9
ATOM      9  C   UNL     1      37.257   0.577  15.239  0.00  0.00    +0.000 C 
BRANCH   9  10
ATOM     10  N   UNL     1      36.829   0.682  16.641  0.00  0.00    +0.000 N 
ATOM     11  C   UNL     1      37.339   1.810  17.303  0.00  0.00    +0.000 A 
ATOM     12  C   UNL     1      36.981   2.010  18.635  0.00  0.00    +0.000 A 
ATOM     13  C   UNL     1      37.464   3.125  19.320  0.00  0.00    +0.000 A 
ATOM     14  C   UNL     1      38.291   4.020  18.656  0.00  0.00    +0.000 A 
ATOM     15  C   UNL     1      38.587   3.760  17.331  0.00  0.00    +0.000 A 
ATOM     16  N   UNL     1      38.128   2.687  16.649  0.00  0.00    +0.000 NA
ATOM     17  H   UNL     1      37.070  -0.158  17.158  0.00  0.00    +0.000 HD
ENDBRANCH   9  10
ENDBRANCH   6   9
ENDBRANCH   2   3
BRANCH   2  18
ATOM     18  N   UNL     1      41.526  -4.144  15.608  0.00  0.00    +0.000 N 
ATOM     19  C   UNL     1      41.749  -5.361  16.201  0.00  0.00    +0.000 C 
ATOM     20  O   UNL     1      41.155  -6.378  15.859  0.00  0.00    +0.000 OA
ATOM     21  H   UNL     1      42.177  -3.395  15.816  0.00  0.00    +0.000 HD
BRANCH  19  22
ATOM     22  C   UNL     1      42.709  -5.357  17.311  0.00  0.00    +0.000 A 
ATOM     23  C   UNL     1      43.928  -6.004  17.177  0.00  0.00    +0.000 A 
ATOM     24  S   UNL     1      44.903  -5.911  18.573  0.00  0.00    +0.000 S 
ATOM     25  C   UNL     1      43.747  -4.963  19.388  0.00  0.00    +0.000 A 
ATOM     26  N   UNL     1      43.976  -4.508  20.645  0.00  0.00    +0.000 NA
ATOM     27  C   UNL     1      43.030  -3.772  21.132  0.00  0.00    +0.000 A 
ATOM     28  N   UNL     1      41.855  -3.449  20.484  0.00  0.00    +0.000 N 
ATOM     29  C   UNL     1      40.858  -2.621  21.130  0.00  0.00    +0.000 C 
ATOM     30  C   UNL     1      41.569  -3.937  19.214  0.00  0.00    +0.000 A 
ATOM     31  O   UNL     1      40.496  -3.733  18.649  0.00  0.00    +0.000 OA
ATOM     32  C   UNL     1      42.622  -4.743  18.618  0.00  0.00    +0.000 A 
ENDBRANCH  19  22
ENDBRANCH   2  18
TORSDOF 5
ENDMDL
MODEL 9
REMARK VINA RESULT:    -5.209     10.296     12.861
REMARK INTER + INTRA:          -7.246
REMARK INTER:                  -6.227
REMARK INTRA:                  -1.019
REMARK UNBOUND:                -0.515
REMARK  Name = 
REMARK  7 active torsions:
REMARK  status: ('A' for Active; 'I' for Inactive)
REMARK    1  A    between atoms: C_1  and  C_2
REMARK    2  A    between atoms: C_2  and  N_3
REMARK    3  A    between atoms: C_2  and  C_17
REMARK    4  A    between atoms: C_4  and  C_6
REMARK    5  A    between atoms: N_12  and  C_13
REMARK    6  A    between atoms: C_20  and  C_21
REMARK    7  A    between atoms: C_21  and  N_22
REMARK                            x       y       z     vdW  Elec       q    Type
REMARK                         _______ _______ _______ _____ _____    ______ ____
ROOT
ATOM      1  C   UNL     1      41.631  -4.187  13.537  0.00  0.00    +0.000 C 
ATOM      2  C   UNL     1      40.812  -4.261  14.828  0.00  0.00    +0.000 C 
ENDROOT
BRANCH   2   3
ATOM      3  C   UNL     1      39.904  -3.074  14.992  0.00  0.00    +0.000 A 
ATOM      4  C   UNL     1      40.297  -1.955  15.697  0.00  0.00    +0.000 A 
ATOM      5  N   UNL     1      39.526  -0.864  15.876  0.00  0.00    +0.000 NA
ATOM      6  C   UNL     1      38.303  -0.882  15.307  0.00  0.00    +0.000 A 
ATOM      7  N   UNL     1      37.831  -1.911  14.568  0.00  0.00    +0.000 NA
ATOM      8  C   UNL     1      38.640  -2.984  14.440  0.00  0.00    +0.000 A 
BRANCH   6   9
ATOM      9  C   UNL     1      37.403   0.333  15.497  0.00  0.00    +0.000 C 
BRANCH   9  10
ATOM     10  N   UNL     1      37.035   0.527  16.907  0.00  0.00    +0.000 N 
ATOM     11  C   UNL     1      37.504   1.732  17.451  0.00  0.00    +0.000 A 
ATOM     12  C   UNL     1      37.198   2.019  18.781  0.00  0.00    +0.000 A 
ATOM     13  C   UNL     1      37.640   3.212  19.349  0.00  0.00    +0.000 A 
ATOM     14  C   UNL     1      38.377   4.097  18.576  0.00  0.00    +0.000 A 
ATOM     15  C   UNL     1      38.627   3.749  17.262  0.00  0.00    +0.000 A 
ATOM     16  N   UNL     1      38.205   2.599  16.691  0.00  0.00    +0.000 NA
ATOM     17  H   UNL     1      37.354  -0.253  17.475  0.00  0.00    +0.000 HD
ENDBRANCH   9  10
ENDBRANCH   6   9
ENDBRANCH   2   3
BRANCH   2  18
ATOM     18  N   UNL     1      41.686  -4.370  15.976  0.00  0.00    +0.000 N 
ATOM     19  C   UNL     1      41.357  -5.062  17.115  0.00  0.00    +0.000 C 
ATOM     20  O   UNL     1      40.238  -5.529  17.300  0.00  0.00    +0.000 OA
ATOM     21  H   UNL     1      42.667  -4.175  15.813  0.00  0.00    +0.000 HD
BRANCH  19  22
ATOM     22  C   UNL     1      42.418  -5.162  18.122  0.00  0.00    +0.000 A 
ATOM     23  C   UNL     1      42.287  -4.505  19.336  0.00  0.00    +0.000 A 
ATOM     24  S   UNL     1      43.625  -4.719  20.373  0.00  0.00    +0.000 S 
ATOM     25  C   UNL     1      44.403  -5.737  19.251  0.00  0.00    +0.000 A 
ATOM     26  N   UNL     1      45.604  -6.301  19.535  0.00  0.00    +0.000 NA
ATOM     27  C   UNL     1      46.065  -7.078  18.611  0.00  0.00    +0.000 A 
ATOM     28  N   UNL     1      45.445  -7.345  17.407  0.00  0.00    +0.000 N 
ATOM     29  C   UNL     1      46.059  -8.229  16.437  0.00  0.00    +0.000 C 
ATOM     30  C   UNL     1      44.237  -6.748  17.065  0.00  0.00    +0.000 A 
ATOM     31  O   UNL     1      43.705  -6.902  15.968  0.00  0.00    +0.000 OA
ATOM     32  C   UNL     1      43.668  -5.890  18.093  0.00  0.00    +0.000 A 
ENDBRANCH  19  22
ENDBRANCH   2  18
TORSDOF 5
ENDMDL
