MODEL 1
REMARK VINA RESULT:    -7.943      0.000      0.000
REMARK INTER + INTRA:         -11.380
REMARK INTER:                 -10.729
REMARK INTRA:                  -0.652
REMARK UNBOUND:                -0.652
REMARK  Name = 
REMARK  6 active torsions:
REMARK  status: ('A' for Active; 'I' for Inactive)
REMARK    1  A    between atoms: C_2  and  C_3
REMARK    2  A    between atoms: C_6  and  N_7
REMARK    3  A    between atoms: N_7  and  C_8
REMARK    4  A    between atoms: C_8  and  C_9
REMARK    5  A    between atoms: C_12  and  O_13
REMARK    6  A    between atoms: O_13  and  C_14
REMARK                            x       y       z     vdW  Elec       q    Type
REMARK                         _______ _______ _______ _____ _____    ______ ____
ROOT
ATOM      1  C   UNL     1      43.855   4.893  11.270  0.00  0.00    +0.000 C 
ATOM      2  C   UNL     1      42.543   5.197  12.001  0.00  0.00    +0.000 C 
ATOM      3  C   UNL     1      43.178   6.248  11.153  0.00  0.00    +0.000 C 
ENDROOT
BRANCH   1   4
ATOM      4  C   UNL     1      45.110   4.835  12.128  0.00  0.00    +0.000 A 
ATOM      5  C   UNL     1      45.744   6.010  12.560  0.00  0.00    +0.000 A 
ATOM      6  C   UNL     1      46.742   5.969  13.537  0.00  0.00    +0.000 A 
ATOM      7  C   UNL     1      47.134   4.752  14.095  0.00  0.00    +0.000 A 
ATOM      8  C   UNL     1      46.634   3.569  13.561  0.00  0.00    +0.000 A 
ATOM      9  C   UNL     1      45.628   3.614  12.592  0.00  0.00    +0.000 A 
BRANCH   7  10
ATOM     10  O   UNL     1      48.036   4.835  15.110  0.00  0.00    +0.000 OA
BRANCH  10  11
ATOM     11  C   UNL     1      47.822   4.039  16.273  0.00  0.00    +0.000 C 
ATOM     12  F   UNL     1      48.046   2.719  16.105  0.00  0.00    +0.000 F 
ATOM     13  F   UNL     1      48.628   4.488  17.260  0.00  0.00    +0.000 F 
ATOM     14  F   UNL     1      46.540   4.191  16.676  0.00  0.00    +0.000 F 
ENDBRANCH  10  11
ENDBRANCH   7  10
ENDBRANCH   1   4
BRANCH   1  15
ATOM     15  N   UNL     1      43.778   3.848  10.257  0.00  0.00    +0.000 N 
ATOM     16  H   UNL     1      42.868   3.489   9.986  0.00  0.00    +0.000 HD
BRANCH  15  20
ATOM     17  C   UNL     1      46.579   2.610   7.522  0.00  0.00    +0.000 A 
ATOM     18  C   UNL     1      45.922   1.741   8.372  0.00  0.00    +0.000 A 
ATOM     19  N   UNL     1      44.997   2.156   9.274  0.00  0.00    +0.000 NA
ATOM     20  C   UNL     1      44.723   3.483   9.312  0.00  0.00    +0.000 A 
ATOM     21  C   UNL     1      45.398   4.351   8.456  0.00  0.00    +0.000 A 
ATOM     22  N   UNL     1      46.331   3.943   7.542  0.00  0.00    +0.000 NA
BRANCH  17  24
ATOM     23  N   UNL     1      48.306   1.667   5.827  0.00  0.00    +0.000 NA
ATOM     24  C   UNL     1      47.552   2.119   6.583  0.00  0.00    +0.000 C 
ENDBRANCH  17  24
ENDBRANCH  15  20
ENDBRANCH   1  15
TORSDOF 6
ENDMDL
MODEL 2
REMARK VINA RESULT:    -7.526      1.952      2.612
REMARK INTER + INTRA:         -10.818
REMARK INTER:                 -10.572
REMARK INTRA:                  -0.246
REMARK UNBOUND:                -0.652
REMARK  Name = 
REMARK  6 active torsions:
REMARK  status: ('A' for Active; 'I' for Inactive)
REMARK    1  A    between atoms: C_2  and  C_3
REMARK    2  A    between atoms: C_6  and  N_7
REMARK    3  A    between atoms: N_7  and  C_8
REMARK    4  A    between atoms: C_8  and  C_9
REMARK    5  A    between atoms: C_12  and  O_13
REMARK    6  A    between atoms: O_13  and  C_14
REMARK                            x       y       z     vdW  Elec       q    Type
REMARK                         _______ _______ _______ _____ _____    ______ ____
ROOT
ATOM      1  C   UNL     1      43.849   5.017  11.296  0.00  0.00    +0.000 C 
ATOM      2  C   UNL     1      43.128   3.913  12.077  0.00  0.00    +0.000 C 
ATOM      3  C   UNL     1      42.568   5.296  12.063  0.00  0.00    +0.000 C 
ENDROOT
BRANCH   1   4
ATOM      4  C   UNL     1      45.136   5.550  11.910  0.00  0.00    +0.000 A 
ATOM      5  C   UNL     1      45.751   4.888  12.984  0.00  0.00    +0.000 A 
ATOM      6  C   UNL     1      47.044   5.227  13.391  0.00  0.00    +0.000 A 
ATOM      7  C   UNL     1      47.745   6.241  12.738  0.00  0.00    +0.000 A 
ATOM      8  C   UNL     1      47.090   7.013  11.784  0.00  0.00    +0.000 A 
ATOM      9  C   UNL     1      45.801   6.664  11.373  0.00  0.00    +0.000 A 
BRANCH   7  10
ATOM     10  O   UNL     1      49.032   6.419  13.143  0.00  0.00    +0.000 OA
BRANCH  10  11
ATOM     11  C   UNL     1      49.274   7.218  14.298  0.00  0.00    +0.000 C 
ATOM     12  F   UNL     1      50.424   7.923  14.268  0.00  0.00    +0.000 F 
ATOM     13  F   UNL     1      48.246   8.081  14.452  0.00  0.00    +0.000 F 
ATOM     14  F   UNL     1      49.313   6.413  15.384  0.00  0.00    +0.000 F 
ENDBRANCH  10  11
ENDBRANCH   7  10
ENDBRANCH   1   4
BRANCH   1  15
ATOM     15  N   UNL     1      43.916   4.821   9.854  0.00  0.00    +0.000 N 
ATOM     16  H   UNL     1      43.455   5.489   9.244  0.00  0.00    +0.000 HD
BRANCH  15  20
ATOM     17  C   UNL     1      46.612   2.711   7.588  0.00  0.00    +0.000 A 
ATOM     18  C   UNL     1      46.481   4.084   7.516  0.00  0.00    +0.000 A 
ATOM     19  N   UNL     1      45.588   4.777   8.268  0.00  0.00    +0.000 NA
ATOM     20  C   UNL     1      44.813   4.063   9.121  0.00  0.00    +0.000 A 
ATOM     21  C   UNL     1      44.948   2.677   9.178  0.00  0.00    +0.000 A 
ATOM     22  N   UNL     1      45.846   1.969   8.427  0.00  0.00    +0.000 NA
BRANCH  17  24
ATOM     23  N   UNL     1      48.348   1.519   6.069  0.00  0.00    +0.000 NA
ATOM     24  C   UNL     1      47.575   2.024   6.770  0.00  0.00    +0.000 C 
ENDBRANCH  17  24
ENDBRANCH  15  20
ENDBRANCH   1  15
TORSDOF 6
ENDMDL
MODEL 3
REMARK VINA RESULT:    -7.350      4.960      7.210
REMARK INTER + INTRA:         -10.579
REMARK INTER:                  -9.858
REMARK INTRA:                  -0.721
REMARK UNBOUND:                -0.652
REMARK  Name = 
REMARK  6 active torsions:
REMARK  status: ('A' for Active; 'I' for Inactive)
REMARK    1  A    between atoms: C_2  and  C_3
REMARK    2  A    between atoms: C_6  and  N_7
REMARK    3  A    between atoms: N_7  and  C_8
REMARK    4  A    between atoms: C_8  and  C_9
REMARK    5  A    between atoms: C_12  and  O_13
REMARK    6  A    between atoms: O_13  and  C_14
REMARK                            x       y       z     vdW  Elec       q    Type
REMARK                         _______ _______ _______ _____ _____    ______ ____
ROOT
ATOM      1  C   UNL     1      44.230   4.800  11.654  0.00  0.00    +0.000 C 
ATOM      2  C   UNL     1      42.702   4.701  11.703  0.00  0.00    +0.000 C 
ATOM      3  C   UNL     1      43.531   3.751  12.501  0.00  0.00    +0.000 C 
ENDROOT
BRANCH   1   4
ATOM      4  C   UNL     1      44.899   4.305  10.379  0.00  0.00    +0.000 A 
ATOM      5  C   UNL     1      44.776   2.968   9.972  0.00  0.00    +0.000 A 
ATOM      6  C   UNL     1      45.176   2.566   8.695  0.00  0.00    +0.000 A 
ATOM      7  C   UNL     1      45.717   3.492   7.802  0.00  0.00    +0.000 A 
ATOM      8  C   UNL     1      45.997   4.780   8.247  0.00  0.00    +0.000 A 
ATOM      9  C   UNL     1      45.585   5.180   9.521  0.00  0.00    +0.000 A 
BRANCH   7  10
ATOM     10  O   UNL     1      45.976   3.020   6.553  0.00  0.00    +0.000 OA
BRANCH  10  11
ATOM     11  C   UNL     1      47.188   2.303   6.337  0.00  0.00    +0.000 C 
ATOM     12  F   UNL     1      48.185   2.603   7.197  0.00  0.00    +0.000 F 
ATOM     13  F   UNL     1      46.932   0.980   6.424  0.00  0.00    +0.000 F 
ATOM     14  F   UNL     1      47.632   2.563   5.087  0.00  0.00    +0.000 F 
ENDBRANCH  10  11
ENDBRANCH   7  10
ENDBRANCH   1   4
BRANCH   1  15
ATOM     15  N   UNL     1      44.794   6.037  12.178  0.00  0.00    +0.000 N 
ATOM     16  H   UNL     1      44.188   6.842  12.301  0.00  0.00    +0.000 HD
BRANCH  15  20
ATOM     17  C   UNL     1      48.275   6.748  14.235  0.00  0.00    +0.000 A 
ATOM     18  C   UNL     1      47.561   7.745  13.599  0.00  0.00    +0.000 A 
ATOM     19  N   UNL     1      46.410   7.503  12.921  0.00  0.00    +0.000 NA
ATOM     20  C   UNL     1      45.966   6.223  12.892  0.00  0.00    +0.000 A 
ATOM     21  C   UNL     1      46.700   5.225  13.530  0.00  0.00    +0.000 A 
ATOM     22  N   UNL     1      47.860   5.457  14.218  0.00  0.00    +0.000 NA
BRANCH  17  24
ATOM     23  N   UNL     1      50.501   7.274  15.465  0.00  0.00    +0.000 NA
ATOM     24  C   UNL     1      49.490   7.056  14.942  0.00  0.00    +0.000 C 
ENDBRANCH  17  24
ENDBRANCH  15  20
ENDBRANCH   1  15
TORSDOF 6
ENDMDL
MODEL 4
REMARK VINA RESULT:    -7.115      4.885      7.286
REMARK INTER + INTRA:         -10.263
REMARK INTER:                  -9.518
REMARK INTRA:                  -0.745
REMARK UNBOUND:                -0.652
REMARK  Name = 
REMARK  6 active torsions:
REMARK  status: ('A' for Active; 'I' for Inactive)
REMARK    1  A    between atoms: C_2  and  C_3
REMARK    2  A    between atoms: C_6  and  N_7
REMARK    3  A    between atoms: N_7  and  C_8
REMARK    4  A    between atoms: C_8  and  C_9
REMARK    5  A    between atoms: C_12  and  O_13
REMARK    6  A    between atoms: O_13  and  C_14
REMARK                            x       y       z     vdW  Elec       q    Type
REMARK                         _______ _______ _______ _____ _____    ______ ____
ROOT
ATOM      1  C   UNL     1      44.801   4.810  11.667  0.00  0.00    +0.000 C 
ATOM      2  C   UNL     1      43.570   5.660  12.000  0.00  0.00    +0.000 C 
ATOM      3  C   UNL     1      43.609   4.225  12.404  0.00  0.00    +0.000 C 
ENDROOT
BRANCH   1   4
ATOM      4  C   UNL     1      44.965   4.399  10.211  0.00  0.00    +0.000 A 
ATOM      5  C   UNL     1      45.734   5.170   9.325  0.00  0.00    +0.000 A 
ATOM      6  C   UNL     1      46.087   4.678   8.066  0.00  0.00    +0.000 A 
ATOM      7  C   UNL     1      45.670   3.410   7.662  0.00  0.00    +0.000 A 
ATOM      8  C   UNL     1      44.773   2.706   8.458  0.00  0.00    +0.000 A 
ATOM      9  C   UNL     1      44.432   3.195   9.721  0.00  0.00    +0.000 A 
BRANCH   7  10
ATOM     10  O   UNL     1      46.155   2.987   6.463  0.00  0.00    +0.000 OA
BRANCH  10  11
ATOM     11  C   UNL     1      47.212   2.032   6.459  0.00  0.00    +0.000 C 
ATOM     12  F   UNL     1      46.841   0.774   6.778  0.00  0.00    +0.000 F 
ATOM     13  F   UNL     1      47.777   2.015   5.232  0.00  0.00    +0.000 F 
ATOM     14  F   UNL     1      48.153   2.420   7.350  0.00  0.00    +0.000 F 
ENDBRANCH  10  11
ENDBRANCH   7  10
ENDBRANCH   1   4
BRANCH   1  15
ATOM     15  N   UNL     1      46.040   5.225  12.310  0.00  0.00    +0.000 N 
ATOM     16  H   UNL     1      46.423   6.141  12.100  0.00  0.00    +0.000 HD
BRANCH  15  20
ATOM     17  C   UNL     1      47.829   3.906  15.762  0.00  0.00    +0.000 A 
ATOM     18  C   UNL     1      47.559   5.238  15.517  0.00  0.00    +0.000 A 
ATOM     19  N   UNL     1      46.967   5.668  14.374  0.00  0.00    +0.000 NA
ATOM     20  C   UNL     1      46.632   4.727  13.459  0.00  0.00    +0.000 A 
ATOM     21  C   UNL     1      46.918   3.386  13.713  0.00  0.00    +0.000 A 
ATOM     22  N   UNL     1      47.513   2.942  14.863  0.00  0.00    +0.000 NA
BRANCH  17  24
ATOM     23  N   UNL     1      48.911   3.147  17.998  0.00  0.00    +0.000 NA
ATOM     24  C   UNL     1      48.458   3.501  16.991  0.00  0.00    +0.000 C 
ENDBRANCH  17  24
ENDBRANCH  15  20
ENDBRANCH   1  15
TORSDOF 6
ENDMDL
MODEL 5
REMARK VINA RESULT:    -6.744      4.938      7.081
REMARK INTER + INTRA:          -9.761
REMARK INTER:                  -9.596
REMARK INTRA:                  -0.166
REMARK UNBOUND:                -0.652
REMARK  Name = 
REMARK  6 active torsions:
REMARK  status: ('A' for Active; 'I' for Inactive)
REMARK    1  A    between atoms: C_2  and  C_3
REMARK    2  A    between atoms: C_6  and  N_7
REMARK    3  A    between atoms: N_7  and  C_8
REMARK    4  A    between atoms: C_8  and  C_9
REMARK    5  A    between atoms: C_12  and  O_13
REMARK    6  A    between atoms: O_13  and  C_14
REMARK                            x       y       z     vdW  Elec       q    Type
REMARK                         _______ _______ _______ _____ _____    ______ ____
ROOT
ATOM      1  C   UNL     1      44.556   4.060  11.851  0.00  0.00    +0.000 C 
ATOM      2  C   UNL     1      43.169   4.538  12.291  0.00  0.00    +0.000 C 
ATOM      3  C   UNL     1      43.574   3.123  12.534  0.00  0.00    +0.000 C 
ENDROOT
BRANCH   1   4
ATOM      4  C   UNL     1      44.759   3.856  10.356  0.00  0.00    +0.000 A 
ATOM      5  C   UNL     1      45.326   4.864   9.561  0.00  0.00    +0.000 A 
ATOM      6  C   UNL     1      45.736   4.601   8.252  0.00  0.00    +0.000 A 
ATOM      7  C   UNL     1      45.578   3.326   7.707  0.00  0.00    +0.000 A 
ATOM      8  C   UNL     1      44.871   2.365   8.422  0.00  0.00    +0.000 A 
ATOM      9  C   UNL     1      44.473   2.630   9.735  0.00  0.00    +0.000 A 
BRANCH   7  10
ATOM     10  O   UNL     1      46.105   3.150   6.465  0.00  0.00    +0.000 OA
BRANCH  10  11
ATOM     11  C   UNL     1      47.246   2.308   6.326  0.00  0.00    +0.000 C 
ATOM     12  F   UNL     1      48.219   2.516   7.239  0.00  0.00    +0.000 F 
ATOM     13  F   UNL     1      46.848   1.020   6.411  0.00  0.00    +0.000 F 
ATOM     14  F   UNL     1      47.785   2.501   5.101  0.00  0.00    +0.000 F 
ENDBRANCH  10  11
ENDBRANCH   7  10
ENDBRANCH   1   4
BRANCH   1  15
ATOM     15  N   UNL     1      45.681   4.700  12.521  0.00  0.00    +0.000 N 
ATOM     16  H   UNL     1      46.462   4.129  12.828  0.00  0.00    +0.000 HD
BRANCH  15  20
ATOM     17  C   UNL     1      46.951   8.604  12.496  0.00  0.00    +0.000 A 
ATOM     18  C   UNL     1      47.815   7.531  12.387  0.00  0.00    +0.000 A 
ATOM     19  N   UNL     1      47.389   6.242  12.395  0.00  0.00    +0.000 NA
ATOM     20  C   UNL     1      46.054   6.033  12.509  0.00  0.00    +0.000 A 
ATOM     21  C   UNL     1      45.194   7.123  12.628  0.00  0.00    +0.000 A 
ATOM     22  N   UNL     1      45.612   8.426  12.618  0.00  0.00    +0.000 NA
BRANCH  17  24
ATOM     23  N   UNL     1      47.850  11.039  12.406  0.00  0.00    +0.000 NA
ATOM     24  C   UNL     1      47.453   9.952  12.481  0.00  0.00    +0.000 C 
ENDBRANCH  17  24
ENDBRANCH  15  20
ENDBRANCH   1  15
TORSDOF 6
ENDMDL
MODEL 6
REMARK VINA RESULT:    -5.935      5.044      7.651
REMARK INTER + INTRA:          -8.669
REMARK INTER:                  -8.360
REMARK INTRA:                  -0.309
REMARK UNBOUND:                -0.652
REMARK  Name = 
REMARK  6 active torsions:
REMARK  status: ('A' for Active; 'I' for Inactive)
REMARK    1  A    between atoms: C_2  and  C_3
REMARK    2  A    between atoms: C_6  and  N_7
REMARK    3  A    between atoms: N_7  and  C_8
REMARK    4  A    between atoms: C_8  and  C_9
REMARK    5  A    between atoms: C_12  and  O_13
REMARK    6  A    between atoms: O_13  and  C_14
REMARK                            x       y       z     vdW  Elec       q    Type
REMARK                         _______ _______ _______ _____ _____    ______ ____
ROOT
ATOM      1  C   UNL     1      46.914   6.780  12.901  0.00  0.00    +0.000 C 
ATOM      2  C   UNL     1      47.237   8.022  12.063  0.00  0.00    +0.000 C 
ATOM      3  C   UNL     1      46.348   8.145  13.254  0.00  0.00    +0.000 C 
ENDROOT
BRANCH   1   4
ATOM      4  C   UNL     1      45.944   5.783  12.286  0.00  0.00    +0.000 A 
ATOM      5  C   UNL     1      45.332   6.039  11.049  0.00  0.00    +0.000 A 
ATOM      6  C   UNL     1      44.638   5.035  10.369  0.00  0.00    +0.000 A 
ATOM      7  C   UNL     1      44.533   3.756  10.917  0.00  0.00    +0.000 A 
ATOM      8  C   UNL     1      44.990   3.533  12.211  0.00  0.00    +0.000 A 
ATOM      9  C   UNL     1      45.693   4.536  12.883  0.00  0.00    +0.000 A 
BRANCH   7  10
ATOM     10  O   UNL     1      43.928   2.828  10.127  0.00  0.00    +0.000 OA
BRANCH  10  11
ATOM     11  C   UNL     1      44.665   2.284   9.035  0.00  0.00    +0.000 C 
ATOM     12  F   UNL     1      44.469   2.905   7.853  0.00  0.00    +0.000 F 
ATOM     13  F   UNL     1      45.982   2.335   9.332  0.00  0.00    +0.000 F 
ATOM     14  F   UNL     1      44.320   0.985   8.879  0.00  0.00    +0.000 F 
ENDBRANCH  10  11
ENDBRANCH   7  10
ENDBRANCH   1   4
BRANCH   1  15
ATOM     15  N   UNL     1      48.052   6.166  13.572  0.00  0.00    +0.000 N 
ATOM     16  H   UNL     1      48.924   6.054  13.064  0.00  0.00    +0.000 HD
BRANCH  15  20
ATOM     17  C   UNL     1      48.648   5.572  17.591  0.00  0.00    +0.000 A 
ATOM     18  C   UNL     1      48.108   4.609  16.760  0.00  0.00    +0.000 A 
ATOM     19  N   UNL     1      47.913   4.811  15.432  0.00  0.00    +0.000 NA
ATOM     20  C   UNL     1      48.282   6.015  14.929  0.00  0.00    +0.000 A 
ATOM     21  C   UNL     1      48.818   6.981  15.778  0.00  0.00    +0.000 A 
ATOM     22  N   UNL     1      49.020   6.788  17.118  0.00  0.00    +0.000 NA
BRANCH  17  24
ATOM     23  N   UNL     1      49.020   5.045  20.106  0.00  0.00    +0.000 NA
ATOM     24  C   UNL     1      48.834   5.308  18.992  0.00  0.00    +0.000 C 
ENDBRANCH  17  24
ENDBRANCH  15  20
ENDBRANCH   1  15
TORSDOF 6
ENDMDL
MODEL 7
REMARK VINA RESULT:    -5.652      5.213      7.950
REMARK INTER + INTRA:          -8.287
REMARK INTER:                  -7.482
REMARK INTRA:                  -0.805
REMARK UNBOUND:                -0.652
REMARK  Name = 
REMARK  6 active torsions:
REMARK  status: ('A' for Active; 'I' for Inactive)
REMARK    1  A    between atoms: C_2  and  C_3
REMARK    2  A    between atoms: C_6  and  N_7
REMARK    3  A    between atoms: N_7  and  C_8
REMARK    4  A    between atoms: C_8  and  C_9
REMARK    5  A    between atoms: C_12  and  O_13
REMARK    6  A    between atoms: O_13  and  C_14
REMARK                            x       y       z     vdW  Elec       q    Type
REMARK                         _______ _______ _______ _____ _____    ______ ____
ROOT
ATOM      1  C   UNL     1      48.315   7.430  12.928  0.00  0.00    +0.000 C 
ATOM      2  C   UNL     1      48.781   7.633  11.482  0.00  0.00    +0.000 C 
ATOM      3  C   UNL     1      47.994   8.703  12.163  0.00  0.00    +0.000 C 
ENDROOT
BRANCH   1   4
ATOM      4  C   UNL     1      47.164   6.457  13.138  0.00  0.00    +0.000 A 
ATOM      5  C   UNL     1      45.836   6.851  12.915  0.00  0.00    +0.000 A 
ATOM      6  C   UNL     1      44.806   5.909  12.870  0.00  0.00    +0.000 A 
ATOM      7  C   UNL     1      45.080   4.554  13.055  0.00  0.00    +0.000 A 
ATOM      8  C   UNL     1      46.360   4.168  13.439  0.00  0.00    +0.000 A 
ATOM      9  C   UNL     1      47.390   5.112  13.473  0.00  0.00    +0.000 A 
BRANCH   7  10
ATOM     10  O   UNL     1      44.024   3.712  12.887  0.00  0.00    +0.000 OA
BRANCH  10  11
ATOM     11  C   UNL     1      43.762   3.208  11.580  0.00  0.00    +0.000 C 
ATOM     12  F   UNL     1      44.859   2.988  10.826  0.00  0.00    +0.000 F 
ATOM     13  F   UNL     1      43.078   2.049  11.692  0.00  0.00    +0.000 F 
ATOM     14  F   UNL     1      42.981   4.094  10.920  0.00  0.00    +0.000 F 
ENDBRANCH  10  11
ENDBRANCH   7  10
ENDBRANCH   1   4
BRANCH   1  15
ATOM     15  N   UNL     1      49.379   7.314  13.917  0.00  0.00    +0.000 N 
ATOM     16  H   UNL     1      50.336   7.506  13.637  0.00  0.00    +0.000 HD
BRANCH  15  20
ATOM     17  C   UNL     1      49.160   7.203  18.016  0.00  0.00    +0.000 A 
ATOM     18  C   UNL     1      49.759   6.208  17.267  0.00  0.00    +0.000 A 
ATOM     19  N   UNL     1      49.829   6.251  15.912  0.00  0.00    +0.000 NA
ATOM     20  C   UNL     1      49.286   7.331  15.299  0.00  0.00    +0.000 A 
ATOM     21  C   UNL     1      48.677   8.323  16.064  0.00  0.00    +0.000 A 
ATOM     22  N   UNL     1      48.603   8.291  17.430  0.00  0.00    +0.000 NA
BRANCH  17  24
ATOM     23  N   UNL     1      49.019   7.066  20.605  0.00  0.00    +0.000 NA
ATOM     24  C   UNL     1      49.113   7.110  19.450  0.00  0.00    +0.000 C 
ENDBRANCH  17  24
ENDBRANCH  15  20
ENDBRANCH   1  15
TORSDOF 6
ENDMDL
MODEL 8
REMARK VINA RESULT:    -5.347      5.664      8.315
REMARK INTER + INTRA:          -7.874
REMARK INTER:                  -7.179
REMARK INTRA:                  -0.695
REMARK UNBOUND:                -0.652
REMARK  Name = 
REMARK  6 active torsions:
REMARK  status: ('A' for Active; 'I' for Inactive)
REMARK    1  A    between atoms: C_2  and  C_3
REMARK    2  A    between atoms: C_6  and  N_7
REMARK    3  A    between atoms: N_7  and  C_8
REMARK    4  A    between atoms: C_8  and  C_9
REMARK    5  A    between atoms: C_12  and  O_13
REMARK    6  A    between atoms: O_13  and  C_14
REMARK                            x       y       z     vdW  Elec       q    Type
REMARK                         _______ _______ _______ _____ _____    ______ ____
ROOT
ATOM      1  C   UNL     1      48.173   4.483  17.064  0.00  0.00    +0.000 C 
ATOM      2  C   UNL     1      47.206   5.055  18.106  0.00  0.00    +0.000 C 
ATOM      3  C   UNL     1      47.126   3.612  17.735  0.00  0.00    +0.000 C 
ENDROOT
BRANCH   1   4
ATOM      4  C   UNL     1      47.909   4.865  15.614  0.00  0.00    +0.000 A 
ATOM      5  C   UNL     1      47.177   4.019  14.767  0.00  0.00    +0.000 A 
ATOM      6  C   UNL     1      46.726   4.465  13.523  0.00  0.00    +0.000 A 
ATOM      7  C   UNL     1      47.006   5.763  13.095  0.00  0.00    +0.000 A 
ATOM      8  C   UNL     1      47.867   6.554  13.847  0.00  0.00    +0.000 A 
ATOM      9  C   UNL     1      48.307   6.108  15.097  0.00  0.00    +0.000 A 
BRANCH   7  10
ATOM     10  O   UNL     1      46.433   6.129  11.916  0.00  0.00    +0.000 OA
BRANCH  10  11
ATOM     11  C   UNL     1      45.219   6.875  11.957  0.00  0.00    +0.000 C 
ATOM     12  F   UNL     1      44.302   6.515  11.034  0.00  0.00    +0.000 F 
ATOM     13  F   UNL     1      44.669   6.743  13.183  0.00  0.00    +0.000 F 
ATOM     14  F   UNL     1      45.505   8.183  11.763  0.00  0.00    +0.000 F 
ENDBRANCH  10  11
ENDBRANCH   7  10
ENDBRANCH   1   4
BRANCH   1  15
ATOM     15  N   UNL     1      49.581   4.509  17.438  0.00  0.00    +0.000 N 
ATOM     16  H   UNL     1      49.939   5.302  17.959  0.00  0.00    +0.000 HD
BRANCH  15  20
ATOM     17  C   UNL     1      52.359   1.499  17.722  0.00  0.00    +0.000 A 
ATOM     18  C   UNL     1      52.605   2.791  18.143  0.00  0.00    +0.000 A 
ATOM     19  N   UNL     1      51.682   3.782  18.047  0.00  0.00    +0.000 NA
ATOM     20  C   UNL     1      50.478   3.456  17.519  0.00  0.00    +0.000 A 
ATOM     21  C   UNL     1      50.245   2.151  17.089  0.00  0.00    +0.000 A 
ATOM     22  N   UNL     1      51.167   1.144  17.183  0.00  0.00    +0.000 NA
BRANCH  17  24
ATOM     23  N   UNL     1      54.229  -0.288  17.959  0.00  0.00    +0.000 NA
ATOM     24  C   UNL     1      53.371   0.484  17.846  0.00  0.00    +0.000 C 
ENDBRANCH  17  24
ENDBRANCH  15  20
ENDBRANCH   1  15
TORSDOF 6
ENDMDL
MODEL 9
REMARK VINA RESULT:    -5.223      5.290      7.299
REMARK INTER + INTRA:          -7.707
REMARK INTER:                  -7.352
REMARK INTRA:                  -0.355
REMARK UNBOUND:                -0.652
REMARK  Name = 
REMARK  6 active torsions:
REMARK  status: ('A' for Active; 'I' for Inactive)
REMARK    1  A    between atoms: C_2  and  C_3
REMARK    2  A    between atoms: C_6  and  N_7
REMARK    3  A    between atoms: N_7  and  C_8
REMARK    4  A    between atoms: C_8  and  C_9
REMARK    5  A    between atoms: C_12  and  O_13
REMARK    6  A    between atoms: O_13  and  C_14
REMARK                            x       y       z     vdW  Elec       q    Type
REMARK                         _______ _______ _______ _____ _____    ______ ____
ROOT
ATOM      1  C   UNL     1      46.412   7.478  12.288  0.00  0.00    +0.000 C 
ATOM      2  C   UNL     1      45.834   8.775  11.711  0.00  0.00    +0.000 C 
ATOM      3  C   UNL     1      45.692   8.486  13.167  0.00  0.00    +0.000 C 
ENDROOT
BRANCH   1   4
ATOM      4  C   UNL     1      45.656   6.198  11.965  0.00  0.00    +0.000 A 
ATOM      5  C   UNL     1      44.729   6.152  10.913  0.00  0.00    +0.000 A 
ATOM      6  C   UNL     1      44.217   4.935  10.459  0.00  0.00    +0.000 A 
ATOM      7  C   UNL     1      44.613   3.737  11.055  0.00  0.00    +0.000 A 
ATOM      8  C   UNL     1      45.400   3.778  12.201  0.00  0.00    +0.000 A 
ATOM      9  C   UNL     1      45.919   4.997  12.645  0.00  0.00    +0.000 A 
BRANCH   7  10
ATOM     10  O   UNL     1      44.137   2.605  10.470  0.00  0.00    +0.000 OA
BRANCH  10  11
ATOM     11  C   UNL     1      44.663   2.225   9.201  0.00  0.00    +0.000 C 
ATOM     12  F   UNL     1      44.204   2.948   8.157  0.00  0.00    +0.000 F 
ATOM     13  F   UNL     1      46.009   2.334   9.239  0.00  0.00    +0.000 F 
ATOM     14  F   UNL     1      44.354   0.929   8.971  0.00  0.00    +0.000 F 
ENDBRANCH  10  11
ENDBRANCH   7  10
ENDBRANCH   1   4
BRANCH   1  15
ATOM     15  N   UNL     1      47.861   7.349  12.206  0.00  0.00    +0.000 N 
ATOM     16  H   UNL     1      48.325   7.541  11.323  0.00  0.00    +0.000 HD
BRANCH  15  20
ATOM     17  C   UNL     1      50.730   7.433  15.142  0.00  0.00    +0.000 A 
ATOM     18  C   UNL     1      50.845   8.135  13.957  0.00  0.00    +0.000 A 
ATOM     19  N   UNL     1      49.893   8.103  12.990  0.00  0.00    +0.000 NA
ATOM     20  C   UNL     1      48.792   7.350  13.231  0.00  0.00    +0.000 A 
ATOM     21  C   UNL     1      48.692   6.639  14.425  0.00  0.00    +0.000 A 
ATOM     22  N   UNL     1      49.644   6.665  15.407  0.00  0.00    +0.000 NA
BRANCH  17  24
ATOM     23  N   UNL     1      52.645   7.570  16.890  0.00  0.00    +0.000 NA
ATOM     24  C   UNL     1      51.768   7.500  16.136  0.00  0.00    +0.000 C 
ENDBRANCH  17  24
ENDBRANCH  15  20
ENDBRANCH   1  15
TORSDOF 6
ENDMDL
