MODEL 1
REMARK VINA RESULT:    -8.762      0.000      0.000
REMARK INTER + INTRA:         -13.555
REMARK INTER:                 -12.348
REMARK INTRA:                  -1.207
REMARK UNBOUND:                -1.207
REMARK  Name = 
REMARK  8 active torsions:
REMARK  status: ('A' for Active; 'I' for Inactive)
REMARK    1  A    between atoms: C_1  and  O_2
REMARK    2  A    between atoms: O_2  and  C_3
REMARK    3  A    between atoms: C_5  and  C_6
REMARK    4  A    between atoms: C_6  and  N_7
REMARK    5  A    between atoms: C_8  and  C_10
REMARK    6  A    between atoms: C_22  and  C_23
REMARK    7  A    between atoms: C_23  and  O_24
REMARK    8  A    between atoms: O_24  and  C_25
REMARK                            x       y       z     vdW  Elec       q    Type
REMARK                         _______ _______ _______ _____ _____    ______ ____
ROOT
ATOM      1  C   UNL     1      44.297   5.176  11.495  0.00  0.00    +0.000 A 
ATOM      2  C   UNL     1      44.878   6.111  12.361  0.00  0.00    +0.000 A 
ATOM      3  C   UNL     1      46.008   6.847  11.985  0.00  0.00    +0.000 A 
ATOM      4  C   UNL     1      46.563   6.637  10.719  0.00  0.00    +0.000 A 
ATOM      5  C   UNL     1      45.999   5.697   9.852  0.00  0.00    +0.000 A 
ATOM      6  C   UNL     1      44.855   4.967  10.222  0.00  0.00    +0.000 A 
ENDROOT
BRANCH   1   8
ATOM      7  C   UNL     1      43.437   3.231  12.549  0.00  0.00    +0.000 C 
ATOM      8  O   UNL     1      43.194   4.428  11.817  0.00  0.00    +0.000 OA
ENDBRANCH   1   8
BRANCH   3   9
ATOM      9  C   UNL     1      46.579   7.867  12.933  0.00  0.00    +0.000 C 
BRANCH   9  10
ATOM     10  N   UNL     1      47.108   7.250  14.123  0.00  0.00    +0.000 N 
ATOM     11  C   UNL     1      48.368   6.719  14.194  0.00  0.00    +0.000 C 
ATOM     12  O   UNL     1      49.135   6.712  13.234  0.00  0.00    +0.000 OA
ATOM     13  H   UNL     1      46.439   7.049  14.859  0.00  0.00    +0.000 HD
BRANCH  11  14
ATOM     14  C   UNL     1      48.791   6.218  15.512  0.00  0.00    +0.000 A 
ATOM     15  C   UNL     1      49.825   6.854  16.186  0.00  0.00    +0.000 A 
ATOM     16  S   UNL     1      50.157   6.186  17.720  0.00  0.00    +0.000 S 
ATOM     17  C   UNL     1      48.962   4.991  17.519  0.00  0.00    +0.000 A 
ATOM     18  N   UNL     1      48.742   4.056  18.481  0.00  0.00    +0.000 NA
ATOM     19  C   UNL     1      47.829   3.190  18.185  0.00  0.00    +0.000 A 
ATOM     20  N   UNL     1      47.112   3.184  17.018  0.00  0.00    +0.000 N 
ATOM     21  C   UNL     1      47.257   4.143  16.045  0.00  0.00    +0.000 A 
ATOM     22  O   UNL     1      46.524   4.166  15.062  0.00  0.00    +0.000 OA
ATOM     23  C   UNL     1      48.300   5.118  16.310  0.00  0.00    +0.000 A 
ATOM     24  H   UNL     1      46.395   2.490  16.858  0.00  0.00    +0.000 HD
ENDBRANCH  11  14
ENDBRANCH   9  10
ENDBRANCH   3   9
BRANCH   6  25
ATOM     25  C   UNL     1      44.221   4.028   9.216  0.00  0.00    +0.000 C 
BRANCH  25  26
ATOM     26  O   UNL     1      44.720   2.697   9.370  0.00  0.00    +0.000 OA
BRANCH  26  27
ATOM     27  C   UNL     1      45.594   2.347   8.354  0.00  0.00    +0.000 A 
ATOM     28  C   UNL     1      45.759   3.257   7.330  0.00  0.00    +0.000 A 
ATOM     29  C   UNL     1      46.623   2.908   6.304  0.00  0.00    +0.000 A 
ATOM     30  F   UNL     1      46.813   3.755   5.282  0.00  0.00    +0.000 F 
ATOM     31  C   UNL     1      47.295   1.697   6.310  0.00  0.00    +0.000 A 
ATOM     32  C   UNL     1      47.063   0.855   7.380  0.00  0.00    +0.000 A 
ATOM     33  N   UNL     1      46.223   1.150   8.392  0.00  0.00    +0.000 NA
ENDBRANCH  26  27
ENDBRANCH  25  26
ENDBRANCH   6  25
TORSDOF 7
ENDMDL
MODEL 2
REMARK VINA RESULT:    -8.079      2.164      2.714
REMARK INTER + INTRA:         -12.591
REMARK INTER:                 -11.291
REMARK INTRA:                  -1.301
REMARK UNBOUND:                -1.207
REMARK  Name = 
REMARK  8 active torsions:
REMARK  status: ('A' for Active; 'I' for Inactive)
REMARK    1  A    between atoms: C_1  and  O_2
REMARK    2  A    between atoms: O_2  and  C_3
REMARK    3  A    between atoms: C_5  and  C_6
REMARK    4  A    between atoms: C_6  and  N_7
REMARK    5  A    between atoms: C_8  and  C_10
REMARK    6  A    between atoms: C_22  and  C_23
REMARK    7  A    between atoms: C_23  and  O_24
REMARK    8  A    between atoms: O_24  and  C_25
REMARK                            x       y       z     vdW  Elec       q    Type
REMARK                         _______ _______ _______ _____ _____    ______ ____
ROOT
ATOM      1  C   UNL     1      45.779   4.985  12.683  0.00  0.00    +0.000 A 
ATOM      2  C   UNL     1      46.311   6.178  13.187  0.00  0.00    +0.000 A 
ATOM      3  C   UNL     1      46.057   7.407  12.566  0.00  0.00    +0.000 A 
ATOM      4  C   UNL     1      45.256   7.434  11.419  0.00  0.00    +0.000 A 
ATOM      5  C   UNL     1      44.730   6.248  10.901  0.00  0.00    +0.000 A 
ATOM      6  C   UNL     1      44.972   5.014  11.531  0.00  0.00    +0.000 A 
ENDROOT
BRANCH   1   8
ATOM      7  C   UNL     1      47.155   3.646  14.079  0.00  0.00    +0.000 C 
ATOM      8  O   UNL     1      46.000   3.757  13.251  0.00  0.00    +0.000 OA
ENDBRANCH   1   8
BRANCH   3   9
ATOM      9  C   UNL     1      46.619   8.670  13.161  0.00  0.00    +0.000 C 
BRANCH   9  10
ATOM     10  N   UNL     1      47.088   8.459  14.507  0.00  0.00    +0.000 N 
ATOM     11  C   UNL     1      48.109   9.180  15.065  0.00  0.00    +0.000 C 
ATOM     12  O   UNL     1      48.717  10.051  14.445  0.00  0.00    +0.000 OA
ATOM     13  H   UNL     1      46.759   7.619  14.970  0.00  0.00    +0.000 HD
BRANCH  11  14
ATOM     14  C   UNL     1      48.398   8.912  16.483  0.00  0.00    +0.000 A 
ATOM     15  C   UNL     1      48.178   9.906  17.427  0.00  0.00    +0.000 A 
ATOM     16  S   UNL     1      48.511   9.419  19.028  0.00  0.00    +0.000 S 
ATOM     17  C   UNL     1      49.007   7.875  18.512  0.00  0.00    +0.000 A 
ATOM     18  N   UNL     1      49.449   6.950  19.406  0.00  0.00    +0.000 NA
ATOM     19  C   UNL     1      49.825   5.833  18.876  0.00  0.00    +0.000 A 
ATOM     20  N   UNL     1      49.787   5.556  17.535  0.00  0.00    +0.000 N 
ATOM     21  C   UNL     1      49.292   6.436  16.603  0.00  0.00    +0.000 A 
ATOM     22  O   UNL     1      49.176   6.114  15.425  0.00  0.00    +0.000 OA
ATOM     23  C   UNL     1      48.894   7.724  17.141  0.00  0.00    +0.000 A 
ATOM     24  H   UNL     1      50.075   4.653  17.187  0.00  0.00    +0.000 HD
ENDBRANCH  11  14
ENDBRANCH   9  10
ENDBRANCH   3   9
BRANCH   6  25
ATOM     25  C   UNL     1      44.306   3.765  10.991  0.00  0.00    +0.000 C 
BRANCH  25  26
ATOM     26  O   UNL     1      43.986   3.913   9.604  0.00  0.00    +0.000 OA
BRANCH  26  27
ATOM     27  C   UNL     1      44.981   3.409   8.784  0.00  0.00    +0.000 A 
ATOM     28  C   UNL     1      45.228   2.053   8.859  0.00  0.00    +0.000 A 
ATOM     29  C   UNL     1      46.230   1.544   8.049  0.00  0.00    +0.000 A 
ATOM     30  F   UNL     1      46.513   0.234   8.090  0.00  0.00    +0.000 F 
ATOM     31  C   UNL     1      46.952   2.364   7.196  0.00  0.00    +0.000 A 
ATOM     32  C   UNL     1      46.629   3.707   7.194  0.00  0.00    +0.000 A 
ATOM     33  N   UNL     1      45.669   4.244   7.973  0.00  0.00    +0.000 NA
ENDBRANCH  26  27
ENDBRANCH  25  26
ENDBRANCH   6  25
TORSDOF 7
ENDMDL
MODEL 3
REMARK VINA RESULT:    -7.906      2.243      3.785
REMARK INTER + INTRA:         -12.348
REMARK INTER:                 -11.133
REMARK INTRA:                  -1.215
REMARK UNBOUND:                -1.207
REMARK  Name = 
REMARK  8 active torsions:
REMARK  status: ('A' for Active; 'I' for Inactive)
REMARK    1  A    between atoms: C_1  and  O_2
REMARK    2  A    between atoms: O_2  and  C_3
REMARK    3  A    between atoms: C_5  and  C_6
REMARK    4  A    between atoms: C_6  and  N_7
REMARK    5  A    between atoms: C_8  and  C_10
REMARK    6  A    between atoms: C_22  and  C_23
REMARK    7  A    between atoms: C_23  and  O_24
REMARK    8  A    between atoms: O_24  and  C_25
REMARK                            x       y       z     vdW  Elec       q    Type
REMARK                         _______ _______ _______ _____ _____    ______ ____
ROOT
ATOM      1  C   UNL     1      45.257   5.771  11.741  0.00  0.00    +0.000 A 
ATOM      2  C   UNL     1      45.878   5.709  12.994  0.00  0.00    +0.000 A 
ATOM      3  C   UNL     1      46.145   4.481  13.614  0.00  0.00    +0.000 A 
ATOM      4  C   UNL     1      45.780   3.300  12.960  0.00  0.00    +0.000 A 
ATOM      5  C   UNL     1      45.149   3.351  11.715  0.00  0.00    +0.000 A 
ATOM      6  C   UNL     1      44.892   4.582  11.085  0.00  0.00    +0.000 A 
ENDROOT
BRANCH   1   8
ATOM      7  C   UNL     1      45.234   8.144  11.820  0.00  0.00    +0.000 C 
ATOM      8  O   UNL     1      44.970   6.947  11.095  0.00  0.00    +0.000 OA
ENDBRANCH   1   8
BRANCH   3   9
ATOM      9  C   UNL     1      46.846   4.459  14.945  0.00  0.00    +0.000 C 
BRANCH   9  10
ATOM     10  N   UNL     1      47.593   5.670  15.172  0.00  0.00    +0.000 N 
ATOM     11  C   UNL     1      48.675   5.736  16.008  0.00  0.00    +0.000 C 
ATOM     12  O   UNL     1      49.076   4.764  16.646  0.00  0.00    +0.000 OA
ATOM     13  H   UNL     1      47.171   6.527  14.833  0.00  0.00    +0.000 HD
BRANCH  11  14
ATOM     14  C   UNL     1      49.390   7.022  16.050  0.00  0.00    +0.000 A 
ATOM     15  C   UNL     1      49.691   7.599  17.276  0.00  0.00    +0.000 A 
ATOM     16  S   UNL     1      50.566   9.058  17.153  0.00  0.00    +0.000 S 
ATOM     17  C   UNL     1      50.534   8.996  15.453  0.00  0.00    +0.000 A 
ATOM     18  N   UNL     1      51.100   9.983  14.708  0.00  0.00    +0.000 NA
ATOM     19  C   UNL     1      50.975   9.828  13.431  0.00  0.00    +0.000 A 
ATOM     20  N   UNL     1      50.343   8.769  12.835  0.00  0.00    +0.000 N 
ATOM     21  C   UNL     1      49.810   7.719  13.544  0.00  0.00    +0.000 A 
ATOM     22  O   UNL     1      49.346   6.737  12.972  0.00  0.00    +0.000 OA
ATOM     23  C   UNL     1      49.888   7.864  14.986  0.00  0.00    +0.000 A 
ATOM     24  H   UNL     1      50.299   8.695  11.828  0.00  0.00    +0.000 HD
ENDBRANCH  11  14
ENDBRANCH   9  10
ENDBRANCH   3   9
BRANCH   6  25
ATOM     25  C   UNL     1      44.292   4.589   9.693  0.00  0.00    +0.000 C 
BRANCH  25  26
ATOM     26  O   UNL     1      44.152   3.258   9.188  0.00  0.00    +0.000 OA
BRANCH  26  27
ATOM     27  C   UNL     1      45.231   2.882   8.406  0.00  0.00    +0.000 A 
ATOM     28  C   UNL     1      45.636   1.564   8.489  0.00  0.00    +0.000 A 
ATOM     29  C   UNL     1      46.722   1.184   7.718  0.00  0.00    +0.000 A 
ATOM     30  F   UNL     1      47.158  -0.083   7.767  0.00  0.00    +0.000 F 
ATOM     31  C   UNL     1      47.372   2.090   6.895  0.00  0.00    +0.000 A 
ATOM     32  C   UNL     1      46.891   3.384   6.882  0.00  0.00    +0.000 A 
ATOM     33  N   UNL     1      45.845   3.798   7.624  0.00  0.00    +0.000 NA
ENDBRANCH  26  27
ENDBRANCH  25  26
ENDBRANCH   6  25
TORSDOF 7
ENDMDL
MODEL 4
REMARK VINA RESULT:    -7.742      2.800      3.511
REMARK INTER + INTRA:         -12.117
REMARK INTER:                 -11.155
REMARK INTRA:                  -0.962
REMARK UNBOUND:                -1.207
REMARK  Name = 
REMARK  8 active torsions:
REMARK  status: ('A' for Active; 'I' for Inactive)
REMARK    1  A    between atoms: C_1  and  O_2
REMARK    2  A    between atoms: O_2  and  C_3
REMARK    3  A    between atoms: C_5  and  C_6
REMARK    4  A    between atoms: C_6  and  N_7
REMARK    5  A    between atoms: C_8  and  C_10
REMARK    6  A    between atoms: C_22  and  C_23
REMARK    7  A    between atoms: C_23  and  O_24
REMARK    8  A    between atoms: O_24  and  C_25
REMARK                            x       y       z     vdW  Elec       q    Type
REMARK                         _______ _______ _______ _____ _____    ______ ____
ROOT
ATOM      1  C   UNL     1      45.909   5.802  12.064  0.00  0.00    +0.000 A 
ATOM      2  C   UNL     1      46.627   5.593  13.248  0.00  0.00    +0.000 A 
ATOM      3  C   UNL     1      46.699   4.327  13.841  0.00  0.00    +0.000 A 
ATOM      4  C   UNL     1      46.037   3.255  13.233  0.00  0.00    +0.000 A 
ATOM      5  C   UNL     1      45.308   3.455  12.058  0.00  0.00    +0.000 A 
ATOM      6  C   UNL     1      45.246   4.724  11.453  0.00  0.00    +0.000 A 
ENDROOT
BRANCH   1   8
ATOM      7  C   UNL     1      45.838   8.164  12.298  0.00  0.00    +0.000 C 
ATOM      8  O   UNL     1      45.805   7.022  11.446  0.00  0.00    +0.000 OA
ENDBRANCH   1   8
BRANCH   3   9
ATOM      9  C   UNL     1      47.511   4.139  15.094  0.00  0.00    +0.000 C 
BRANCH   9  10
ATOM     10  N   UNL     1      47.501   5.323  15.916  0.00  0.00    +0.000 N 
ATOM     11  C   UNL     1      48.581   5.734  16.649  0.00  0.00    +0.000 C 
ATOM     12  O   UNL     1      49.637   5.106  16.677  0.00  0.00    +0.000 OA
ATOM     13  H   UNL     1      46.594   5.745  16.083  0.00  0.00    +0.000 HD
BRANCH  11  14
ATOM     14  C   UNL     1      48.440   7.020  17.353  0.00  0.00    +0.000 A 
ATOM     15  C   UNL     1      48.663   8.205  16.666  0.00  0.00    +0.000 A 
ATOM     16  S   UNL     1      48.408   9.604  17.607  0.00  0.00    +0.000 S 
ATOM     17  C   UNL     1      48.035   8.675  18.984  0.00  0.00    +0.000 A 
ATOM     18  N   UNL     1      47.738   9.272  20.169  0.00  0.00    +0.000 NA
ATOM     19  C   UNL     1      47.507   8.449  21.139  0.00  0.00    +0.000 A 
ATOM     20  N   UNL     1      47.537   7.084  21.024  0.00  0.00    +0.000 N 
ATOM     21  C   UNL     1      47.772   6.438  19.835  0.00  0.00    +0.000 A 
ATOM     22  O   UNL     1      47.686   5.217  19.748  0.00  0.00    +0.000 OA
ATOM     23  C   UNL     1      48.078   7.317  18.721  0.00  0.00    +0.000 A 
ATOM     24  H   UNL     1      47.325   6.496  21.817  0.00  0.00    +0.000 HD
ENDBRANCH  11  14
ENDBRANCH   9  10
ENDBRANCH   3   9
BRANCH   6  25
ATOM     25  C   UNL     1      44.523   4.876  10.130  0.00  0.00    +0.000 C 
BRANCH  25  26
ATOM     26  O   UNL     1      44.241   3.600   9.548  0.00  0.00    +0.000 OA
BRANCH  26  27
ATOM     27  C   UNL     1      45.231   3.200   8.667  0.00  0.00    +0.000 A 
ATOM     28  C   UNL     1      45.595   1.868   8.695  0.00  0.00    +0.000 A 
ATOM     29  C   UNL     1      46.593   1.464   7.823  0.00  0.00    +0.000 A 
ATOM     30  F   UNL     1      46.986   0.183   7.816  0.00  0.00    +0.000 F 
ATOM     31  C   UNL     1      47.198   2.360   6.956  0.00  0.00    +0.000 A 
ATOM     32  C   UNL     1      46.763   3.670   7.004  0.00  0.00    +0.000 A 
ATOM     33  N   UNL     1      45.804   4.108   7.844  0.00  0.00    +0.000 NA
ENDBRANCH  26  27
ENDBRANCH  25  26
ENDBRANCH   6  25
TORSDOF 7
ENDMDL
MODEL 5
REMARK VINA RESULT:    -7.714      2.032      2.787
REMARK INTER + INTRA:         -12.077
REMARK INTER:                 -11.101
REMARK INTRA:                  -0.977
REMARK UNBOUND:                -1.207
REMARK  Name = 
REMARK  8 active torsions:
REMARK  status: ('A' for Active; 'I' for Inactive)
REMARK    1  A    between atoms: C_1  and  O_2
REMARK    2  A    between atoms: O_2  and  C_3
REMARK    3  A    between atoms: C_5  and  C_6
REMARK    4  A    between atoms: C_6  and  N_7
REMARK    5  A    between atoms: C_8  and  C_10
REMARK    6  A    between atoms: C_22  and  C_23
REMARK    7  A    between atoms: C_23  and  O_24
REMARK    8  A    between atoms: O_24  and  C_25
REMARK                            x       y       z     vdW  Elec       q    Type
REMARK                         _______ _______ _______ _____ _____    ______ ____
ROOT
ATOM      1  C   UNL     1      44.966   6.652  12.003  0.00  0.00    +0.000 A 
ATOM      2  C   UNL     1      46.170   7.040  12.603  0.00  0.00    +0.000 A 
ATOM      3  C   UNL     1      46.972   6.118  13.288  0.00  0.00    +0.000 A 
ATOM      4  C   UNL     1      46.553   4.786  13.370  0.00  0.00    +0.000 A 
ATOM      5  C   UNL     1      45.347   4.391  12.786  0.00  0.00    +0.000 A 
ATOM      6  C   UNL     1      44.547   5.312  12.085  0.00  0.00    +0.000 A 
ENDROOT
BRANCH   1   8
ATOM      7  C   UNL     1      44.548   8.882  11.303  0.00  0.00    +0.000 C 
ATOM      8  O   UNL     1      44.144   7.516  11.325  0.00  0.00    +0.000 OA
ENDBRANCH   1   8
BRANCH   3   9
ATOM      9  C   UNL     1      48.275   6.570  13.887  0.00  0.00    +0.000 C 
BRANCH   9  10
ATOM     10  N   UNL     1      48.200   6.651  15.324  0.00  0.00    +0.000 N 
ATOM     11  C   UNL     1      49.304   6.653  16.133  0.00  0.00    +0.000 C 
ATOM     12  O   UNL     1      50.447   6.563  15.688  0.00  0.00    +0.000 OA
ATOM     13  H   UNL     1      47.282   6.514  15.733  0.00  0.00    +0.000 HD
BRANCH  11  14
ATOM     14  C   UNL     1      49.059   6.844  17.572  0.00  0.00    +0.000 A 
ATOM     15  C   UNL     1      48.994   8.131  18.090  0.00  0.00    +0.000 A 
ATOM     16  S   UNL     1      48.650   8.182  19.760  0.00  0.00    +0.000 S 
ATOM     17  C   UNL     1      48.623   6.483  19.861  0.00  0.00    +0.000 A 
ATOM     18  N   UNL     1      48.401   5.859  21.049  0.00  0.00    +0.000 NA
ATOM     19  C   UNL     1      48.440   4.568  20.989  0.00  0.00    +0.000 A 
ATOM     20  N   UNL     1      48.671   3.849  19.846  0.00  0.00    +0.000 N 
ATOM     21  C   UNL     1      48.840   4.434  18.615  0.00  0.00    +0.000 A 
ATOM     22  O   UNL     1      48.938   3.756  17.597  0.00  0.00    +0.000 OA
ATOM     23  C   UNL     1      48.846   5.886  18.632  0.00  0.00    +0.000 A 
ATOM     24  H   UNL     1      48.666   2.839  19.863  0.00  0.00    +0.000 HD
ENDBRANCH  11  14
ENDBRANCH   9  10
ENDBRANCH   3   9
BRANCH   6  25
ATOM     25  C   UNL     1      43.295   4.822  11.386  0.00  0.00    +0.000 C 
BRANCH  25  26
ATOM     26  O   UNL     1      43.412   4.960   9.967  0.00  0.00    +0.000 OA
BRANCH  26  27
ATOM     27  C   UNL     1      44.233   3.992   9.416  0.00  0.00    +0.000 A 
ATOM     28  C   UNL     1      45.231   4.426   8.566  0.00  0.00    +0.000 A 
ATOM     29  C   UNL     1      46.049   3.461   8.001  0.00  0.00    +0.000 A 
ATOM     30  F   UNL     1      47.028   3.831   7.164  0.00  0.00    +0.000 F 
ATOM     31  C   UNL     1      45.874   2.115   8.282  0.00  0.00    +0.000 A 
ATOM     32  C   UNL     1      44.848   1.782   9.145  0.00  0.00    +0.000 A 
ATOM     33  N   UNL     1      44.023   2.688   9.707  0.00  0.00    +0.000 NA
ENDBRANCH  26  27
ENDBRANCH  25  26
ENDBRANCH   6  25
TORSDOF 7
ENDMDL
MODEL 6
REMARK VINA RESULT:    -7.611      2.663      3.415
REMARK INTER + INTRA:         -11.932
REMARK INTER:                 -10.856
REMARK INTRA:                  -1.077
REMARK UNBOUND:                -1.207
REMARK  Name = 
REMARK  8 active torsions:
REMARK  status: ('A' for Active; 'I' for Inactive)
REMARK    1  A    between atoms: C_1  and  O_2
REMARK    2  A    between atoms: O_2  and  C_3
REMARK    3  A    between atoms: C_5  and  C_6
REMARK    4  A    between atoms: C_6  and  N_7
REMARK    5  A    between atoms: C_8  and  C_10
REMARK    6  A    between atoms: C_22  and  C_23
REMARK    7  A    between atoms: C_23  and  O_24
REMARK    8  A    between atoms: O_24  and  C_25
REMARK                            x       y       z     vdW  Elec       q    Type
REMARK                         _______ _______ _______ _____ _____    ______ ____
ROOT
ATOM      1  C   UNL     1      44.978   6.257  12.135  0.00  0.00    +0.000 A 
ATOM      2  C   UNL     1      46.103   6.688  12.847  0.00  0.00    +0.000 A 
ATOM      3  C   UNL     1      46.941   5.777  13.504  0.00  0.00    +0.000 A 
ATOM      4  C   UNL     1      46.639   4.413  13.442  0.00  0.00    +0.000 A 
ATOM      5  C   UNL     1      45.511   3.974  12.745  0.00  0.00    +0.000 A 
ATOM      6  C   UNL     1      44.676   4.885  12.073  0.00  0.00    +0.000 A 
ENDROOT
BRANCH   1   8
ATOM      7  C   UNL     1      44.571   8.452  11.327  0.00  0.00    +0.000 C 
ATOM      8  O   UNL     1      44.125   7.108  11.478  0.00  0.00    +0.000 OA
ENDBRANCH   1   8
BRANCH   3   9
ATOM      9  C   UNL     1      48.160   6.280  14.228  0.00  0.00    +0.000 C 
BRANCH   9  10
ATOM     10  N   UNL     1      47.954   6.316  15.654  0.00  0.00    +0.000 N 
ATOM     11  C   UNL     1      48.961   6.124  16.562  0.00  0.00    +0.000 C 
ATOM     12  O   UNL     1      50.117   5.884  16.222  0.00  0.00    +0.000 OA
ATOM     13  H   UNL     1      46.989   6.301  15.968  0.00  0.00    +0.000 HD
BRANCH  11  14
ATOM     14  C   UNL     1      48.603   6.296  17.979  0.00  0.00    +0.000 A 
ATOM     15  C   UNL     1      48.727   5.223  18.852  0.00  0.00    +0.000 A 
ATOM     16  S   UNL     1      48.324   5.600  20.465  0.00  0.00    +0.000 S 
ATOM     17  C   UNL     1      47.922   7.200  20.048  0.00  0.00    +0.000 A 
ATOM     18  N   UNL     1      47.468   8.072  20.987  0.00  0.00    +0.000 NA
ATOM     19  C   UNL     1      47.169   9.243  20.528  0.00  0.00    +0.000 A 
ATOM     20  N   UNL     1      47.294   9.620  19.217  0.00  0.00    +0.000 N 
ATOM     21  C   UNL     1      47.805   8.793  18.246  0.00  0.00    +0.000 A 
ATOM     22  O   UNL     1      48.002   9.199  17.105  0.00  0.00    +0.000 OA
ATOM     23  C   UNL     1      48.119   7.450  18.701  0.00  0.00    +0.000 A 
ATOM     24  H   UNL     1      47.063  10.559  18.927  0.00  0.00    +0.000 HD
ENDBRANCH  11  14
ENDBRANCH   9  10
ENDBRANCH   3   9
BRANCH   6  25
ATOM     25  C   UNL     1      43.518   4.358  11.250  0.00  0.00    +0.000 C 
BRANCH  25  26
ATOM     26  O   UNL     1      43.683   4.681   9.866  0.00  0.00    +0.000 OA
BRANCH  26  27
ATOM     27  C   UNL     1      44.531   3.796   9.222  0.00  0.00    +0.000 A 
ATOM     28  C   UNL     1      45.423   4.332   8.314  0.00  0.00    +0.000 A 
ATOM     29  C   UNL     1      46.267   3.450   7.658  0.00  0.00    +0.000 A 
ATOM     30  F   UNL     1      47.146   3.920   6.761  0.00  0.00    +0.000 F 
ATOM     31  C   UNL     1      46.220   2.088   7.907  0.00  0.00    +0.000 A 
ATOM     32  C   UNL     1      45.293   1.651   8.834  0.00  0.00    +0.000 A 
ATOM     33  N   UNL     1      44.447   2.472   9.486  0.00  0.00    +0.000 NA
ENDBRANCH  26  27
ENDBRANCH  25  26
ENDBRANCH   6  25
TORSDOF 7
ENDMDL
MODEL 7
REMARK VINA RESULT:    -7.517      2.876      4.165
REMARK INTER + INTRA:         -11.800
REMARK INTER:                 -10.632
REMARK INTRA:                  -1.168
REMARK UNBOUND:                -1.207
REMARK  Name = 
REMARK  8 active torsions:
REMARK  status: ('A' for Active; 'I' for Inactive)
REMARK    1  A    between atoms: C_1  and  O_2
REMARK    2  A    between atoms: O_2  and  C_3
REMARK    3  A    between atoms: C_5  and  C_6
REMARK    4  A    between atoms: C_6  and  N_7
REMARK    5  A    between atoms: C_8  and  C_10
REMARK    6  A    between atoms: C_22  and  C_23
REMARK    7  A    between atoms: C_23  and  O_24
REMARK    8  A    between atoms: O_24  and  C_25
REMARK                            x       y       z     vdW  Elec       q    Type
REMARK                         _______ _______ _______ _____ _____    ______ ____
ROOT
ATOM      1  C   UNL     1      45.754   4.946  12.681  0.00  0.00    +0.000 A 
ATOM      2  C   UNL     1      45.946   6.251  13.152  0.00  0.00    +0.000 A 
ATOM      3  C   UNL     1      45.357   7.349  12.514  0.00  0.00    +0.000 A 
ATOM      4  C   UNL     1      44.564   7.129  11.383  0.00  0.00    +0.000 A 
ATOM      5  C   UNL     1      44.376   5.833  10.897  0.00  0.00    +0.000 A 
ATOM      6  C   UNL     1      44.955   4.727  11.545  0.00  0.00    +0.000 A 
ENDROOT
BRANCH   1   8
ATOM      7  C   UNL     1      46.983   4.054  14.506  0.00  0.00    +0.000 C 
ATOM      8  O   UNL     1      46.311   3.839  13.268  0.00  0.00    +0.000 OA
ENDBRANCH   1   8
BRANCH   3   9
ATOM      9  C   UNL     1      45.560   8.730  13.074  0.00  0.00    +0.000 C 
BRANCH   9  10
ATOM     10  N   UNL     1      46.882   8.891  13.624  0.00  0.00    +0.000 N 
ATOM     11  C   UNL     1      47.892   9.540  12.967  0.00  0.00    +0.000 C 
ATOM     12  O   UNL     1      47.748  10.017  11.843  0.00  0.00    +0.000 OA
ATOM     13  H   UNL     1      47.097   8.336  14.445  0.00  0.00    +0.000 HD
BRANCH  11  14
ATOM     14  C   UNL     1      49.152   9.708  13.709  0.00  0.00    +0.000 A 
ATOM     15  C   UNL     1      49.174  10.500  14.850  0.00  0.00    +0.000 A 
ATOM     16  S   UNL     1      50.694  10.548  15.623  0.00  0.00    +0.000 S 
ATOM     17  C   UNL     1      51.391   9.549  14.434  0.00  0.00    +0.000 A 
ATOM     18  N   UNL     1      52.707   9.213  14.489  0.00  0.00    +0.000 NA
ATOM     19  C   UNL     1      53.113   8.478  13.506  0.00  0.00    +0.000 A 
ATOM     20  N   UNL     1      52.315   8.041  12.482  0.00  0.00    +0.000 N 
ATOM     21  C   UNL     1      50.969   8.304  12.416  0.00  0.00    +0.000 A 
ATOM     22  O   UNL     1      50.266   7.808  11.541  0.00  0.00    +0.000 OA
ATOM     23  C   UNL     1      50.470   9.162  13.476  0.00  0.00    +0.000 A 
ATOM     24  H   UNL     1      52.690   7.448  11.754  0.00  0.00    +0.000 HD
ENDBRANCH  11  14
ENDBRANCH   9  10
ENDBRANCH   3   9
BRANCH   6  25
ATOM     25  C   UNL     1      44.649   3.331  11.041  0.00  0.00    +0.000 C 
BRANCH  25  26
ATOM     26  O   UNL     1      44.157   3.367   9.698  0.00  0.00    +0.000 OA
BRANCH  26  27
ATOM     27  C   UNL     1      45.142   3.063   8.775  0.00  0.00    +0.000 A 
ATOM     28  C   UNL     1      45.584   1.755   8.737  0.00  0.00    +0.000 A 
ATOM     29  C   UNL     1      46.578   1.447   7.823  0.00  0.00    +0.000 A 
ATOM     30  F   UNL     1      47.045   0.192   7.752  0.00  0.00    +0.000 F 
ATOM     31  C   UNL     1      47.104   2.412   6.979  0.00  0.00    +0.000 A 
ATOM     32  C   UNL     1      46.595   3.691   7.093  0.00  0.00    +0.000 A 
ATOM     33  N   UNL     1      45.636   4.035   7.975  0.00  0.00    +0.000 NA
ENDBRANCH  26  27
ENDBRANCH  25  26
ENDBRANCH   6  25
TORSDOF 7
ENDMDL
MODEL 8
REMARK VINA RESULT:    -7.437      1.718      2.166
REMARK INTER + INTRA:         -11.687
REMARK INTER:                 -10.236
REMARK INTRA:                  -1.451
REMARK UNBOUND:                -1.207
REMARK  Name = 
REMARK  8 active torsions:
REMARK  status: ('A' for Active; 'I' for Inactive)
REMARK    1  A    between atoms: C_1  and  O_2
REMARK    2  A    between atoms: O_2  and  C_3
REMARK    3  A    between atoms: C_5  and  C_6
REMARK    4  A    between atoms: C_6  and  N_7
REMARK    5  A    between atoms: C_8  and  C_10
REMARK    6  A    between atoms: C_22  and  C_23
REMARK    7  A    between atoms: C_23  and  O_24
REMARK    8  A    between atoms: O_24  and  C_25
REMARK                            x       y       z     vdW  Elec       q    Type
REMARK                         _______ _______ _______ _____ _____    ______ ____
ROOT
ATOM      1  C   UNL     1      45.795   5.156  12.573  0.00  0.00    +0.000 A 
ATOM      2  C   UNL     1      46.825   5.987  13.029  0.00  0.00    +0.000 A 
ATOM      3  C   UNL     1      46.804   7.368  12.796  0.00  0.00    +0.000 A 
ATOM      4  C   UNL     1      45.728   7.920  12.093  0.00  0.00    +0.000 A 
ATOM      5  C   UNL     1      44.701   7.098  11.623  0.00  0.00    +0.000 A 
ATOM      6  C   UNL     1      44.713   5.713  11.867  0.00  0.00    +0.000 A 
ENDROOT
BRANCH   1   8
ATOM      7  C   UNL     1      46.799   3.267  13.601  0.00  0.00    +0.000 C 
ATOM      8  O   UNL     1      45.771   3.800  12.772  0.00  0.00    +0.000 OA
ENDBRANCH   1   8
BRANCH   3   9
ATOM      9  C   UNL     1      47.914   8.229  13.335  0.00  0.00    +0.000 C 
BRANCH   9  10
ATOM     10  N   UNL     1      48.848   7.462  14.119  0.00  0.00    +0.000 N 
ATOM     11  C   UNL     1      48.984   7.606  15.474  0.00  0.00    +0.000 C 
ATOM     12  O   UNL     1      48.328   8.422  16.119  0.00  0.00    +0.000 OA
ATOM     13  H   UNL     1      49.545   6.938  13.601  0.00  0.00    +0.000 HD
BRANCH  11  14
ATOM     14  C   UNL     1      49.909   6.674  16.140  0.00  0.00    +0.000 A 
ATOM     15  C   UNL     1      51.250   7.011  16.262  0.00  0.00    +0.000 A 
ATOM     16  S   UNL     1      52.176   5.852  17.103  0.00  0.00    +0.000 S 
ATOM     17  C   UNL     1      50.825   4.834  17.295  0.00  0.00    +0.000 A 
ATOM     18  N   UNL     1      50.940   3.634  17.925  0.00  0.00    +0.000 NA
ATOM     19  C   UNL     1      49.845   2.948  17.972  0.00  0.00    +0.000 A 
ATOM     20  N   UNL     1      48.646   3.361  17.454  0.00  0.00    +0.000 N 
ATOM     21  C   UNL     1      48.469   4.589  16.863  0.00  0.00    +0.000 A 
ATOM     22  O   UNL     1      47.358   4.968  16.507  0.00  0.00    +0.000 OA
ATOM     23  C   UNL     1      49.679   5.384  16.748  0.00  0.00    +0.000 A 
ATOM     24  H   UNL     1      47.821   2.786  17.544  0.00  0.00    +0.000 HD
ENDBRANCH  11  14
ENDBRANCH   9  10
ENDBRANCH   3   9
BRANCH   6  25
ATOM     25  C   UNL     1      43.533   4.873  11.422  0.00  0.00    +0.000 C 
BRANCH  25  26
ATOM     26  O   UNL     1      43.407   4.879   9.997  0.00  0.00    +0.000 OA
BRANCH  26  27
ATOM     27  C   UNL     1      44.246   3.956   9.397  0.00  0.00    +0.000 A 
ATOM     28  C   UNL     1      45.160   4.442   8.483  0.00  0.00    +0.000 A 
ATOM     29  C   UNL     1      45.996   3.522   7.870  0.00  0.00    +0.000 A 
ATOM     30  F   UNL     1      46.896   3.943   6.971  0.00  0.00    +0.000 F 
ATOM     31  C   UNL     1      45.918   2.171   8.166  0.00  0.00    +0.000 A 
ATOM     32  C   UNL     1      44.971   1.785   9.094  0.00  0.00    +0.000 A 
ATOM     33  N   UNL     1      44.132   2.644   9.705  0.00  0.00    +0.000 NA
ENDBRANCH  26  27
ENDBRANCH  25  26
ENDBRANCH   6  25
TORSDOF 7
ENDMDL
MODEL 9
REMARK VINA RESULT:    -7.147      2.598      3.780
REMARK INTER + INTRA:         -11.278
REMARK INTER:                 -10.162
REMARK INTRA:                  -1.116
REMARK UNBOUND:                -1.207
REMARK  Name = 
REMARK  8 active torsions:
REMARK  status: ('A' for Active; 'I' for Inactive)
REMARK    1  A    between atoms: C_1  and  O_2
REMARK    2  A    between atoms: O_2  and  C_3
REMARK    3  A    between atoms: C_5  and  C_6
REMARK    4  A    between atoms: C_6  and  N_7
REMARK    5  A    between atoms: C_8  and  C_10
REMARK    6  A    between atoms: C_22  and  C_23
REMARK    7  A    between atoms: C_23  and  O_24
REMARK    8  A    between atoms: O_24  and  C_25
REMARK                            x       y       z     vdW  Elec       q    Type
REMARK                         _______ _______ _______ _____ _____    ______ ____
ROOT
ATOM      1  C   UNL     1      46.217   6.106  12.574  0.00  0.00    +0.000 A 
ATOM      2  C   UNL     1      46.723   5.731  13.825  0.00  0.00    +0.000 A 
ATOM      3  C   UNL     1      46.676   4.401  14.259  0.00  0.00    +0.000 A 
ATOM      4  C   UNL     1      46.109   3.434  13.422  0.00  0.00    +0.000 A 
ATOM      5  C   UNL     1      45.590   3.800  12.178  0.00  0.00    +0.000 A 
ATOM      6  C   UNL     1      45.649   5.133  11.733  0.00  0.00    +0.000 A 
ENDROOT
BRANCH   1   8
ATOM      7  C   UNL     1      47.503   8.046  12.107  0.00  0.00    +0.000 C 
ATOM      8  O   UNL     1      46.236   7.395  12.104  0.00  0.00    +0.000 OA
ENDBRANCH   1   8
BRANCH   3   9
ATOM      9  C   UNL     1      47.263   4.035  15.595  0.00  0.00    +0.000 C 
BRANCH   9  10
ATOM     10  N   UNL     1      48.007   5.130  16.166  0.00  0.00    +0.000 N 
ATOM     11  C   UNL     1      47.849   5.548  17.460  0.00  0.00    +0.000 C 
ATOM     12  O   UNL     1      47.040   5.029  18.226  0.00  0.00    +0.000 OA
ATOM     13  H   UNL     1      48.522   5.710  15.513  0.00  0.00    +0.000 HD
BRANCH  11  14
ATOM     14  C   UNL     1      48.758   6.611  17.917  0.00  0.00    +0.000 A 
ATOM     15  C   UNL     1      48.233   7.773  18.465  0.00  0.00    +0.000 A 
ATOM     16  S   UNL     1      49.417   8.881  18.993  0.00  0.00    +0.000 S 
ATOM     17  C   UNL     1      50.678   7.867  18.465  0.00  0.00    +0.000 A 
ATOM     18  N   UNL     1      51.978   8.242  18.601  0.00  0.00    +0.000 NA
ATOM     19  C   UNL     1      52.831   7.394  18.129  0.00  0.00    +0.000 A 
ATOM     20  N   UNL     1      52.498   6.201  17.543  0.00  0.00    +0.000 N 
ATOM     21  C   UNL     1      51.204   5.753  17.439  0.00  0.00    +0.000 A 
ATOM     22  O   UNL     1      50.952   4.633  17.006  0.00  0.00    +0.000 OA
ATOM     23  C   UNL     1      50.202   6.688  17.919  0.00  0.00    +0.000 A 
ATOM     24  H   UNL     1      53.216   5.571  17.214  0.00  0.00    +0.000 HD
ENDBRANCH  11  14
ENDBRANCH   9  10
ENDBRANCH   3   9
BRANCH   6  25
ATOM     25  C   UNL     1      45.161   5.469  10.338  0.00  0.00    +0.000 C 
BRANCH  25  26
ATOM     26  O   UNL     1      44.485   4.355   9.749  0.00  0.00    +0.000 OA
BRANCH  26  27
ATOM     27  C   UNL     1      45.280   3.691   8.830  0.00  0.00    +0.000 A 
ATOM     28  C   UNL     1      45.353   2.317   8.941  0.00  0.00    +0.000 A 
ATOM     29  C   UNL     1      46.156   1.648   8.032  0.00  0.00    +0.000 A 
ATOM     30  F   UNL     1      46.265   0.314   8.102  0.00  0.00    +0.000 F 
ATOM     31  C   UNL     1      46.854   2.331   7.049  0.00  0.00    +0.000 A 
ATOM     32  C   UNL     1      46.715   3.705   7.020  0.00  0.00    +0.000 A 
ATOM     33  N   UNL     1      45.953   4.396   7.892  0.00  0.00    +0.000 NA
ENDBRANCH  26  27
ENDBRANCH  25  26
ENDBRANCH   6  25
TORSDOF 7
ENDMDL
