MODEL 1
REMARK VINA RESULT:    -7.796      0.000      0.000
REMARK INTER + INTRA:         -12.320
REMARK INTER:                 -10.986
REMARK INTRA:                  -1.334
REMARK UNBOUND:                -1.334
REMARK  Name = 
REMARK  8 active torsions:
REMARK  status: ('A' for Active; 'I' for Inactive)
REMARK    1  A    between atoms: C_1  and  O_2
REMARK    2  A    between atoms: O_2  and  C_3
REMARK    3  A    between atoms: C_10  and  C_11
REMARK    4  A    between atoms: N_13  and  C_14
REMARK    5  A    between atoms: C_14  and  C_15
REMARK    6  A    between atoms: C_18  and  N_19
REMARK    7  A    between atoms: N_19  and  C_20
REMARK    8  A    between atoms: C_20  and  C_21
REMARK                            x       y       z     vdW  Elec       q    Type
REMARK                         _______ _______ _______ _____ _____    ______ ____
ROOT
ATOM      1  C   UNL     1      46.939   4.091  14.793  0.00  0.00    +0.000 C 
ENDROOT
BRANCH   1   2
ATOM      2  C   UNL     1      46.370   4.585  13.484  0.00  0.00    +0.000 A 
ATOM      3  C   UNL     1      46.832   5.775  12.907  0.00  0.00    +0.000 A 
ATOM      4  C   UNL     1      46.471   6.125  11.598  0.00  0.00    +0.000 A 
ATOM      5  C   UNL     1      45.642   5.297  10.839  0.00  0.00    +0.000 A 
ATOM      6  C   UNL     1      45.039   4.212  11.483  0.00  0.00    +0.000 A 
ATOM      7  C   UNL     1      45.412   3.843  12.784  0.00  0.00    +0.000 A 
BRANCH   5   8
ATOM      8  N   UNL     1      45.328   5.529   9.494  0.00  0.00    +0.000 N 
ATOM      9  H   UNL     1      46.133   5.888   8.986  0.00  0.00    +0.000 HD
BRANCH   8  10
ATOM     10  C   UNL     1      44.653   4.453   8.751  0.00  0.00    +0.000 C 
BRANCH  10  11
ATOM     11  C   UNL     1      45.657   3.460   8.194  0.00  0.00    +0.000 A 
ATOM     12  C   UNL     1      46.677   3.897   7.326  0.00  0.00    +0.000 A 
ATOM     13  C   UNL     1      47.595   3.004   6.770  0.00  0.00    +0.000 A 
ATOM     14  C   UNL     1      47.508   1.646   7.060  0.00  0.00    +0.000 A 
ATOM     15  C   UNL     1      46.481   1.182   7.879  0.00  0.00    +0.000 A 
ATOM     16  C   UNL     1      45.551   2.077   8.427  0.00  0.00    +0.000 A 
ATOM     17 CL   UNL     1      44.262   1.404   9.362  0.00  0.00    +0.000 Cl
ENDBRANCH  10  11
ENDBRANCH   8  10
ENDBRANCH   5   8
ENDBRANCH   1   2
BRANCH   1  20
ATOM     18  C   UNL     1      48.335   5.034  16.588  0.00  0.00    +0.000 C 
ATOM     19  O   UNL     1      49.001   4.007  16.660  0.00  0.00    +0.000 OA
ATOM     20  N   UNL     1      47.306   5.157  15.683  0.00  0.00    +0.000 N 
ATOM     21  H   UNL     1      46.807   6.028  15.598  0.00  0.00    +0.000 HD
BRANCH  18  29
ATOM     22  C   UNL     1      48.688   8.407  16.067  0.00  0.00    +0.000 A 
ATOM     23  N   UNL     1      48.728   9.750  16.144  0.00  0.00    +0.000 NA
ATOM     24  C   UNL     1      48.806  10.302  17.359  0.00  0.00    +0.000 A 
ATOM     25  N   UNL     1      48.877   9.667  18.527  0.00  0.00    +0.000 NA
ATOM     26  C   UNL     1      48.817   8.330  18.401  0.00  0.00    +0.000 A 
ATOM     27  S   UNL     1      48.921   7.348  19.781  0.00  0.00    +0.000 S 
ATOM     28  C   UNL     1      48.742   5.935  18.850  0.00  0.00    +0.000 A 
ATOM     29  C   UNL     1      48.582   6.174  17.489  0.00  0.00    +0.000 A 
ATOM     30  C   UNL     1      48.687   7.606  17.221  0.00  0.00    +0.000 A 
BRANCH  22  32
ATOM     31  C   UNL     1      49.879   7.775  14.155  0.00  0.00    +0.000 C 
ATOM     32  O   UNL     1      48.620   7.829  14.818  0.00  0.00    +0.000 OA
ENDBRANCH  22  32
ENDBRANCH  18  29
ENDBRANCH   1  20
TORSDOF 7
ENDMDL
MODEL 2
REMARK VINA RESULT:    -7.783      1.949      3.670
REMARK INTER + INTRA:         -12.302
REMARK INTER:                 -10.849
REMARK INTRA:                  -1.453
REMARK UNBOUND:                -1.334
REMARK  Name = 
REMARK  8 active torsions:
REMARK  status: ('A' for Active; 'I' for Inactive)
REMARK    1  A    between atoms: C_1  and  O_2
REMARK    2  A    between atoms: O_2  and  C_3
REMARK    3  A    between atoms: C_10  and  C_11
REMARK    4  A    between atoms: N_13  and  C_14
REMARK    5  A    between atoms: C_14  and  C_15
REMARK    6  A    between atoms: C_18  and  N_19
REMARK    7  A    between atoms: N_19  and  C_20
REMARK    8  A    between atoms: C_20  and  C_21
REMARK                            x       y       z     vdW  Elec       q    Type
REMARK                         _______ _______ _______ _____ _____    ______ ____
ROOT
ATOM      1  C   UNL     1      48.173   8.875  14.223  0.00  0.00    +0.000 C 
ENDROOT
BRANCH   1   2
ATOM      2  C   UNL     1      47.231   8.383  13.150  0.00  0.00    +0.000 A 
ATOM      3  C   UNL     1      47.592   7.320  12.313  0.00  0.00    +0.000 A 
ATOM      4  C   UNL     1      46.648   6.720  11.468  0.00  0.00    +0.000 A 
ATOM      5  C   UNL     1      45.326   7.167  11.440  0.00  0.00    +0.000 A 
ATOM      6  C   UNL     1      45.021   8.342  12.136  0.00  0.00    +0.000 A 
ATOM      7  C   UNL     1      45.953   8.934  13.000  0.00  0.00    +0.000 A 
BRANCH   5   8
ATOM      8  N   UNL     1      44.308   6.548  10.704  0.00  0.00    +0.000 N 
ATOM      9  H   UNL     1      44.474   6.633   9.704  0.00  0.00    +0.000 HD
BRANCH   8  10
ATOM     10  C   UNL     1      43.929   5.177  11.076  0.00  0.00    +0.000 C 
BRANCH  10  11
ATOM     11  C   UNL     1      44.498   4.167  10.097  0.00  0.00    +0.000 A 
ATOM     12  C   UNL     1      45.190   4.605   8.950  0.00  0.00    +0.000 A 
ATOM     13  C   UNL     1      45.697   3.703   8.013  0.00  0.00    +0.000 A 
ATOM     14  C   UNL     1      45.512   2.336   8.193  0.00  0.00    +0.000 A 
ATOM     15  C   UNL     1      44.793   1.878   9.295  0.00  0.00    +0.000 A 
ATOM     16  C   UNL     1      44.273   2.785  10.229  0.00  0.00    +0.000 A 
ATOM     17 CL   UNL     1      43.322   2.133  11.518  0.00  0.00    +0.000 Cl
ENDBRANCH  10  11
ENDBRANCH   8  10
ENDBRANCH   5   8
ENDBRANCH   1   2
BRANCH   1  20
ATOM     18  C   UNL     1      49.368   7.130  15.483  0.00  0.00    +0.000 C 
ATOM     19  O   UNL     1      50.299   7.140  14.686  0.00  0.00    +0.000 OA
ATOM     20  N   UNL     1      48.286   7.966  15.330  0.00  0.00    +0.000 N 
ATOM     21  H   UNL     1      47.557   7.986  16.025  0.00  0.00    +0.000 HD
BRANCH  18  29
ATOM     22  C   UNL     1      47.397   4.438  16.285  0.00  0.00    +0.000 A 
ATOM     23  N   UNL     1      46.863   3.294  16.753  0.00  0.00    +0.000 NA
ATOM     24  C   UNL     1      47.400   2.763  17.856  0.00  0.00    +0.000 A 
ATOM     25  N   UNL     1      48.404   3.256  18.579  0.00  0.00    +0.000 NA
ATOM     26  C   UNL     1      48.914   4.388  18.065  0.00  0.00    +0.000 A 
ATOM     27  S   UNL     1      50.184   5.181  18.864  0.00  0.00    +0.000 S 
ATOM     28  C   UNL     1      50.259   6.381  17.660  0.00  0.00    +0.000 A 
ATOM     29  C   UNL     1      49.345   6.200  16.627  0.00  0.00    +0.000 A 
ATOM     30  C   UNL     1      48.504   5.039  16.906  0.00  0.00    +0.000 A 
BRANCH  22  32
ATOM     31  C   UNL     1      46.779   4.100  14.054  0.00  0.00    +0.000 C 
ATOM     32  O   UNL     1      46.842   4.999  15.156  0.00  0.00    +0.000 OA
ENDBRANCH  22  32
ENDBRANCH  18  29
ENDBRANCH   1  20
TORSDOF 7
ENDMDL
MODEL 3
REMARK VINA RESULT:    -7.693      1.806      3.193
REMARK INTER + INTRA:         -12.175
REMARK INTER:                 -10.935
REMARK INTRA:                  -1.240
REMARK UNBOUND:                -1.334
REMARK  Name = 
REMARK  8 active torsions:
REMARK  status: ('A' for Active; 'I' for Inactive)
REMARK    1  A    between atoms: C_1  and  O_2
REMARK    2  A    between atoms: O_2  and  C_3
REMARK    3  A    between atoms: C_10  and  C_11
REMARK    4  A    between atoms: N_13  and  C_14
REMARK    5  A    between atoms: C_14  and  C_15
REMARK    6  A    between atoms: C_18  and  N_19
REMARK    7  A    between atoms: N_19  and  C_20
REMARK    8  A    between atoms: C_20  and  C_21
REMARK                            x       y       z     vdW  Elec       q    Type
REMARK                         _______ _______ _______ _____ _____    ______ ____
ROOT
ATOM      1  C   UNL     1      47.879   6.519  13.532  0.00  0.00    +0.000 C 
ENDROOT
BRANCH   1   2
ATOM      2  C   UNL     1      46.869   5.539  12.983  0.00  0.00    +0.000 A 
ATOM      3  C   UNL     1      45.973   5.925  11.978  0.00  0.00    +0.000 A 
ATOM      4  C   UNL     1      45.187   4.972  11.315  0.00  0.00    +0.000 A 
ATOM      5  C   UNL     1      45.279   3.617  11.639  0.00  0.00    +0.000 A 
ATOM      6  C   UNL     1      46.034   3.266  12.762  0.00  0.00    +0.000 A 
ATOM      7  C   UNL     1      46.839   4.209  13.417  0.00  0.00    +0.000 A 
BRANCH   5   8
ATOM      8  N   UNL     1      44.607   2.602  10.947  0.00  0.00    +0.000 N 
ATOM      9  H   UNL     1      43.803   2.268  11.474  0.00  0.00    +0.000 HD
BRANCH   8  10
ATOM     10  C   UNL     1      44.268   2.841   9.536  0.00  0.00    +0.000 C 
BRANCH  10  11
ATOM     11  C   UNL     1      45.400   2.413   8.621  0.00  0.00    +0.000 A 
ATOM     12  C   UNL     1      45.695   1.045   8.451  0.00  0.00    +0.000 A 
ATOM     13  C   UNL     1      46.750   0.620   7.643  0.00  0.00    +0.000 A 
ATOM     14  C   UNL     1      47.548   1.555   6.992  0.00  0.00    +0.000 A 
ATOM     15  C   UNL     1      47.307   2.914   7.178  0.00  0.00    +0.000 A 
ATOM     16  C   UNL     1      46.254   3.342   8.000  0.00  0.00    +0.000 A 
ATOM     17 CL   UNL     1      46.082   5.045   8.240  0.00  0.00    +0.000 Cl
ENDBRANCH  10  11
ENDBRANCH   8  10
ENDBRANCH   5   8
ENDBRANCH   1   2
BRANCH   1  20
ATOM     18  C   UNL     1      48.964   7.051  15.677  0.00  0.00    +0.000 C 
ATOM     19  O   UNL     1      49.961   7.480  15.108  0.00  0.00    +0.000 OA
ATOM     20  N   UNL     1      47.888   6.569  14.968  0.00  0.00    +0.000 N 
ATOM     21  H   UNL     1      47.054   6.274  15.450  0.00  0.00    +0.000 HD
BRANCH  18  29
ATOM     22  C   UNL     1      48.596   4.482  17.922  0.00  0.00    +0.000 A 
ATOM     23  N   UNL     1      48.592   3.661  18.989  0.00  0.00    +0.000 NA
ATOM     24  C   UNL     1      48.714   4.213  20.200  0.00  0.00    +0.000 A 
ATOM     25  N   UNL     1      48.813   5.509  20.486  0.00  0.00    +0.000 NA
ATOM     26  C   UNL     1      48.829   6.288  19.390  0.00  0.00    +0.000 A 
ATOM     27  S   UNL     1      48.923   7.975  19.555  0.00  0.00    +0.000 S 
ATOM     28  C   UNL     1      48.930   8.190  17.867  0.00  0.00    +0.000 A 
ATOM     29  C   UNL     1      48.881   7.000  17.148  0.00  0.00    +0.000 A 
ATOM     30  C   UNL     1      48.761   5.870  18.065  0.00  0.00    +0.000 A 
BRANCH  22  32
ATOM     31  C   UNL     1      48.723   2.524  16.647  0.00  0.00    +0.000 C 
ATOM     32  O   UNL     1      48.458   3.923  16.671  0.00  0.00    +0.000 OA
ENDBRANCH  22  32
ENDBRANCH  18  29
ENDBRANCH   1  20
TORSDOF 7
ENDMDL
MODEL 4
REMARK VINA RESULT:    -7.025      1.696      2.612
REMARK INTER + INTRA:         -11.233
REMARK INTER:                 -10.426
REMARK INTRA:                  -0.807
REMARK UNBOUND:                -1.334
REMARK  Name = 
REMARK  8 active torsions:
REMARK  status: ('A' for Active; 'I' for Inactive)
REMARK    1  A    between atoms: C_1  and  O_2
REMARK    2  A    between atoms: O_2  and  C_3
REMARK    3  A    between atoms: C_10  and  C_11
REMARK    4  A    between atoms: N_13  and  C_14
REMARK    5  A    between atoms: C_14  and  C_15
REMARK    6  A    between atoms: C_18  and  N_19
REMARK    7  A    between atoms: N_19  and  C_20
REMARK    8  A    between atoms: C_20  and  C_21
REMARK                            x       y       z     vdW  Elec       q    Type
REMARK                         _______ _______ _______ _____ _____    ______ ____
ROOT
ATOM      1  C   UNL     1      47.877   7.534  13.889  0.00  0.00    +0.000 C 
ENDROOT
BRANCH   1   2
ATOM      2  C   UNL     1      47.212   6.607  12.899  0.00  0.00    +0.000 A 
ATOM      3  C   UNL     1      46.627   5.407  13.325  0.00  0.00    +0.000 A 
ATOM      4  C   UNL     1      45.824   4.653  12.457  0.00  0.00    +0.000 A 
ATOM      5  C   UNL     1      45.588   5.080  11.149  0.00  0.00    +0.000 A 
ATOM      6  C   UNL     1      46.322   6.174  10.678  0.00  0.00    +0.000 A 
ATOM      7  C   UNL     1      47.109   6.945  11.545  0.00  0.00    +0.000 A 
BRANCH   5   8
ATOM      8  N   UNL     1      44.714   4.437  10.264  0.00  0.00    +0.000 N 
ATOM      9  H   UNL     1      43.743   4.627  10.504  0.00  0.00    +0.000 HD
BRANCH   8  10
ATOM     10  C   UNL     1      44.956   4.594   8.822  0.00  0.00    +0.000 C 
BRANCH  10  11
ATOM     11  C   UNL     1      45.793   3.450   8.280  0.00  0.00    +0.000 A 
ATOM     12  C   UNL     1      46.834   3.706   7.366  0.00  0.00    +0.000 A 
ATOM     13  C   UNL     1      47.601   2.672   6.823  0.00  0.00    +0.000 A 
ATOM     14  C   UNL     1      47.335   1.352   7.172  0.00  0.00    +0.000 A 
ATOM     15  C   UNL     1      46.282   1.068   8.039  0.00  0.00    +0.000 A 
ATOM     16  C   UNL     1      45.504   2.105   8.574  0.00  0.00    +0.000 A 
ATOM     17 CL   UNL     1      44.167   1.655   9.572  0.00  0.00    +0.000 Cl
ENDBRANCH  10  11
ENDBRANCH   8  10
ENDBRANCH   5   8
ENDBRANCH   1   2
BRANCH   1  20
ATOM     18  C   UNL     1      49.050   6.577  15.831  0.00  0.00    +0.000 C 
ATOM     19  O   UNL     1      50.130   6.641  15.256  0.00  0.00    +0.000 OA
ATOM     20  N   UNL     1      47.891   7.009  15.226  0.00  0.00    +0.000 N 
ATOM     21  H   UNL     1      47.022   7.003  15.734  0.00  0.00    +0.000 HD
BRANCH  18  29
ATOM     22  C   UNL     1      47.932   7.832  18.822  0.00  0.00    +0.000 A 
ATOM     23  N   UNL     1      47.435   8.038  20.057  0.00  0.00    +0.000 NA
ATOM     24  C   UNL     1      47.444   7.010  20.911  0.00  0.00    +0.000 A 
ATOM     25  N   UNL     1      47.923   5.787  20.691  0.00  0.00    +0.000 NA
ATOM     26  C   UNL     1      48.394   5.624  19.443  0.00  0.00    +0.000 A 
ATOM     27  S   UNL     1      49.070   4.137  18.983  0.00  0.00    +0.000 S 
ATOM     28  C   UNL     1      49.355   4.699  17.403  0.00  0.00    +0.000 A 
ATOM     29  C   UNL     1      48.932   6.005  17.185  0.00  0.00    +0.000 A 
ATOM     30  C   UNL     1      48.411   6.573  18.425  0.00  0.00    +0.000 A 
BRANCH  22  32
ATOM     31  C   UNL     1      47.826  10.156  18.579  0.00  0.00    +0.000 C 
ATOM     32  O   UNL     1      47.938   8.889  17.939  0.00  0.00    +0.000 OA
ENDBRANCH  22  32
ENDBRANCH  18  29
ENDBRANCH   1  20
TORSDOF 7
ENDMDL
MODEL 5
REMARK VINA RESULT:    -6.912      1.363      2.294
REMARK INTER + INTRA:         -11.074
REMARK INTER:                 -10.308
REMARK INTRA:                  -0.766
REMARK UNBOUND:                -1.334
REMARK  Name = 
REMARK  8 active torsions:
REMARK  status: ('A' for Active; 'I' for Inactive)
REMARK    1  A    between atoms: C_1  and  O_2
REMARK    2  A    between atoms: O_2  and  C_3
REMARK    3  A    between atoms: C_10  and  C_11
REMARK    4  A    between atoms: N_13  and  C_14
REMARK    5  A    between atoms: C_14  and  C_15
REMARK    6  A    between atoms: C_18  and  N_19
REMARK    7  A    between atoms: N_19  and  C_20
REMARK    8  A    between atoms: C_20  and  C_21
REMARK                            x       y       z     vdW  Elec       q    Type
REMARK                         _______ _______ _______ _____ _____    ______ ____
ROOT
ATOM      1  C   UNL     1      47.256   4.655  14.688  0.00  0.00    +0.000 C 
ENDROOT
BRANCH   1   2
ATOM      2  C   UNL     1      46.586   4.991  13.377  0.00  0.00    +0.000 A 
ATOM      3  C   UNL     1      46.871   6.193  12.717  0.00  0.00    +0.000 A 
ATOM      4  C   UNL     1      46.425   6.413  11.405  0.00  0.00    +0.000 A 
ATOM      5  C   UNL     1      45.687   5.441  10.728  0.00  0.00    +0.000 A 
ATOM      6  C   UNL     1      45.251   4.328  11.456  0.00  0.00    +0.000 A 
ATOM      7  C   UNL     1      45.710   4.091  12.759  0.00  0.00    +0.000 A 
BRANCH   5   8
ATOM      8  N   UNL     1      45.303   5.548   9.385  0.00  0.00    +0.000 N 
ATOM      9  H   UNL     1      46.068   5.894   8.811  0.00  0.00    +0.000 HD
BRANCH   8  10
ATOM     10  C   UNL     1      44.642   4.389   8.766  0.00  0.00    +0.000 C 
BRANCH  10  11
ATOM     11  C   UNL     1      45.660   3.416   8.200  0.00  0.00    +0.000 A 
ATOM     12  C   UNL     1      46.664   3.873   7.323  0.00  0.00    +0.000 A 
ATOM     13  C   UNL     1      47.595   2.999   6.759  0.00  0.00    +0.000 A 
ATOM     14  C   UNL     1      47.537   1.639   7.049  0.00  0.00    +0.000 A 
ATOM     15  C   UNL     1      46.526   1.155   7.877  0.00  0.00    +0.000 A 
ATOM     16  C   UNL     1      45.584   2.032   8.433  0.00  0.00    +0.000 A 
ATOM     17 CL   UNL     1      44.317   1.332   9.379  0.00  0.00    +0.000 Cl
ENDBRANCH  10  11
ENDBRANCH   8  10
ENDBRANCH   5   8
ENDBRANCH   1   2
BRANCH   1  20
ATOM     18  C   UNL     1      48.579   6.572  15.484  0.00  0.00    +0.000 C 
ATOM     19  O   UNL     1      49.483   6.322  14.696  0.00  0.00    +0.000 OA
ATOM     20  N   UNL     1      47.440   5.801  15.535  0.00  0.00    +0.000 N 
ATOM     21  H   UNL     1      46.683   6.054  16.148  0.00  0.00    +0.000 HD
BRANCH  18  29
ATOM     22  C   UNL     1      49.475   6.761  18.792  0.00  0.00    +0.000 A 
ATOM     23  N   UNL     1      49.903   7.115  20.018  0.00  0.00    +0.000 NA
ATOM     24  C   UNL     1      49.931   8.417  20.316  0.00  0.00    +0.000 A 
ATOM     25  N   UNL     1      49.551   9.428  19.536  0.00  0.00    +0.000 NA
ATOM     26  C   UNL     1      49.147   9.028  18.319  0.00  0.00    +0.000 A 
ATOM     27  S   UNL     1      48.599  10.174  17.193  0.00  0.00    +0.000 S 
ATOM     28  C   UNL     1      48.342   8.971  16.018  0.00  0.00    +0.000 A 
ATOM     29  C   UNL     1      48.680   7.689  16.441  0.00  0.00    +0.000 A 
ATOM     30  C   UNL     1      49.105   7.723  17.838  0.00  0.00    +0.000 A 
BRANCH  22  32
ATOM     31  C   UNL     1      48.456   4.701  19.227  0.00  0.00    +0.000 C 
ATOM     32  O   UNL     1      49.431   5.420  18.480  0.00  0.00    +0.000 OA
ENDBRANCH  22  32
ENDBRANCH  18  29
ENDBRANCH   1  20
TORSDOF 7
ENDMDL
MODEL 6
REMARK VINA RESULT:    -6.797      4.583      8.565
REMARK INTER + INTRA:         -10.913
REMARK INTER:                  -9.626
REMARK INTRA:                  -1.287
REMARK UNBOUND:                -1.334
REMARK  Name = 
REMARK  8 active torsions:
REMARK  status: ('A' for Active; 'I' for Inactive)
REMARK    1  A    between atoms: C_1  and  O_2
REMARK    2  A    between atoms: O_2  and  C_3
REMARK    3  A    between atoms: C_10  and  C_11
REMARK    4  A    between atoms: N_13  and  C_14
REMARK    5  A    between atoms: C_14  and  C_15
REMARK    6  A    between atoms: C_18  and  N_19
REMARK    7  A    between atoms: N_19  and  C_20
REMARK    8  A    between atoms: C_20  and  C_21
REMARK                            x       y       z     vdW  Elec       q    Type
REMARK                         _______ _______ _______ _____ _____    ______ ____
ROOT
ATOM      1  C   UNL     1      47.158   3.413  17.018  0.00  0.00    +0.000 C 
ENDROOT
BRANCH   1   2
ATOM      2  C   UNL     1      48.609   3.348  17.431  0.00  0.00    +0.000 A 
ATOM      3  C   UNL     1      49.414   2.267  17.048  0.00  0.00    +0.000 A 
ATOM      4  C   UNL     1      50.802   2.304  17.240  0.00  0.00    +0.000 A 
ATOM      5  C   UNL     1      51.416   3.418  17.817  0.00  0.00    +0.000 A 
ATOM      6  C   UNL     1      50.590   4.406  18.363  0.00  0.00    +0.000 A 
ATOM      7  C   UNL     1      49.204   4.387  18.156  0.00  0.00    +0.000 A 
BRANCH   5   8
ATOM      8  N   UNL     1      52.802   3.568  17.939  0.00  0.00    +0.000 N 
ATOM      9  H   UNL     1      53.292   3.103  17.178  0.00  0.00    +0.000 HD
BRANCH   8  10
ATOM     10  C   UNL     1      53.328   4.922  18.174  0.00  0.00    +0.000 C 
BRANCH  10  11
ATOM     11  C   UNL     1      53.904   5.514  16.901  0.00  0.00    +0.000 A 
ATOM     12  C   UNL     1      55.138   5.051  16.401  0.00  0.00    +0.000 A 
ATOM     13  C   UNL     1      55.711   5.597  15.251  0.00  0.00    +0.000 A 
ATOM     14  C   UNL     1      55.069   6.632  14.578  0.00  0.00    +0.000 A 
ATOM     15  C   UNL     1      53.871   7.138  15.077  0.00  0.00    +0.000 A 
ATOM     16  C   UNL     1      53.302   6.598  16.239  0.00  0.00    +0.000 A 
ATOM     17 CL   UNL     1      51.860   7.344  16.833  0.00  0.00    +0.000 Cl
ENDBRANCH  10  11
ENDBRANCH   8  10
ENDBRANCH   5   8
ENDBRANCH   1   2
BRANCH   1  20
ATOM     18  C   UNL     1      47.034   4.136  14.668  0.00  0.00    +0.000 C 
ATOM     19  O   UNL     1      47.351   3.022  14.270  0.00  0.00    +0.000 OA
ATOM     20  N   UNL     1      46.906   4.407  16.011  0.00  0.00    +0.000 N 
ATOM     21  H   UNL     1      46.589   5.311  16.318  0.00  0.00    +0.000 HD
BRANCH  18  29
ATOM     22  C   UNL     1      44.368   5.051  12.710  0.00  0.00    +0.000 A 
ATOM     23  N   UNL     1      43.439   5.684  11.969  0.00  0.00    +0.000 NA
ATOM     24  C   UNL     1      43.768   6.862  11.430  0.00  0.00    +0.000 A 
ATOM     25  N   UNL     1      44.942   7.485  11.516  0.00  0.00    +0.000 NA
ATOM     26  C   UNL     1      45.832   6.824  12.276  0.00  0.00    +0.000 A 
ATOM     27  S   UNL     1      47.395   7.451  12.482  0.00  0.00    +0.000 S 
ATOM     28  C   UNL     1      47.830   6.165  13.508  0.00  0.00    +0.000 A 
ATOM     29  C   UNL     1      46.805   5.251  13.730  0.00  0.00    +0.000 A 
ATOM     30  C   UNL     1      45.631   5.620  12.944  0.00  0.00    +0.000 A 
BRANCH  22  32
ATOM     31  C   UNL     1      43.607   2.878  12.295  0.00  0.00    +0.000 C 
ATOM     32  O   UNL     1      44.042   3.831  13.259  0.00  0.00    +0.000 OA
ENDBRANCH  22  32
ENDBRANCH  18  29
ENDBRANCH   1  20
TORSDOF 7
ENDMDL
MODEL 7
REMARK VINA RESULT:    -6.580      3.832      4.940
REMARK INTER + INTRA:         -10.607
REMARK INTER:                  -9.337
REMARK INTRA:                  -1.270
REMARK UNBOUND:                -1.334
REMARK  Name = 
REMARK  8 active torsions:
REMARK  status: ('A' for Active; 'I' for Inactive)
REMARK    1  A    between atoms: C_1  and  O_2
REMARK    2  A    between atoms: O_2  and  C_3
REMARK    3  A    between atoms: C_10  and  C_11
REMARK    4  A    between atoms: N_13  and  C_14
REMARK    5  A    between atoms: C_14  and  C_15
REMARK    6  A    between atoms: C_18  and  N_19
REMARK    7  A    between atoms: N_19  and  C_20
REMARK    8  A    between atoms: C_20  and  C_21
REMARK                            x       y       z     vdW  Elec       q    Type
REMARK                         _______ _______ _______ _____ _____    ______ ____
ROOT
ATOM      1  C   UNL     1      47.918   3.423  17.504  0.00  0.00    +0.000 C 
ENDROOT
BRANCH   1   2
ATOM      2  C   UNL     1      47.630   4.280  16.295  0.00  0.00    +0.000 A 
ATOM      3  C   UNL     1      48.238   5.534  16.146  0.00  0.00    +0.000 A 
ATOM      4  C   UNL     1      48.149   6.234  14.935  0.00  0.00    +0.000 A 
ATOM      5  C   UNL     1      47.452   5.701  13.849  0.00  0.00    +0.000 A 
ATOM      6  C   UNL     1      46.697   4.543  14.064  0.00  0.00    +0.000 A 
ATOM      7  C   UNL     1      46.799   3.826  15.265  0.00  0.00    +0.000 A 
BRANCH   5   8
ATOM      8  N   UNL     1      47.413   6.292  12.580  0.00  0.00    +0.000 N 
ATOM      9  H   UNL     1      47.886   5.714  11.890  0.00  0.00    +0.000 HD
BRANCH   8  10
ATOM     10  C   UNL     1      46.113   6.771  12.086  0.00  0.00    +0.000 C 
BRANCH  10  11
ATOM     11  C   UNL     1      45.497   5.780  11.116  0.00  0.00    +0.000 A 
ATOM     12  C   UNL     1      46.058   5.603   9.835  0.00  0.00    +0.000 A 
ATOM     13  C   UNL     1      45.497   4.723   8.907  0.00  0.00    +0.000 A 
ATOM     14  C   UNL     1      44.349   4.007   9.233  0.00  0.00    +0.000 A 
ATOM     15  C   UNL     1      43.749   4.198  10.476  0.00  0.00    +0.000 A 
ATOM     16  C   UNL     1      44.306   5.091  11.403  0.00  0.00    +0.000 A 
ATOM     17 CL   UNL     1      43.448   5.328  12.885  0.00  0.00    +0.000 Cl
ENDBRANCH  10  11
ENDBRANCH   8  10
ENDBRANCH   5   8
ENDBRANCH   1   2
BRANCH   1  20
ATOM     18  C   UNL     1      50.105   2.388  17.053  0.00  0.00    +0.000 C 
ATOM     19  O   UNL     1      49.636   1.704  16.151  0.00  0.00    +0.000 OA
ATOM     20  N   UNL     1      49.323   3.270  17.762  0.00  0.00    +0.000 N 
ATOM     21  H   UNL     1      49.736   3.866  18.461  0.00  0.00    +0.000 HD
BRANCH  18  29
ATOM     22  C   UNL     1      52.548   4.703  17.723  0.00  0.00    +0.000 A 
ATOM     23  N   UNL     1      53.620   5.393  18.155  0.00  0.00    +0.000 NA
ATOM     24  C   UNL     1      54.676   4.696  18.586  0.00  0.00    +0.000 A 
ATOM     25  N   UNL     1      54.808   3.371  18.615  0.00  0.00    +0.000 NA
ATOM     26  C   UNL     1      53.708   2.726  18.191  0.00  0.00    +0.000 A 
ATOM     27  S   UNL     1      53.695   1.030  18.130  0.00  0.00    +0.000 S 
ATOM     28  C   UNL     1      52.086   1.012  17.577  0.00  0.00    +0.000 A 
ATOM     29  C   UNL     1      51.522   2.276  17.446  0.00  0.00    +0.000 A 
ATOM     30  C   UNL     1      52.516   3.299  17.758  0.00  0.00    +0.000 A 
BRANCH  22  32
ATOM     31  C   UNL     1      51.718   6.804  17.116  0.00  0.00    +0.000 C 
ATOM     32  O   UNL     1      51.460   5.412  17.265  0.00  0.00    +0.000 OA
ENDBRANCH  22  32
ENDBRANCH  18  29
ENDBRANCH   1  20
TORSDOF 7
ENDMDL
MODEL 8
REMARK VINA RESULT:    -6.163      4.650      8.982
REMARK INTER + INTRA:         -10.019
REMARK INTER:                  -8.751
REMARK INTRA:                  -1.269
REMARK UNBOUND:                -1.334
REMARK  Name = 
REMARK  8 active torsions:
REMARK  status: ('A' for Active; 'I' for Inactive)
REMARK    1  A    between atoms: C_1  and  O_2
REMARK    2  A    between atoms: O_2  and  C_3
REMARK    3  A    between atoms: C_10  and  C_11
REMARK    4  A    between atoms: N_13  and  C_14
REMARK    5  A    between atoms: C_14  and  C_15
REMARK    6  A    between atoms: C_18  and  N_19
REMARK    7  A    between atoms: N_19  and  C_20
REMARK    8  A    between atoms: C_20  and  C_21
REMARK                            x       y       z     vdW  Elec       q    Type
REMARK                         _______ _______ _______ _____ _____    ______ ____
ROOT
ATOM      1  C   UNL     1      47.215   3.568  16.662  0.00  0.00    +0.000 C 
ENDROOT
BRANCH   1   2
ATOM      2  C   UNL     1      47.984   4.221  17.786  0.00  0.00    +0.000 A 
ATOM      3  C   UNL     1      49.248   3.746  18.157  0.00  0.00    +0.000 A 
ATOM      4  C   UNL     1      50.056   4.474  19.043  0.00  0.00    +0.000 A 
ATOM      5  C   UNL     1      49.620   5.689  19.575  0.00  0.00    +0.000 A 
ATOM      6  C   UNL     1      48.291   6.061  19.347  0.00  0.00    +0.000 A 
ATOM      7  C   UNL     1      47.485   5.350  18.446  0.00  0.00    +0.000 A 
BRANCH   5   8
ATOM      8  N   UNL     1      50.413   6.518  20.377  0.00  0.00    +0.000 N 
ATOM      9  H   UNL     1      51.116   5.981  20.880  0.00  0.00    +0.000 HD
BRANCH   8  10
ATOM     10  C   UNL     1      50.992   7.721  19.759  0.00  0.00    +0.000 C 
BRANCH  10  11
ATOM     11  C   UNL     1      51.732   7.377  18.480  0.00  0.00    +0.000 A 
ATOM     12  C   UNL     1      51.116   7.580  17.229  0.00  0.00    +0.000 A 
ATOM     13  C   UNL     1      51.757   7.243  16.035  0.00  0.00    +0.000 A 
ATOM     14  C   UNL     1      53.030   6.682  16.064  0.00  0.00    +0.000 A 
ATOM     15  C   UNL     1      53.643   6.429  17.289  0.00  0.00    +0.000 A 
ATOM     16  C   UNL     1      52.994   6.756  18.488  0.00  0.00    +0.000 A 
ATOM     17 CL   UNL     1      53.793   6.329  19.961  0.00  0.00    +0.000 Cl
ENDBRANCH  10  11
ENDBRANCH   8  10
ENDBRANCH   5   8
ENDBRANCH   1   2
BRANCH   1  20
ATOM     18  C   UNL     1      46.785   4.237  14.332  0.00  0.00    +0.000 C 
ATOM     19  O   UNL     1      47.200   3.164  13.910  0.00  0.00    +0.000 OA
ATOM     20  N   UNL     1      46.749   4.509  15.681  0.00  0.00    +0.000 N 
ATOM     21  H   UNL     1      46.351   5.372  16.014  0.00  0.00    +0.000 HD
BRANCH  18  29
ATOM     22  C   UNL     1      43.873   4.764  12.594  0.00  0.00    +0.000 A 
ATOM     23  N   UNL     1      42.811   5.258  11.931  0.00  0.00    +0.000 NA
ATOM     24  C   UNL     1      42.934   6.464  11.368  0.00  0.00    +0.000 A 
ATOM     25  N   UNL     1      44.016   7.241  11.361  0.00  0.00    +0.000 NA
ATOM     26  C   UNL     1      45.044   6.714  12.047  0.00  0.00    +0.000 A 
ATOM     27  S   UNL     1      46.520   7.548  12.128  0.00  0.00    +0.000 S 
ATOM     28  C   UNL     1      47.205   6.343  13.114  0.00  0.00    +0.000 A 
ATOM     29  C   UNL     1      46.334   5.301  13.417  0.00  0.00    +0.000 A 
ATOM     30  C   UNL     1      45.062   5.501  12.727  0.00  0.00    +0.000 A 
BRANCH  22  32
ATOM     31  C   UNL     1      43.529   2.481  12.218  0.00  0.00    +0.000 C 
ATOM     32  O   UNL     1      43.760   3.517  13.167  0.00  0.00    +0.000 OA
ENDBRANCH  22  32
ENDBRANCH  18  29
ENDBRANCH   1  20
TORSDOF 7
ENDMDL
MODEL 9
REMARK VINA RESULT:    -6.104      5.242      8.851
REMARK INTER + INTRA:          -9.936
REMARK INTER:                  -9.024
REMARK INTRA:                  -0.912
REMARK UNBOUND:                -1.334
REMARK  Name = 
REMARK  8 active torsions:
REMARK  status: ('A' for Active; 'I' for Inactive)
REMARK    1  A    between atoms: C_1  and  O_2
REMARK    2  A    between atoms: O_2  and  C_3
REMARK    3  A    between atoms: C_10  and  C_11
REMARK    4  A    between atoms: N_13  and  C_14
REMARK    5  A    between atoms: C_14  and  C_15
REMARK    6  A    between atoms: C_18  and  N_19
REMARK    7  A    between atoms: N_19  and  C_20
REMARK    8  A    between atoms: C_20  and  C_21
REMARK                            x       y       z     vdW  Elec       q    Type
REMARK                         _______ _______ _______ _____ _____    ______ ____
ROOT
ATOM      1  C   UNL     1      47.134   3.457  16.870  0.00  0.00    +0.000 C 
ENDROOT
BRANCH   1   2
ATOM      2  C   UNL     1      48.569   3.459  17.340  0.00  0.00    +0.000 A 
ATOM      3  C   UNL     1      49.383   2.335  17.154  0.00  0.00    +0.000 A 
ATOM      4  C   UNL     1      50.765   2.404  17.386  0.00  0.00    +0.000 A 
ATOM      5  C   UNL     1      51.361   3.594  17.808  0.00  0.00    +0.000 A 
ATOM      6  C   UNL     1      50.520   4.653  18.167  0.00  0.00    +0.000 A 
ATOM      7  C   UNL     1      49.141   4.599  17.918  0.00  0.00    +0.000 A 
BRANCH   5   8
ATOM      8  N   UNL     1      52.743   3.765  17.955  0.00  0.00    +0.000 N 
ATOM      9  H   UNL     1      52.962   4.687  18.325  0.00  0.00    +0.000 HD
BRANCH   8  10
ATOM     10  C   UNL     1      53.495   2.710  18.651  0.00  0.00    +0.000 C 
BRANCH  10  11
ATOM     11  C   UNL     1      54.159   1.769  17.662  0.00  0.00    +0.000 A 
ATOM     12  C   UNL     1      53.855   0.393  17.681  0.00  0.00    +0.000 A 
ATOM     13  C   UNL     1      54.473  -0.504  16.807  0.00  0.00    +0.000 A 
ATOM     14  C   UNL     1      55.423  -0.048  15.899  0.00  0.00    +0.000 A 
ATOM     15  C   UNL     1      55.775   1.300  15.891  0.00  0.00    +0.000 A 
ATOM     16  C   UNL     1      55.163   2.199  16.777  0.00  0.00    +0.000 A 
ATOM     17 CL   UNL     1      55.723   3.834  16.754  0.00  0.00    +0.000 Cl
ENDBRANCH  10  11
ENDBRANCH   8  10
ENDBRANCH   5   8
ENDBRANCH   1   2
BRANCH   1  20
ATOM     18  C   UNL     1      46.958   4.150  14.514  0.00  0.00    +0.000 C 
ATOM     19  O   UNL     1      47.240   3.023  14.124  0.00  0.00    +0.000 OA
ATOM     20  N   UNL     1      46.874   4.442  15.856  0.00  0.00    +0.000 N 
ATOM     21  H   UNL     1      46.584   5.357  16.159  0.00  0.00    +0.000 HD
BRANCH  18  29
ATOM     22  C   UNL     1      44.240   5.125  12.659  0.00  0.00    +0.000 A 
ATOM     23  N   UNL     1      43.300   5.777  11.949  0.00  0.00    +0.000 NA
ATOM     24  C   UNL     1      43.645   6.933  11.374  0.00  0.00    +0.000 A 
ATOM     25  N   UNL     1      44.843   7.516  11.397  0.00  0.00    +0.000 NA
ATOM     26  C   UNL     1      45.742   6.837  12.129  0.00  0.00    +0.000 A 
ATOM     27  S   UNL     1      47.335   7.412  12.253  0.00  0.00    +0.000 S 
ATOM     28  C   UNL     1      47.770   6.129  13.282  0.00  0.00    +0.000 A 
ATOM     29  C   UNL     1      46.725   5.256  13.567  0.00  0.00    +0.000 A 
ATOM     30  C   UNL     1      45.531   5.653  12.827  0.00  0.00    +0.000 A 
BRANCH  22  32
ATOM     31  C   UNL     1      43.742   2.866  12.308  0.00  0.00    +0.000 C 
ATOM     32  O   UNL     1      43.897   3.926  13.245  0.00  0.00    +0.000 OA
ENDBRANCH  22  32
ENDBRANCH  18  29
ENDBRANCH   1  20
TORSDOF 7
ENDMDL
