MODEL 1
REMARK VINA RESULT:    -8.129      0.000      0.000
REMARK INTER + INTRA:         -12.959
REMARK INTER:                 -11.931
REMARK INTRA:                  -1.028
REMARK UNBOUND:                -1.028
REMARK  Name = 
REMARK  9 active torsions:
REMARK  status: ('A' for Active; 'I' for Inactive)
REMARK    1  A    between atoms: C_1  and  C_2
REMARK    2  A    between atoms: C_2  and  C_3
REMARK    3  A    between atoms: C_3  and  N_4
REMARK    4  A    between atoms: C_3  and  C_26
REMARK    5  A    between atoms: N_4  and  C_5
REMARK    6  A    between atoms: C_5  and  C_6
REMARK    7  A    between atoms: C_9  and  C_10
REMARK    8  A    between atoms: C_10  and  N_11
REMARK    9  A    between atoms: C_12  and  C_14
REMARK                            x       y       z     vdW  Elec       q    Type
REMARK                         _______ _______ _______ _____ _____    ______ ____
ROOT
ATOM      1  C   UNL     1      44.247   6.599  11.783  0.00  0.00    +0.000 A 
ATOM      2  C   UNL     1      44.581   7.909  11.407  0.00  0.00    +0.000 A 
ATOM      3  C   UNL     1      45.665   8.564  11.995  0.00  0.00    +0.000 A 
ATOM      4  C   UNL     1      46.434   7.919  12.970  0.00  0.00    +0.000 A 
ATOM      5  C   UNL     1      46.077   6.624  13.371  0.00  0.00    +0.000 A 
ATOM      6  C   UNL     1      44.996   5.968  12.782  0.00  0.00    +0.000 A 
ENDROOT
BRANCH   1   7
ATOM      7  C   UNL     1      43.054   5.916  11.161  0.00  0.00    +0.000 C 
BRANCH   7   8
ATOM      8  N   UNL     1      43.415   5.151   9.957  0.00  0.00    +0.000 NA
ATOM      9  H   UNL     1      43.937   5.777   9.340  0.00  0.00    +0.000 HD
BRANCH   8  10
ATOM     10  C   UNL     1      44.293   3.999  10.274  0.00  0.00    +0.000 C 
BRANCH  10  11
ATOM     11  C   UNL     1      45.019   3.428   9.045  0.00  0.00    +0.000 A 
ATOM     12  C   UNL     1      45.293   2.062   8.941  0.00  0.00    +0.000 A 
ATOM     13  C   UNL     1      46.276   1.637   8.048  0.00  0.00    +0.000 A 
ATOM     14  C   UNL     1      46.914   2.568   7.236  0.00  0.00    +0.000 A 
ATOM     15  C   UNL     1      46.503   3.885   7.316  0.00  0.00    +0.000 A 
ATOM     16  N   UNL     1      45.583   4.336   8.202  0.00  0.00    +0.000 NA
ENDBRANCH  10  11
BRANCH  10  18
ATOM     17  C   UNL     1      43.706   2.795  12.479  0.00  0.00    +0.000 C 
ATOM     18  C   UNL     1      43.512   2.854  10.971  0.00  0.00    +0.000 C 
ENDBRANCH  10  18
ENDBRANCH   8  10
ENDBRANCH   7   8
ENDBRANCH   1   7
BRANCH   4  19
ATOM     19  C   UNL     1      47.604   8.605  13.622  0.00  0.00    +0.000 C 
BRANCH  19  20
ATOM     20  N   UNL     1      47.893   8.023  14.907  0.00  0.00    +0.000 N 
ATOM     21  C   UNL     1      48.961   7.184  15.082  0.00  0.00    +0.000 C 
ATOM     22  O   UNL     1      49.731   6.905  14.171  0.00  0.00    +0.000 OA
ATOM     23  H   UNL     1      47.135   8.010  15.582  0.00  0.00    +0.000 HD
BRANCH  21  24
ATOM     24  C   UNL     1      49.172   6.686  16.446  0.00  0.00    +0.000 A 
ATOM     25  C   UNL     1      49.838   7.477  17.372  0.00  0.00    +0.000 A 
ATOM     26  S   UNL     1      49.951   6.769  18.920  0.00  0.00    +0.000 S 
ATOM     27  C   UNL     1      49.157   5.356  18.392  0.00  0.00    +0.000 A 
ATOM     28  N   UNL     1      48.947   4.313  19.241  0.00  0.00    +0.000 NA
ATOM     29  C   UNL     1      48.365   3.292  18.693  0.00  0.00    +0.000 A 
ATOM     30  N   UNL     1      47.958   3.235  17.392  0.00  0.00    +0.000 N 
ATOM     31  C   UNL     1      48.116   4.279  16.504  0.00  0.00    +0.000 A 
ATOM     32  O   UNL     1      47.709   4.200  15.351  0.00  0.00    +0.000 OA
ATOM     33  C   UNL     1      48.790   5.435  17.061  0.00  0.00    +0.000 A 
ATOM     34  H   UNL     1      47.497   2.414  17.023  0.00  0.00    +0.000 HD
ENDBRANCH  21  24
ENDBRANCH  19  20
ENDBRANCH   4  19
TORSDOF 8
ENDMDL
MODEL 2
REMARK VINA RESULT:    -7.587      2.775      3.548
REMARK INTER + INTRA:         -12.164
REMARK INTER:                 -10.949
REMARK INTRA:                  -1.214
REMARK UNBOUND:                -1.028
REMARK  Name = 
REMARK  9 active torsions:
REMARK  status: ('A' for Active; 'I' for Inactive)
REMARK    1  A    between atoms: C_1  and  C_2
REMARK    2  A    between atoms: C_2  and  C_3
REMARK    3  A    between atoms: C_3  and  N_4
REMARK    4  A    between atoms: C_3  and  C_26
REMARK    5  A    between atoms: N_4  and  C_5
REMARK    6  A    between atoms: C_5  and  C_6
REMARK    7  A    between atoms: C_9  and  C_10
REMARK    8  A    between atoms: C_10  and  N_11
REMARK    9  A    between atoms: C_12  and  C_14
REMARK                            x       y       z     vdW  Elec       q    Type
REMARK                         _______ _______ _______ _____ _____    ______ ____
ROOT
ATOM      1  C   UNL     1      46.667   4.523  13.678  0.00  0.00    +0.000 A 
ATOM      2  C   UNL     1      47.364   5.680  13.300  0.00  0.00    +0.000 A 
ATOM      3  C   UNL     1      48.190   6.343  14.210  0.00  0.00    +0.000 A 
ATOM      4  C   UNL     1      48.331   5.859  15.516  0.00  0.00    +0.000 A 
ATOM      5  C   UNL     1      47.605   4.724  15.903  0.00  0.00    +0.000 A 
ATOM      6  C   UNL     1      46.782   4.060  14.992  0.00  0.00    +0.000 A 
ENDROOT
BRANCH   1   7
ATOM      7  C   UNL     1      45.755   3.836  12.691  0.00  0.00    +0.000 C 
BRANCH   7   8
ATOM      8  N   UNL     1      45.543   4.638  11.476  0.00  0.00    +0.000 NA
ATOM      9  H   UNL     1      46.426   4.659  10.963  0.00  0.00    +0.000 HD
BRANCH   8  10
ATOM     10  C   UNL     1      44.521   4.037  10.585  0.00  0.00    +0.000 C 
BRANCH  10  11
ATOM     11  C   UNL     1      45.102   3.485   9.274  0.00  0.00    +0.000 A 
ATOM     12  C   UNL     1      45.311   2.115   9.099  0.00  0.00    +0.000 A 
ATOM     13  C   UNL     1      46.186   1.688   8.101  0.00  0.00    +0.000 A 
ATOM     14  C   UNL     1      46.779   2.624   7.262  0.00  0.00    +0.000 A 
ATOM     15  C   UNL     1      46.429   3.952   7.424  0.00  0.00    +0.000 A 
ATOM     16  N   UNL     1      45.617   4.402   8.410  0.00  0.00    +0.000 NA
ENDBRANCH  10  11
BRANCH  10  18
ATOM     17  C   UNL     1      42.867   5.821  11.446  0.00  0.00    +0.000 C 
ATOM     18  C   UNL     1      43.389   5.043  10.247  0.00  0.00    +0.000 C 
ENDBRANCH  10  18
ENDBRANCH   8  10
ENDBRANCH   7   8
ENDBRANCH   1   7
BRANCH   4  19
ATOM     19  C   UNL     1      49.211   6.557  16.517  0.00  0.00    +0.000 C 
BRANCH  19  20
ATOM     20  N   UNL     1      50.296   5.707  16.932  0.00  0.00    +0.000 N 
ATOM     21  C   UNL     1      50.497   5.407  18.253  0.00  0.00    +0.000 C 
ATOM     22  O   UNL     1      49.759   5.823  19.139  0.00  0.00    +0.000 OA
ATOM     23  H   UNL     1      51.060   5.589  16.275  0.00  0.00    +0.000 HD
BRANCH  21  24
ATOM     24  C   UNL     1      51.613   4.500  18.545  0.00  0.00    +0.000 A 
ATOM     25  C   UNL     1      52.680   4.947  19.313  0.00  0.00    +0.000 A 
ATOM     26  S   UNL     1      53.863   3.751  19.599  0.00  0.00    +0.000 S 
ATOM     27  C   UNL     1      53.014   2.609  18.662  0.00  0.00    +0.000 A 
ATOM     28  N   UNL     1      53.506   1.353  18.474  0.00  0.00    +0.000 NA
ATOM     29  C   UNL     1      52.773   0.605  17.711  0.00  0.00    +0.000 A 
ATOM     30  N   UNL     1      51.592   0.991  17.146  0.00  0.00    +0.000 N 
ATOM     31  C   UNL     1      51.036   2.239  17.336  0.00  0.00    +0.000 A 
ATOM     32  O   UNL     1      49.957   2.537  16.836  0.00  0.00    +0.000 OA
ATOM     33  C   UNL     1      51.834   3.126  18.160  0.00  0.00    +0.000 A 
ATOM     34  H   UNL     1      51.057   0.357  16.568  0.00  0.00    +0.000 HD
ENDBRANCH  21  24
ENDBRANCH  19  20
ENDBRANCH   4  19
TORSDOF 8
ENDMDL
MODEL 3
REMARK VINA RESULT:    -7.219      3.010      4.173
REMARK INTER + INTRA:         -11.624
REMARK INTER:                 -10.118
REMARK INTRA:                  -1.506
REMARK UNBOUND:                -1.028
REMARK  Name = 
REMARK  9 active torsions:
REMARK  status: ('A' for Active; 'I' for Inactive)
REMARK    1  A    between atoms: C_1  and  C_2
REMARK    2  A    between atoms: C_2  and  C_3
REMARK    3  A    between atoms: C_3  and  N_4
REMARK    4  A    between atoms: C_3  and  C_26
REMARK    5  A    between atoms: N_4  and  C_5
REMARK    6  A    between atoms: C_5  and  C_6
REMARK    7  A    between atoms: C_9  and  C_10
REMARK    8  A    between atoms: C_10  and  N_11
REMARK    9  A    between atoms: C_12  and  C_14
REMARK                            x       y       z     vdW  Elec       q    Type
REMARK                         _______ _______ _______ _____ _____    ______ ____
ROOT
ATOM      1  C   UNL     1      47.237   5.108  14.147  0.00  0.00    +0.000 A 
ATOM      2  C   UNL     1      48.003   6.283  14.166  0.00  0.00    +0.000 A 
ATOM      3  C   UNL     1      48.674   6.677  15.327  0.00  0.00    +0.000 A 
ATOM      4  C   UNL     1      48.587   5.901  16.488  0.00  0.00    +0.000 A 
ATOM      5  C   UNL     1      47.791   4.747  16.478  0.00  0.00    +0.000 A 
ATOM      6  C   UNL     1      47.124   4.352  15.318  0.00  0.00    +0.000 A 
ENDROOT
BRANCH   1   7
ATOM      7  C   UNL     1      46.494   4.713  12.894  0.00  0.00    +0.000 C 
BRANCH   7   8
ATOM      8  N   UNL     1      45.059   5.026  12.976  0.00  0.00    +0.000 NA
ATOM      9  H   UNL     1      44.932   5.692  13.741  0.00  0.00    +0.000 HD
BRANCH   8  10
ATOM     10  C   UNL     1      44.558   5.667  11.736  0.00  0.00    +0.000 C 
BRANCH  10  11
ATOM     11  C   UNL     1      44.564   4.729  10.518  0.00  0.00    +0.000 A 
ATOM     12  C   UNL     1      44.012   3.448  10.593  0.00  0.00    +0.000 A 
ATOM     13  C   UNL     1      44.378   2.499   9.640  0.00  0.00    +0.000 A 
ATOM     14  C   UNL     1      45.229   2.862   8.602  0.00  0.00    +0.000 A 
ATOM     15  C   UNL     1      45.638   4.180   8.532  0.00  0.00    +0.000 A 
ATOM     16  N   UNL     1      45.334   5.115   9.465  0.00  0.00    +0.000 NA
ENDBRANCH  10  11
BRANCH  10  18
ATOM     17  C   UNL     1      45.187   8.085  12.381  0.00  0.00    +0.000 C 
ATOM     18  C   UNL     1      45.362   6.947  11.386  0.00  0.00    +0.000 C 
ENDBRANCH  10  18
ENDBRANCH   8  10
ENDBRANCH   7   8
ENDBRANCH   1   7
BRANCH   4  19
ATOM     19  C   UNL     1      49.296   6.305  17.752  0.00  0.00    +0.000 C 
BRANCH  19  20
ATOM     20  N   UNL     1      50.291   5.332  18.120  0.00  0.00    +0.000 N 
ATOM     21  C   UNL     1      51.543   5.352  17.565  0.00  0.00    +0.000 C 
ATOM     22  O   UNL     1      51.886   6.202  16.752  0.00  0.00    +0.000 OA
ATOM     23  H   UNL     1      49.955   4.480  18.558  0.00  0.00    +0.000 HD
BRANCH  21  24
ATOM     24  C   UNL     1      52.479   4.330  18.049  0.00  0.00    +0.000 A 
ATOM     25  C   UNL     1      53.641   4.717  18.702  0.00  0.00    +0.000 A 
ATOM     26  S   UNL     1      54.589   3.405  19.244  0.00  0.00    +0.000 S 
ATOM     27  C   UNL     1      53.502   2.274  18.578  0.00  0.00    +0.000 A 
ATOM     28  N   UNL     1      53.740   0.937  18.670  0.00  0.00    +0.000 NA
ATOM     29  C   UNL     1      52.848   0.198  18.087  0.00  0.00    +0.000 A 
ATOM     30  N   UNL     1      51.740   0.674  17.450  0.00  0.00    +0.000 N 
ATOM     31  C   UNL     1      51.437   2.017  17.362  0.00  0.00    +0.000 A 
ATOM     32  O   UNL     1      50.414   2.403  16.808  0.00  0.00    +0.000 OA
ATOM     33  C   UNL     1      52.420   2.889  17.973  0.00  0.00    +0.000 A 
ATOM     34  H   UNL     1      51.071   0.046  17.024  0.00  0.00    +0.000 HD
ENDBRANCH  21  24
ENDBRANCH  19  20
ENDBRANCH   4  19
TORSDOF 8
ENDMDL
MODEL 4
REMARK VINA RESULT:    -7.208      2.871      8.245
REMARK INTER + INTRA:         -11.606
REMARK INTER:                  -9.783
REMARK INTRA:                  -1.823
REMARK UNBOUND:                -1.028
REMARK  Name = 
REMARK  9 active torsions:
REMARK  status: ('A' for Active; 'I' for Inactive)
REMARK    1  A    between atoms: C_1  and  C_2
REMARK    2  A    between atoms: C_2  and  C_3
REMARK    3  A    between atoms: C_3  and  N_4
REMARK    4  A    between atoms: C_3  and  C_26
REMARK    5  A    between atoms: N_4  and  C_5
REMARK    6  A    between atoms: C_5  and  C_6
REMARK    7  A    between atoms: C_9  and  C_10
REMARK    8  A    between atoms: C_10  and  N_11
REMARK    9  A    between atoms: C_12  and  C_14
REMARK                            x       y       z     vdW  Elec       q    Type
REMARK                         _______ _______ _______ _____ _____    ______ ____
ROOT
ATOM      1  C   UNL     1      49.932   8.139  15.581  0.00  0.00    +0.000 A 
ATOM      2  C   UNL     1      50.619   7.789  14.410  0.00  0.00    +0.000 A 
ATOM      3  C   UNL     1      49.949   7.715  13.186  0.00  0.00    +0.000 A 
ATOM      4  C   UNL     1      48.579   7.989  13.116  0.00  0.00    +0.000 A 
ATOM      5  C   UNL     1      47.886   8.302  14.294  0.00  0.00    +0.000 A 
ATOM      6  C   UNL     1      48.556   8.379  15.515  0.00  0.00    +0.000 A 
ENDROOT
BRANCH   1   7
ATOM      7  C   UNL     1      50.664   8.184  16.900  0.00  0.00    +0.000 C 
BRANCH   7   8
ATOM      8  N   UNL     1      50.171   7.171  17.846  0.00  0.00    +0.000 NA
ATOM      9  H   UNL     1      49.150   7.178  17.801  0.00  0.00    +0.000 HD
BRANCH   8  10
ATOM     10  C   UNL     1      50.626   5.806  17.484  0.00  0.00    +0.000 C 
BRANCH  10  11
ATOM     11  C   UNL     1      49.471   4.836  17.189  0.00  0.00    +0.000 A 
ATOM     12  C   UNL     1      48.141   5.225  17.362  0.00  0.00    +0.000 A 
ATOM     13  C   UNL     1      47.160   4.241  17.478  0.00  0.00    +0.000 A 
ATOM     14  C   UNL     1      47.513   2.902  17.355  0.00  0.00    +0.000 A 
ATOM     15  C   UNL     1      48.832   2.604  17.067  0.00  0.00    +0.000 A 
ATOM     16  N   UNL     1      49.815   3.533  16.990  0.00  0.00    +0.000 NA
ENDBRANCH  10  11
BRANCH  10  18
ATOM     17  C   UNL     1      50.933   5.246  19.984  0.00  0.00    +0.000 C 
ATOM     18  C   UNL     1      51.529   5.189  18.585  0.00  0.00    +0.000 C 
ENDBRANCH  10  18
ENDBRANCH   8  10
ENDBRANCH   7   8
ENDBRANCH   1   7
BRANCH   4  19
ATOM     19  C   UNL     1      47.833   7.912  11.811  0.00  0.00    +0.000 C 
BRANCH  19  20
ATOM     20  N   UNL     1      47.074   6.692  11.722  0.00  0.00    +0.000 N 
ATOM     21  C   UNL     1      45.705   6.703  11.759  0.00  0.00    +0.000 C 
ATOM     22  O   UNL     1      45.060   7.742  11.847  0.00  0.00    +0.000 OA
ATOM     23  H   UNL     1      47.569   5.830  11.930  0.00  0.00    +0.000 HD
BRANCH  21  24
ATOM     24  C   UNL     1      45.046   5.399  11.621  0.00  0.00    +0.000 A 
ATOM     25  C   UNL     1      44.364   4.854  12.701  0.00  0.00    +0.000 A 
ATOM     26  S   UNL     1      43.615   3.361  12.353  0.00  0.00    +0.000 S 
ATOM     27  C   UNL     1      44.219   3.367  10.760  0.00  0.00    +0.000 A 
ATOM     28  N   UNL     1      43.960   2.335   9.910  0.00  0.00    +0.000 NA
ATOM     29  C   UNL     1      44.514   2.457   8.743  0.00  0.00    +0.000 A 
ATOM     30  N   UNL     1      45.274   3.520   8.351  0.00  0.00    +0.000 N 
ATOM     31  C   UNL     1      45.534   4.605   9.163  0.00  0.00    +0.000 A 
ATOM     32  O   UNL     1      46.196   5.555   8.763  0.00  0.00    +0.000 OA
ATOM     33  C   UNL     1      44.961   4.503  10.491  0.00  0.00    +0.000 A 
ATOM     34  H   UNL     1      45.670   3.565   7.422  0.00  0.00    +0.000 HD
ENDBRANCH  21  24
ENDBRANCH  19  20
ENDBRANCH   4  19
TORSDOF 8
ENDMDL
MODEL 5
REMARK VINA RESULT:    -7.052      1.732      2.158
REMARK INTER + INTRA:         -11.378
REMARK INTER:                 -10.105
REMARK INTRA:                  -1.273
REMARK UNBOUND:                -1.028
REMARK  Name = 
REMARK  9 active torsions:
REMARK  status: ('A' for Active; 'I' for Inactive)
REMARK    1  A    between atoms: C_1  and  C_2
REMARK    2  A    between atoms: C_2  and  C_3
REMARK    3  A    between atoms: C_3  and  N_4
REMARK    4  A    between atoms: C_3  and  C_26
REMARK    5  A    between atoms: N_4  and  C_5
REMARK    6  A    between atoms: C_5  and  C_6
REMARK    7  A    between atoms: C_9  and  C_10
REMARK    8  A    between atoms: C_10  and  N_11
REMARK    9  A    between atoms: C_12  and  C_14
REMARK                            x       y       z     vdW  Elec       q    Type
REMARK                         _______ _______ _______ _____ _____    ______ ____
ROOT
ATOM      1  C   UNL     1      45.507   7.205  11.906  0.00  0.00    +0.000 A 
ATOM      2  C   UNL     1      46.777   6.625  11.768  0.00  0.00    +0.000 A 
ATOM      3  C   UNL     1      47.927   7.344  12.102  0.00  0.00    +0.000 A 
ATOM      4  C   UNL     1      47.826   8.656  12.578  0.00  0.00    +0.000 A 
ATOM      5  C   UNL     1      46.558   9.246  12.680  0.00  0.00    +0.000 A 
ATOM      6  C   UNL     1      45.409   8.528  12.350  0.00  0.00    +0.000 A 
ENDROOT
BRANCH   1   7
ATOM      7  C   UNL     1      44.276   6.426  11.512  0.00  0.00    +0.000 C 
BRANCH   7   8
ATOM      8  N   UNL     1      44.453   5.713  10.237  0.00  0.00    +0.000 NA
ATOM      9  H   UNL     1      45.273   6.109   9.774  0.00  0.00    +0.000 HD
BRANCH   8  10
ATOM     10  C   UNL     1      44.708   4.266  10.441  0.00  0.00    +0.000 C 
BRANCH  10  11
ATOM     11  C   UNL     1      45.211   3.550   9.178  0.00  0.00    +0.000 A 
ATOM     12  C   UNL     1      45.303   2.157   9.127  0.00  0.00    +0.000 A 
ATOM     13  C   UNL     1      46.116   1.569   8.160  0.00  0.00    +0.000 A 
ATOM     14  C   UNL     1      46.765   2.372   7.228  0.00  0.00    +0.000 A 
ATOM     15  C   UNL     1      46.529   3.734   7.272  0.00  0.00    +0.000 A 
ATOM     16  N   UNL     1      45.779   4.339   8.224  0.00  0.00    +0.000 NA
ENDBRANCH  10  11
BRANCH  10  18
ATOM     17  C   UNL     1      43.640   2.857  12.320  0.00  0.00    +0.000 C 
ATOM     18  C   UNL     1      43.449   3.528  10.968  0.00  0.00    +0.000 C 
ENDBRANCH  10  18
ENDBRANCH   8  10
ENDBRANCH   7   8
ENDBRANCH   1   7
BRANCH   4  19
ATOM     19  C   UNL     1      49.049   9.453  12.941  0.00  0.00    +0.000 C 
BRANCH  19  20
ATOM     20  N   UNL     1      49.682   8.920  14.119  0.00  0.00    +0.000 N 
ATOM     21  C   UNL     1      50.907   8.310  14.053  0.00  0.00    +0.000 C 
ATOM     22  O   UNL     1      51.531   8.207  13.003  0.00  0.00    +0.000 OA
ATOM     23  H   UNL     1      49.083   8.744  14.919  0.00  0.00    +0.000 HD
BRANCH  21  24
ATOM     24  C   UNL     1      51.463   7.842  15.327  0.00  0.00    +0.000 A 
ATOM     25  C   UNL     1      52.707   8.297  15.743  0.00  0.00    +0.000 A 
ATOM     26  S   UNL     1      53.180   7.696  17.268  0.00  0.00    +0.000 S 
ATOM     27  C   UNL     1      51.758   6.765  17.402  0.00  0.00    +0.000 A 
ATOM     28  N   UNL     1      51.541   5.973  18.489  0.00  0.00    +0.000 NA
ATOM     29  C   UNL     1      50.436   5.295  18.438  0.00  0.00    +0.000 A 
ATOM     30  N   UNL     1      49.531   5.360  17.419  0.00  0.00    +0.000 N 
ATOM     31  C   UNL     1      49.690   6.173  16.317  0.00  0.00    +0.000 A 
ATOM     32  O   UNL     1      48.838   6.226  15.437  0.00  0.00    +0.000 OA
ATOM     33  C   UNL     1      50.926   6.931  16.311  0.00  0.00    +0.000 A 
ATOM     34  H   UNL     1      48.679   4.815  17.442  0.00  0.00    +0.000 HD
ENDBRANCH  21  24
ENDBRANCH  19  20
ENDBRANCH   4  19
TORSDOF 8
ENDMDL
MODEL 6
REMARK VINA RESULT:    -6.954      1.591      2.325
REMARK INTER + INTRA:         -11.235
REMARK INTER:                 -11.370
REMARK INTRA:                   0.135
REMARK UNBOUND:                -1.028
REMARK  Name = 
REMARK  9 active torsions:
REMARK  status: ('A' for Active; 'I' for Inactive)
REMARK    1  A    between atoms: C_1  and  C_2
REMARK    2  A    between atoms: C_2  and  C_3
REMARK    3  A    between atoms: C_3  and  N_4
REMARK    4  A    between atoms: C_3  and  C_26
REMARK    5  A    between atoms: N_4  and  C_5
REMARK    6  A    between atoms: C_5  and  C_6
REMARK    7  A    between atoms: C_9  and  C_10
REMARK    8  A    between atoms: C_10  and  N_11
REMARK    9  A    between atoms: C_12  and  C_14
REMARK                            x       y       z     vdW  Elec       q    Type
REMARK                         _______ _______ _______ _____ _____    ______ ____
ROOT
ATOM      1  C   UNL     1      45.150   4.611  12.342  0.00  0.00    +0.000 A 
ATOM      2  C   UNL     1      46.424   4.221  12.781  0.00  0.00    +0.000 A 
ATOM      3  C   UNL     1      47.318   5.161  13.299  0.00  0.00    +0.000 A 
ATOM      4  C   UNL     1      46.952   6.508  13.385  0.00  0.00    +0.000 A 
ATOM      5  C   UNL     1      45.693   6.903  12.912  0.00  0.00    +0.000 A 
ATOM      6  C   UNL     1      44.799   5.964  12.398  0.00  0.00    +0.000 A 
ENDROOT
BRANCH   1   7
ATOM      7  C   UNL     1      44.208   3.588  11.757  0.00  0.00    +0.000 C 
BRANCH   7   8
ATOM      8  N   UNL     1      44.896   2.643  10.864  0.00  0.00    +0.000 NA
ATOM      9  H   UNL     1      44.537   1.709  11.069  0.00  0.00    +0.000 HD
BRANCH   8  10
ATOM     10  C   UNL     1      44.619   2.927   9.435  0.00  0.00    +0.000 C 
BRANCH  10  11
ATOM     11  C   UNL     1      45.727   2.439   8.489  0.00  0.00    +0.000 A 
ATOM     12  C   UNL     1      46.169   3.233   7.427  0.00  0.00    +0.000 A 
ATOM     13  C   UNL     1      46.858   2.631   6.375  0.00  0.00    +0.000 A 
ATOM     14  C   UNL     1      47.148   1.272   6.434  0.00  0.00    +0.000 A 
ATOM     15  C   UNL     1      46.780   0.580   7.573  0.00  0.00    +0.000 A 
ATOM     16  N   UNL     1      46.073   1.127   8.591  0.00  0.00    +0.000 NA
ENDBRANCH  10  11
BRANCH  10  18
ATOM     17  C   UNL     1      45.647   5.274   9.128  0.00  0.00    +0.000 C 
ATOM     18  C   UNL     1      44.376   4.439   9.185  0.00  0.00    +0.000 C 
ENDBRANCH  10  18
ENDBRANCH   8  10
ENDBRANCH   7   8
ENDBRANCH   1   7
BRANCH   4  19
ATOM     19  C   UNL     1      47.898   7.542  13.935  0.00  0.00    +0.000 C 
BRANCH  19  20
ATOM     20  N   UNL     1      47.906   7.521  15.374  0.00  0.00    +0.000 N 
ATOM     21  C   UNL     1      48.912   6.904  16.070  0.00  0.00    +0.000 C 
ATOM     22  O   UNL     1      49.859   6.364  15.511  0.00  0.00    +0.000 OA
ATOM     23  H   UNL     1      47.021   7.703  15.838  0.00  0.00    +0.000 HD
BRANCH  21  24
ATOM     24  C   UNL     1      48.826   6.984  17.533  0.00  0.00    +0.000 A 
ATOM     25  C   UNL     1      48.839   8.225  18.156  0.00  0.00    +0.000 A 
ATOM     26  S   UNL     1      48.680   8.138  19.852  0.00  0.00    +0.000 S 
ATOM     27  C   UNL     1      48.641   6.435  19.817  0.00  0.00    +0.000 A 
ATOM     28  N   UNL     1      48.541   5.713  20.967  0.00  0.00    +0.000 NA
ATOM     29  C   UNL     1      48.559   4.429  20.791  0.00  0.00    +0.000 A 
ATOM     30  N   UNL     1      48.643   3.812  19.576  0.00  0.00    +0.000 N 
ATOM     31  C   UNL     1      48.710   4.499  18.383  0.00  0.00    +0.000 A 
ATOM     32  O   UNL     1      48.753   3.908  17.310  0.00  0.00    +0.000 OA
ATOM     33  C   UNL     1      48.723   5.942  18.527  0.00  0.00    +0.000 A 
ATOM     34  H   UNL     1      48.640   2.804  19.501  0.00  0.00    +0.000 HD
ENDBRANCH  21  24
ENDBRANCH  19  20
ENDBRANCH   4  19
TORSDOF 8
ENDMDL
MODEL 7
REMARK VINA RESULT:    -6.807      2.001      2.524
REMARK INTER + INTRA:         -11.018
REMARK INTER:                 -10.616
REMARK INTRA:                  -0.402
REMARK UNBOUND:                -1.028
REMARK  Name = 
REMARK  9 active torsions:
REMARK  status: ('A' for Active; 'I' for Inactive)
REMARK    1  A    between atoms: C_1  and  C_2
REMARK    2  A    between atoms: C_2  and  C_3
REMARK    3  A    between atoms: C_3  and  N_4
REMARK    4  A    between atoms: C_3  and  C_26
REMARK    5  A    between atoms: N_4  and  C_5
REMARK    6  A    between atoms: C_5  and  C_6
REMARK    7  A    between atoms: C_9  and  C_10
REMARK    8  A    between atoms: C_10  and  N_11
REMARK    9  A    between atoms: C_12  and  C_14
REMARK                            x       y       z     vdW  Elec       q    Type
REMARK                         _______ _______ _______ _____ _____    ______ ____
ROOT
ATOM      1  C   UNL     1      45.139   4.460  12.373  0.00  0.00    +0.000 A 
ATOM      2  C   UNL     1      46.387   4.139  12.929  0.00  0.00    +0.000 A 
ATOM      3  C   UNL     1      47.201   5.135  13.475  0.00  0.00    +0.000 A 
ATOM      4  C   UNL     1      46.780   6.469  13.471  0.00  0.00    +0.000 A 
ATOM      5  C   UNL     1      45.550   6.793  12.882  0.00  0.00    +0.000 A 
ATOM      6  C   UNL     1      44.736   5.799  12.340  0.00  0.00    +0.000 A 
ENDROOT
BRANCH   1   7
ATOM      7  C   UNL     1      44.286   3.377  11.760  0.00  0.00    +0.000 C 
BRANCH   7   8
ATOM      8  N   UNL     1      44.989   2.654  10.689  0.00  0.00    +0.000 NA
ATOM      9  H   UNL     1      44.776   1.660  10.798  0.00  0.00    +0.000 HD
BRANCH   8  10
ATOM     10  C   UNL     1      44.524   3.066   9.342  0.00  0.00    +0.000 C 
BRANCH  10  11
ATOM     11  C   UNL     1      45.349   2.458   8.198  0.00  0.00    +0.000 A 
ATOM     12  C   UNL     1      46.058   1.266   8.374  0.00  0.00    +0.000 A 
ATOM     13  C   UNL     1      47.090   0.957   7.490  0.00  0.00    +0.000 A 
ATOM     14  C   UNL     1      47.350   1.803   6.417  0.00  0.00    +0.000 A 
ATOM     15  C   UNL     1      46.528   2.901   6.244  0.00  0.00    +0.000 A 
ATOM     16  N   UNL     1      45.545   3.250   7.109  0.00  0.00    +0.000 NA
ENDBRANCH  10  11
BRANCH  10  18
ATOM     17  C   UNL     1      45.895   5.236   9.077  0.00  0.00    +0.000 C 
ATOM     18  C   UNL     1      44.512   4.610   9.185  0.00  0.00    +0.000 C 
ENDBRANCH  10  18
ENDBRANCH   8  10
ENDBRANCH   7   8
ENDBRANCH   1   7
BRANCH   4  19
ATOM     19  C   UNL     1      47.640   7.561  14.049  0.00  0.00    +0.000 C 
BRANCH  19  20
ATOM     20  N   UNL     1      48.870   7.027  14.573  0.00  0.00    +0.000 N 
ATOM     21  C   UNL     1      49.286   7.321  15.844  0.00  0.00    +0.000 C 
ATOM     22  O   UNL     1      48.630   8.026  16.602  0.00  0.00    +0.000 OA
ATOM     23  H   UNL     1      49.545   6.687  13.895  0.00  0.00    +0.000 HD
BRANCH  21  24
ATOM     24  C   UNL     1      50.537   6.685  16.275  0.00  0.00    +0.000 A 
ATOM     25  C   UNL     1      51.753   7.280  15.966  0.00  0.00    +0.000 A 
ATOM     26  S   UNL     1      53.101   6.438  16.586  0.00  0.00    +0.000 S 
ATOM     27  C   UNL     1      52.108   5.221  17.246  0.00  0.00    +0.000 A 
ATOM     28  N   UNL     1      52.647   4.159  17.907  0.00  0.00    +0.000 NA
ATOM     29  C   UNL     1      51.774   3.294  18.322  0.00  0.00    +0.000 A 
ATOM     30  N   UNL     1      50.425   3.411  18.157  0.00  0.00    +0.000 N 
ATOM     31  C   UNL     1      49.830   4.485  17.527  0.00  0.00    +0.000 A 
ATOM     32  O   UNL     1      48.611   4.568  17.427  0.00  0.00    +0.000 OA
ATOM     33  C   UNL     1      50.766   5.467  17.017  0.00  0.00    +0.000 A 
ATOM     34  H   UNL     1      49.792   2.709  18.515  0.00  0.00    +0.000 HD
ENDBRANCH  21  24
ENDBRANCH  19  20
ENDBRANCH   4  19
TORSDOF 8
ENDMDL
MODEL 8
REMARK VINA RESULT:    -6.705      5.252      7.143
REMARK INTER + INTRA:         -10.869
REMARK INTER:                  -9.629
REMARK INTRA:                  -1.240
REMARK UNBOUND:                -1.028
REMARK  Name = 
REMARK  9 active torsions:
REMARK  status: ('A' for Active; 'I' for Inactive)
REMARK    1  A    between atoms: C_1  and  C_2
REMARK    2  A    between atoms: C_2  and  C_3
REMARK    3  A    between atoms: C_3  and  N_4
REMARK    4  A    between atoms: C_3  and  C_26
REMARK    5  A    between atoms: N_4  and  C_5
REMARK    6  A    between atoms: C_5  and  C_6
REMARK    7  A    between atoms: C_9  and  C_10
REMARK    8  A    between atoms: C_10  and  N_11
REMARK    9  A    between atoms: C_12  and  C_14
REMARK                            x       y       z     vdW  Elec       q    Type
REMARK                         _______ _______ _______ _____ _____    ______ ____
ROOT
ATOM      1  C   UNL     1      47.718   6.604  13.242  0.00  0.00    +0.000 A 
ATOM      2  C   UNL     1      48.721   6.928  14.168  0.00  0.00    +0.000 A 
ATOM      3  C   UNL     1      49.815   7.709  13.788  0.00  0.00    +0.000 A 
ATOM      4  C   UNL     1      49.924   8.178  12.475  0.00  0.00    +0.000 A 
ATOM      5  C   UNL     1      48.940   7.823  11.541  0.00  0.00    +0.000 A 
ATOM      6  C   UNL     1      47.846   7.045  11.921  0.00  0.00    +0.000 A 
ENDROOT
BRANCH   1   7
ATOM      7  C   UNL     1      46.559   5.733  13.660  0.00  0.00    +0.000 C 
BRANCH   7   8
ATOM      8  N   UNL     1      45.378   5.928  12.803  0.00  0.00    +0.000 NA
ATOM      9  H   UNL     1      45.701   6.330  11.921  0.00  0.00    +0.000 HD
BRANCH   8  10
ATOM     10  C   UNL     1      44.702   4.646  12.491  0.00  0.00    +0.000 C 
BRANCH  10  11
ATOM     11  C   UNL     1      44.989   4.134  11.070  0.00  0.00    +0.000 A 
ATOM     12  C   UNL     1      45.500   4.985  10.087  0.00  0.00    +0.000 A 
ATOM     13  C   UNL     1      45.372   4.622   8.747  0.00  0.00    +0.000 A 
ATOM     14  C   UNL     1      44.801   3.397   8.420  0.00  0.00    +0.000 A 
ATOM     15  C   UNL     1      44.427   2.560   9.455  0.00  0.00    +0.000 A 
ATOM     16  N   UNL     1      44.499   2.901  10.764  0.00  0.00    +0.000 NA
ENDBRANCH  10  11
BRANCH  10  18
ATOM     17  C   UNL     1      42.471   5.684  11.716  0.00  0.00    +0.000 C 
ATOM     18  C   UNL     1      43.166   4.742  12.688  0.00  0.00    +0.000 C 
ENDBRANCH  10  18
ENDBRANCH   8  10
ENDBRANCH   7   8
ENDBRANCH   1   7
BRANCH   4  19
ATOM     19  C   UNL     1      51.094   9.018  12.039  0.00  0.00    +0.000 C 
BRANCH  19  20
ATOM     20  N   UNL     1      51.446   8.742  10.671  0.00  0.00    +0.000 N 
ATOM     21  C   UNL     1      52.740   8.471  10.312  0.00  0.00    +0.000 C 
ATOM     22  O   UNL     1      53.651   8.426  11.130  0.00  0.00    +0.000 OA
ATOM     23  H   UNL     1      50.787   9.044   9.960  0.00  0.00    +0.000 HD
BRANCH  21  24
ATOM     24  C   UNL     1      52.965   8.169   8.893  0.00  0.00    +0.000 A 
ATOM     25  C   UNL     1      52.829   9.174   7.946  0.00  0.00    +0.000 A 
ATOM     26  S   UNL     1      53.176   8.665   6.354  0.00  0.00    +0.000 S 
ATOM     27  C   UNL     1      53.470   7.069   6.872  0.00  0.00    +0.000 A 
ATOM     28  N   UNL     1      53.800   6.094   5.979  0.00  0.00    +0.000 NA
ATOM     29  C   UNL     1      53.960   4.921   6.510  0.00  0.00    +0.000 A 
ATOM     30  N   UNL     1      53.844   4.648   7.842  0.00  0.00    +0.000 N 
ATOM     31  C   UNL     1      53.548   5.608   8.787  0.00  0.00    +0.000 A 
ATOM     32  O   UNL     1      53.483   5.328   9.979  0.00  0.00    +0.000 OA
ATOM     33  C   UNL     1      53.330   6.933   8.241  0.00  0.00    +0.000 A 
ATOM     34  H   UNL     1      53.992   3.714   8.199  0.00  0.00    +0.000 HD
ENDBRANCH  21  24
ENDBRANCH  19  20
ENDBRANCH   4  19
TORSDOF 8
ENDMDL
MODEL 9
REMARK VINA RESULT:    -6.478      3.928      6.098
REMARK INTER + INTRA:         -10.536
REMARK INTER:                  -9.303
REMARK INTRA:                  -1.234
REMARK UNBOUND:                -1.028
REMARK  Name = 
REMARK  9 active torsions:
REMARK  status: ('A' for Active; 'I' for Inactive)
REMARK    1  A    between atoms: C_1  and  C_2
REMARK    2  A    between atoms: C_2  and  C_3
REMARK    3  A    between atoms: C_3  and  N_4
REMARK    4  A    between atoms: C_3  and  C_26
REMARK    5  A    between atoms: N_4  and  C_5
REMARK    6  A    between atoms: C_5  and  C_6
REMARK    7  A    between atoms: C_9  and  C_10
REMARK    8  A    between atoms: C_10  and  N_11
REMARK    9  A    between atoms: C_12  and  C_14
REMARK                            x       y       z     vdW  Elec       q    Type
REMARK                         _______ _______ _______ _____ _____    ______ ____
ROOT
ATOM      1  C   UNL     1      47.711   4.343  16.029  0.00  0.00    +0.000 A 
ATOM      2  C   UNL     1      48.472   5.512  16.174  0.00  0.00    +0.000 A 
ATOM      3  C   UNL     1      49.261   5.713  17.309  0.00  0.00    +0.000 A 
ATOM      4  C   UNL     1      49.301   4.746  18.319  0.00  0.00    +0.000 A 
ATOM      5  C   UNL     1      48.512   3.594  18.190  0.00  0.00    +0.000 A 
ATOM      6  C   UNL     1      47.725   3.393  17.056  0.00  0.00    +0.000 A 
ENDROOT
BRANCH   1   7
ATOM      7  C   UNL     1      46.839   4.155  14.812  0.00  0.00    +0.000 C 
BRANCH   7   8
ATOM      8  N   UNL     1      47.418   4.778  13.611  0.00  0.00    +0.000 NA
ATOM      9  H   UNL     1      47.500   4.052  12.897  0.00  0.00    +0.000 HD
BRANCH   8  10
ATOM     10  C   UNL     1      46.547   5.847  13.065  0.00  0.00    +0.000 C 
BRANCH  10  11
ATOM     11  C   UNL     1      45.228   5.319  12.478  0.00  0.00    +0.000 A 
ATOM     12  C   UNL     1      45.092   5.084  11.108  0.00  0.00    +0.000 A 
ATOM     13  C   UNL     1      43.813   5.000  10.561  0.00  0.00    +0.000 A 
ATOM     14  C   UNL     1      42.703   5.087  11.395  0.00  0.00    +0.000 A 
ATOM     15  C   UNL     1      42.923   5.202  12.755  0.00  0.00    +0.000 A 
ATOM     16  N   UNL     1      44.151   5.328  13.311  0.00  0.00    +0.000 NA
ENDBRANCH  10  11
BRANCH  10  18
ATOM     17  C   UNL     1      48.636   7.214  12.415  0.00  0.00    +0.000 C 
ATOM     18  C   UNL     1      47.276   6.687  11.983  0.00  0.00    +0.000 C 
ENDBRANCH  10  18
ENDBRANCH   8  10
ENDBRANCH   7   8
ENDBRANCH   1   7
BRANCH   4  19
ATOM     19  C   UNL     1      50.140   4.939  19.553  0.00  0.00    +0.000 C 
BRANCH  19  20
ATOM     20  N   UNL     1      51.251   4.024  19.571  0.00  0.00    +0.000 N 
ATOM     21  C   UNL     1      52.431   4.328  18.945  0.00  0.00    +0.000 C 
ATOM     22  O   UNL     1      52.609   5.393  18.364  0.00  0.00    +0.000 OA
ATOM     23  H   UNL     1      51.041   3.055  19.790  0.00  0.00    +0.000 HD
BRANCH  21  24
ATOM     24  C   UNL     1      53.501   3.331  19.067  0.00  0.00    +0.000 A 
ATOM     25  C   UNL     1      54.660   3.646  19.763  0.00  0.00    +0.000 A 
ATOM     26  S   UNL     1      55.775   2.357  19.852  0.00  0.00    +0.000 S 
ATOM     27  C   UNL     1      54.768   1.350  18.917  0.00  0.00    +0.000 A 
ATOM     28  N   UNL     1      55.151   0.083  18.595  0.00  0.00    +0.000 NA
ATOM     29  C   UNL     1      54.302  -0.554  17.849  0.00  0.00    +0.000 A 
ATOM     30  N   UNL     1      53.108  -0.049  17.425  0.00  0.00    +0.000 N 
ATOM     31  C   UNL     1      52.661   1.213  17.755  0.00  0.00    +0.000 A 
ATOM     32  O   UNL     1      51.567   1.619  17.380  0.00  0.00    +0.000 OA
ATOM     33  C   UNL     1      53.588   1.979  18.564  0.00  0.00    +0.000 A 
ATOM     34  H   UNL     1      52.480  -0.600  16.855  0.00  0.00    +0.000 HD
ENDBRANCH  21  24
ENDBRANCH  19  20
ENDBRANCH   4  19
TORSDOF 8
ENDMDL
