MODEL 1
REMARK VINA RESULT:    -8.630      0.000      0.000
REMARK INTER + INTRA:         -12.132
REMARK INTER:                 -11.152
REMARK INTRA:                  -0.980
REMARK UNBOUND:                -0.980
REMARK  Name = 
REMARK  5 active torsions:
REMARK  status: ('A' for Active; 'I' for Inactive)
REMARK    1  A    between atoms: C_2  and  C_4
REMARK    2  A    between atoms: C_7  and  O_8
REMARK    3  A    between atoms: O_8  and  C_9
REMARK    4  A    between atoms: C_9  and  C_10
REMARK    5  A    between atoms: C_12  and  C_13
REMARK                            x       y       z     vdW  Elec       q    Type
REMARK                         _______ _______ _______ _____ _____    ______ ____
ROOT
ATOM      1  C   UNL     1      43.630   4.478  11.149  0.00  0.00    +0.000 C 
ENDROOT
BRANCH   1   2
ATOM      2  C   UNL     1      44.801   5.188  11.781  0.00  0.00    +0.000 A 
ATOM      3  C   UNL     1      45.001   6.571  11.637  0.00  0.00    +0.000 A 
ATOM      4  C   UNL     1      46.048   7.249  12.295  0.00  0.00    +0.000 A 
ATOM      5  C   UNL     1      46.900   6.483  13.114  0.00  0.00    +0.000 A 
ATOM      6  C   UNL     1      46.714   5.106  13.268  0.00  0.00    +0.000 A 
ATOM      7  C   UNL     1      45.667   4.477  12.611  0.00  0.00    +0.000 A 
ATOM      8  F   UNL     1      45.487   3.161  12.798  0.00  0.00    +0.000 F 
BRANCH   4   9
ATOM      9  C   UNL     1      46.232   8.711  12.135  0.00  0.00    +0.000 A 
ATOM     10  C   UNL     1      47.507   9.297  12.162  0.00  0.00    +0.000 A 
ATOM     11  C   UNL     1      47.634  10.672  12.026  0.00  0.00    +0.000 A 
ATOM     12  N   UNL     1      46.590  11.506  11.852  0.00  0.00    +0.000 NA
ATOM     13  C   UNL     1      45.369  10.939  11.815  0.00  0.00    +0.000 A 
ATOM     14  C   UNL     1      45.144   9.577  11.954  0.00  0.00    +0.000 A 
ENDBRANCH   4   9
ENDBRANCH   1   2
BRANCH   1  15
ATOM     15  O   UNL     1      43.604   4.708   9.735  0.00  0.00    +0.000 OA
BRANCH  15  19
ATOM     16  C   UNL     1      46.330   2.323   7.775  0.00  0.00    +0.000 A 
ATOM     17  C   UNL     1      45.451   1.753   8.699  0.00  0.00    +0.000 A 
ATOM     18  C   UNL     1      44.530   2.572   9.356  0.00  0.00    +0.000 A 
ATOM     19  C   UNL     1      44.525   3.928   9.065  0.00  0.00    +0.000 A 
ATOM     20  N   UNL     1      45.368   4.506   8.182  0.00  0.00    +0.000 NA
ATOM     21  C   UNL     1      46.256   3.692   7.564  0.00  0.00    +0.000 A 
BRANCH  16  23
ATOM     22  N   UNL     1      48.447   2.234   6.582  0.00  0.00    +0.000 N 
ATOM     23  C   UNL     1      47.351   1.554   7.035  0.00  0.00    +0.000 C 
ATOM     24  O   UNL     1      47.240   0.348   6.865  0.00  0.00    +0.000 OA
ATOM     25  H   UNL     1      49.182   1.669   6.173  0.00  0.00    +0.000 HD
ATOM     26  H   UNL     1      48.695   3.155   6.912  0.00  0.00    +0.000 HD
ENDBRANCH  16  23
ENDBRANCH  15  19
ENDBRANCH   1  15
TORSDOF 5
ENDMDL
MODEL 2
REMARK VINA RESULT:    -8.166      2.108      2.808
REMARK INTER + INTRA:         -11.532
REMARK INTER:                 -10.806
REMARK INTRA:                  -0.726
REMARK UNBOUND:                -0.980
REMARK  Name = 
REMARK  5 active torsions:
REMARK  status: ('A' for Active; 'I' for Inactive)
REMARK    1  A    between atoms: C_2  and  C_4
REMARK    2  A    between atoms: C_7  and  O_8
REMARK    3  A    between atoms: O_8  and  C_9
REMARK    4  A    between atoms: C_9  and  C_10
REMARK    5  A    between atoms: C_12  and  C_13
REMARK                            x       y       z     vdW  Elec       q    Type
REMARK                         _______ _______ _______ _____ _____    ______ ____
ROOT
ATOM      1  C   UNL     1      44.315   3.440  11.590  0.00  0.00    +0.000 C 
ENDROOT
BRANCH   1   2
ATOM      2  C   UNL     1      44.681   4.895  11.741  0.00  0.00    +0.000 A 
ATOM      3  C   UNL     1      45.987   5.307  12.056  0.00  0.00    +0.000 A 
ATOM      4  C   UNL     1      46.349   6.669  12.115  0.00  0.00    +0.000 A 
ATOM      5  C   UNL     1      45.344   7.617  11.845  0.00  0.00    +0.000 A 
ATOM      6  C   UNL     1      44.040   7.224  11.529  0.00  0.00    +0.000 A 
ATOM      7  C   UNL     1      43.726   5.874  11.471  0.00  0.00    +0.000 A 
ATOM      8  F   UNL     1      42.477   5.517  11.135  0.00  0.00    +0.000 F 
BRANCH   4   9
ATOM      9  C   UNL     1      47.736   7.078  12.441  0.00  0.00    +0.000 A 
ATOM     10  C   UNL     1      48.246   6.968  13.744  0.00  0.00    +0.000 A 
ATOM     11  C   UNL     1      49.544   7.380  14.010  0.00  0.00    +0.000 A 
ATOM     12  N   UNL     1      50.376   7.879  13.077  0.00  0.00    +0.000 NA
ATOM     13  C   UNL     1      49.887   7.973  11.825  0.00  0.00    +0.000 A 
ATOM     14  C   UNL     1      48.600   7.599  11.468  0.00  0.00    +0.000 A 
ENDBRANCH   4   9
ENDBRANCH   1   2
BRANCH   1  15
ATOM     15  O   UNL     1      43.720   3.198  10.310  0.00  0.00    +0.000 OA
BRANCH  15  19
ATOM     16  C   UNL     1      46.533   2.579   7.367  0.00  0.00    +0.000 A 
ATOM     17  C   UNL     1      45.951   3.840   7.512  0.00  0.00    +0.000 A 
ATOM     18  C   UNL     1      45.000   4.038   8.516  0.00  0.00    +0.000 A 
ATOM     19  C   UNL     1      44.666   2.967   9.332  0.00  0.00    +0.000 A 
ATOM     20  N   UNL     1      45.207   1.737   9.208  0.00  0.00    +0.000 NA
ATOM     21  C   UNL     1      46.122   1.568   8.223  0.00  0.00    +0.000 A 
BRANCH  16  23
ATOM     22  N   UNL     1      47.518   2.993   5.182  0.00  0.00    +0.000 N 
ATOM     23  C   UNL     1      47.537   2.256   6.333  0.00  0.00    +0.000 C 
ATOM     24  O   UNL     1      48.378   1.385   6.512  0.00  0.00    +0.000 OA
ATOM     25  H   UNL     1      48.280   2.826   4.536  0.00  0.00    +0.000 HD
ATOM     26  H   UNL     1      47.018   3.866   5.099  0.00  0.00    +0.000 HD
ENDBRANCH  16  23
ENDBRANCH  15  19
ENDBRANCH   1  15
TORSDOF 5
ENDMDL
MODEL 3
REMARK VINA RESULT:    -8.015      1.584      2.035
REMARK INTER + INTRA:         -11.338
REMARK INTER:                 -10.740
REMARK INTRA:                  -0.598
REMARK UNBOUND:                -0.980
REMARK  Name = 
REMARK  5 active torsions:
REMARK  status: ('A' for Active; 'I' for Inactive)
REMARK    1  A    between atoms: C_2  and  C_4
REMARK    2  A    between atoms: C_7  and  O_8
REMARK    3  A    between atoms: O_8  and  C_9
REMARK    4  A    between atoms: C_9  and  C_10
REMARK    5  A    between atoms: C_12  and  C_13
REMARK                            x       y       z     vdW  Elec       q    Type
REMARK                         _______ _______ _______ _____ _____    ______ ____
ROOT
ATOM      1  C   UNL     1      43.922   5.220  10.613  0.00  0.00    +0.000 C 
ENDROOT
BRANCH   1   2
ATOM      2  C   UNL     1      45.073   5.429  11.566  0.00  0.00    +0.000 A 
ATOM      3  C   UNL     1      46.081   6.375  11.321  0.00  0.00    +0.000 A 
ATOM      4  C   UNL     1      47.111   6.630  12.250  0.00  0.00    +0.000 A 
ATOM      5  C   UNL     1      47.096   5.894  13.450  0.00  0.00    +0.000 A 
ATOM      6  C   UNL     1      46.099   4.948  13.709  0.00  0.00    +0.000 A 
ATOM      7  C   UNL     1      45.098   4.733  12.774  0.00  0.00    +0.000 A 
ATOM      8  F   UNL     1      44.133   3.846  13.056  0.00  0.00    +0.000 F 
BRANCH   4   9
ATOM      9  C   UNL     1      48.159   7.641  11.972  0.00  0.00    +0.000 A 
ATOM     10  C   UNL     1      49.478   7.267  11.671  0.00  0.00    +0.000 A 
ATOM     11  C   UNL     1      50.433   8.246  11.435  0.00  0.00    +0.000 A 
ATOM     12  N   UNL     1      50.172   9.567  11.463  0.00  0.00    +0.000 NA
ATOM     13  C   UNL     1      48.903   9.922  11.742  0.00  0.00    +0.000 A 
ATOM     14  C   UNL     1      47.885   9.016  12.003  0.00  0.00    +0.000 A 
ENDBRANCH   4   9
ENDBRANCH   1   2
BRANCH   1  15
ATOM     15  O   UNL     1      43.756   3.827  10.320  0.00  0.00    +0.000 OA
BRANCH  15  19
ATOM     16  C   UNL     1      46.510   2.547   7.539  0.00  0.00    +0.000 A 
ATOM     17  C   UNL     1      46.079   3.875   7.524  0.00  0.00    +0.000 A 
ATOM     18  C   UNL     1      45.146   4.297   8.474  0.00  0.00    +0.000 A 
ATOM     19  C   UNL     1      44.680   3.376   9.399  0.00  0.00    +0.000 A 
ATOM     20  N   UNL     1      45.074   2.085   9.431  0.00  0.00    +0.000 NA
ATOM     21  C   UNL     1      45.974   1.698   8.496  0.00  0.00    +0.000 A 
BRANCH  16  23
ATOM     22  N   UNL     1      48.637   2.690   6.370  0.00  0.00    +0.000 N 
ATOM     23  C   UNL     1      47.481   1.991   6.575  0.00  0.00    +0.000 C 
ATOM     24  O   UNL     1      47.276   0.927   6.007  0.00  0.00    +0.000 OA
ATOM     25  H   UNL     1      49.332   2.237   5.788  0.00  0.00    +0.000 HD
ATOM     26  H   UNL     1      48.953   3.421   6.990  0.00  0.00    +0.000 HD
ENDBRANCH  16  23
ENDBRANCH  15  19
ENDBRANCH   1  15
TORSDOF 5
ENDMDL
MODEL 4
REMARK VINA RESULT:    -7.543      2.775      6.866
REMARK INTER + INTRA:         -10.728
REMARK INTER:                  -9.813
REMARK INTRA:                  -0.915
REMARK UNBOUND:                -0.980
REMARK  Name = 
REMARK  5 active torsions:
REMARK  status: ('A' for Active; 'I' for Inactive)
REMARK    1  A    between atoms: C_2  and  C_4
REMARK    2  A    between atoms: C_7  and  O_8
REMARK    3  A    between atoms: O_8  and  C_9
REMARK    4  A    between atoms: C_9  and  C_10
REMARK    5  A    between atoms: C_12  and  C_13
REMARK                            x       y       z     vdW  Elec       q    Type
REMARK                         _______ _______ _______ _____ _____    ______ ____
ROOT
ATOM      1  C   UNL     1      44.229   6.636  11.410  0.00  0.00    +0.000 C 
ENDROOT
BRANCH   1   2
ATOM      2  C   UNL     1      44.145   5.193  10.979  0.00  0.00    +0.000 A 
ATOM      3  C   UNL     1      44.896   4.692   9.903  0.00  0.00    +0.000 A 
ATOM      4  C   UNL     1      44.881   3.326   9.551  0.00  0.00    +0.000 A 
ATOM      5  C   UNL     1      44.076   2.468  10.325  0.00  0.00    +0.000 A 
ATOM      6  C   UNL     1      43.323   2.951  11.399  0.00  0.00    +0.000 A 
ATOM      7  C   UNL     1      43.372   4.300  11.719  0.00  0.00    +0.000 A 
ATOM      8  F   UNL     1      42.667   4.737  12.774  0.00  0.00    +0.000 F 
BRANCH   4   9
ATOM      9  C   UNL     1      45.690   2.819   8.417  0.00  0.00    +0.000 A 
ATOM     10  C   UNL     1      46.030   3.644   7.333  0.00  0.00    +0.000 A 
ATOM     11  C   UNL     1      46.773   3.125   6.283  0.00  0.00    +0.000 A 
ATOM     12  N   UNL     1      47.214   1.853   6.235  0.00  0.00    +0.000 NA
ATOM     13  C   UNL     1      46.895   1.067   7.282  0.00  0.00    +0.000 A 
ATOM     14  C   UNL     1      46.146   1.495   8.369  0.00  0.00    +0.000 A 
ENDBRANCH   4   9
ENDBRANCH   1   2
BRANCH   1  15
ATOM     15  O   UNL     1      44.849   6.743  12.698  0.00  0.00    +0.000 OA
BRANCH  15  19
ATOM     16  C   UNL     1      48.885   7.521  12.451  0.00  0.00    +0.000 A 
ATOM     17  C   UNL     1      48.447   6.296  12.960  0.00  0.00    +0.000 A 
ATOM     18  C   UNL     1      47.076   6.044  13.036  0.00  0.00    +0.000 A 
ATOM     19  C   UNL     1      46.196   7.025  12.604  0.00  0.00    +0.000 A 
ATOM     20  N   UNL     1      46.593   8.220  12.115  0.00  0.00    +0.000 NA
ATOM     21  C   UNL     1      47.927   8.444  12.057  0.00  0.00    +0.000 A 
BRANCH  16  23
ATOM     22  N   UNL     1      51.013   7.394  11.280  0.00  0.00    +0.000 N 
ATOM     23  C   UNL     1      50.309   7.898  12.338  0.00  0.00    +0.000 C 
ATOM     24  O   UNL     1      50.831   8.660  13.139  0.00  0.00    +0.000 OA
ATOM     25  H   UNL     1      51.954   7.750  11.163  0.00  0.00    +0.000 HD
ATOM     26  H   UNL     1      50.569   6.977  10.475  0.00  0.00    +0.000 HD
ENDBRANCH  16  23
ENDBRANCH  15  19
ENDBRANCH   1  15
TORSDOF 5
ENDMDL
MODEL 5
REMARK VINA RESULT:    -7.313      3.035      7.317
REMARK INTER + INTRA:         -10.430
REMARK INTER:                  -9.906
REMARK INTRA:                  -0.525
REMARK UNBOUND:                -0.980
REMARK  Name = 
REMARK  5 active torsions:
REMARK  status: ('A' for Active; 'I' for Inactive)
REMARK    1  A    between atoms: C_2  and  C_4
REMARK    2  A    between atoms: C_7  and  O_8
REMARK    3  A    between atoms: O_8  and  C_9
REMARK    4  A    between atoms: C_9  and  C_10
REMARK    5  A    between atoms: C_12  and  C_13
REMARK                            x       y       z     vdW  Elec       q    Type
REMARK                         _______ _______ _______ _____ _____    ______ ____
ROOT
ATOM      1  C   UNL     1      44.430   6.578  11.427  0.00  0.00    +0.000 C 
ENDROOT
BRANCH   1   2
ATOM      2  C   UNL     1      44.285   5.143  10.986  0.00  0.00    +0.000 A 
ATOM      3  C   UNL     1      45.006   4.620   9.900  0.00  0.00    +0.000 A 
ATOM      4  C   UNL     1      44.934   3.259   9.538  0.00  0.00    +0.000 A 
ATOM      5  C   UNL     1      44.103   2.428  10.314  0.00  0.00    +0.000 A 
ATOM      6  C   UNL     1      43.379   2.932  11.398  0.00  0.00    +0.000 A 
ATOM      7  C   UNL     1      43.484   4.276  11.728  0.00  0.00    +0.000 A 
ATOM      8  F   UNL     1      42.807   4.732  12.792  0.00  0.00    +0.000 F 
BRANCH   4   9
ATOM      9  C   UNL     1      45.711   2.729   8.393  0.00  0.00    +0.000 A 
ATOM     10  C   UNL     1      46.141   1.394   8.352  0.00  0.00    +0.000 A 
ATOM     11  C   UNL     1      46.883   0.944   7.270  0.00  0.00    +0.000 A 
ATOM     12  N   UNL     1      47.218   1.718   6.219  0.00  0.00    +0.000 NA
ATOM     13  C   UNL     1      46.795   2.996   6.257  0.00  0.00    +0.000 A 
ATOM     14  C   UNL     1      46.060   3.537   7.301  0.00  0.00    +0.000 A 
ENDBRANCH   4   9
ENDBRANCH   1   2
BRANCH   1  15
ATOM     15  O   UNL     1      45.759   7.052  11.176  0.00  0.00    +0.000 OA
BRANCH  15  19
ATOM     16  C   UNL     1      48.191   6.821  14.490  0.00  0.00    +0.000 A 
ATOM     17  C   UNL     1      48.103   8.021  13.780  0.00  0.00    +0.000 A 
ATOM     18  C   UNL     1      47.273   8.087  12.659  0.00  0.00    +0.000 A 
ATOM     19  C   UNL     1      46.566   6.952  12.291  0.00  0.00    +0.000 A 
ATOM     20  N   UNL     1      46.639   5.778  12.955  0.00  0.00    +0.000 NA
ATOM     21  C   UNL     1      47.456   5.737  14.034  0.00  0.00    +0.000 A 
BRANCH  16  23
ATOM     22  N   UNL     1      48.425   6.469  16.885  0.00  0.00    +0.000 N 
ATOM     23  C   UNL     1      49.047   6.636  15.680  0.00  0.00    +0.000 C 
ATOM     24  O   UNL     1      50.266   6.598  15.587  0.00  0.00    +0.000 OA
ATOM     25  H   UNL     1      49.026   6.237  17.666  0.00  0.00    +0.000 HD
ATOM     26  H   UNL     1      47.444   6.245  16.968  0.00  0.00    +0.000 HD
ENDBRANCH  16  23
ENDBRANCH  15  19
ENDBRANCH   1  15
TORSDOF 5
ENDMDL
MODEL 6
REMARK VINA RESULT:    -7.237      2.644      7.158
REMARK INTER + INTRA:         -10.332
REMARK INTER:                  -9.641
REMARK INTRA:                  -0.691
REMARK UNBOUND:                -0.980
REMARK  Name = 
REMARK  5 active torsions:
REMARK  status: ('A' for Active; 'I' for Inactive)
REMARK    1  A    between atoms: C_2  and  C_4
REMARK    2  A    between atoms: C_7  and  O_8
REMARK    3  A    between atoms: O_8  and  C_9
REMARK    4  A    between atoms: C_9  and  C_10
REMARK    5  A    between atoms: C_12  and  C_13
REMARK                            x       y       z     vdW  Elec       q    Type
REMARK                         _______ _______ _______ _____ _____    ______ ____
ROOT
ATOM      1  C   UNL     1      44.025   6.618  11.469  0.00  0.00    +0.000 C 
ENDROOT
BRANCH   1   2
ATOM      2  C   UNL     1      44.021   5.169  11.052  0.00  0.00    +0.000 A 
ATOM      3  C   UNL     1      44.768   4.706   9.956  0.00  0.00    +0.000 A 
ATOM      4  C   UNL     1      44.831   3.339   9.616  0.00  0.00    +0.000 A 
ATOM      5  C   UNL     1      44.110   2.438  10.423  0.00  0.00    +0.000 A 
ATOM      6  C   UNL     1      43.362   2.883  11.517  0.00  0.00    +0.000 A 
ATOM      7  C   UNL     1      43.332   4.235  11.825  0.00  0.00    +0.000 A 
ATOM      8  F   UNL     1      42.635   4.636  12.898  0.00  0.00    +0.000 F 
BRANCH   4   9
ATOM      9  C   UNL     1      45.634   2.875   8.460  0.00  0.00    +0.000 A 
ATOM     10  C   UNL     1      46.085   1.549   8.365  0.00  0.00    +0.000 A 
ATOM     11  C   UNL     1      46.850   1.160   7.274  0.00  0.00    +0.000 A 
ATOM     12  N   UNL     1      47.189   1.987   6.266  0.00  0.00    +0.000 NA
ATOM     13  C   UNL     1      46.746   3.256   6.355  0.00  0.00    +0.000 A 
ATOM     14  C   UNL     1      45.987   3.737   7.412  0.00  0.00    +0.000 A 
ENDBRANCH   4   9
ENDBRANCH   1   2
BRANCH   1  15
ATOM     15  O   UNL     1      45.216   7.272  11.014  0.00  0.00    +0.000 OA
BRANCH  15  19
ATOM     16  C   UNL     1      48.117   7.402  13.934  0.00  0.00    +0.000 A 
ATOM     17  C   UNL     1      48.060   6.310  13.064  0.00  0.00    +0.000 A 
ATOM     18  C   UNL     1      47.073   6.279  12.077  0.00  0.00    +0.000 A 
ATOM     19  C   UNL     1      46.180   7.338  11.999  0.00  0.00    +0.000 A 
ATOM     20  N   UNL     1      46.209   8.401  12.831  0.00  0.00    +0.000 NA
ATOM     21  C   UNL     1      47.170   8.405  13.785  0.00  0.00    +0.000 A 
BRANCH  16  23
ATOM     22  N   UNL     1      49.183   8.732  15.668  0.00  0.00    +0.000 N 
ATOM     23  C   UNL     1      49.109   7.531  15.021  0.00  0.00    +0.000 C 
ATOM     24  O   UNL     1      49.814   6.589  15.354  0.00  0.00    +0.000 OA
ATOM     25  H   UNL     1      49.792   8.764  16.477  0.00  0.00    +0.000 HD
ATOM     26  H   UNL     1      48.464   9.438  15.597  0.00  0.00    +0.000 HD
ENDBRANCH  16  23
ENDBRANCH  15  19
ENDBRANCH   1  15
TORSDOF 5
ENDMDL
MODEL 7
REMARK VINA RESULT:    -7.123      3.995      7.699
REMARK INTER + INTRA:         -10.184
REMARK INTER:                  -9.514
REMARK INTRA:                  -0.671
REMARK UNBOUND:                -0.980
REMARK  Name = 
REMARK  5 active torsions:
REMARK  status: ('A' for Active; 'I' for Inactive)
REMARK    1  A    between atoms: C_2  and  C_4
REMARK    2  A    between atoms: C_7  and  O_8
REMARK    3  A    between atoms: O_8  and  C_9
REMARK    4  A    between atoms: C_9  and  C_10
REMARK    5  A    between atoms: C_12  and  C_13
REMARK                            x       y       z     vdW  Elec       q    Type
REMARK                         _______ _______ _______ _____ _____    ______ ____
ROOT
ATOM      1  C   UNL     1      45.267   5.698  12.970  0.00  0.00    +0.000 C 
ENDROOT
BRANCH   1   2
ATOM      2  C   UNL     1      44.761   4.601  12.068  0.00  0.00    +0.000 A 
ATOM      3  C   UNL     1      45.389   4.285  10.852  0.00  0.00    +0.000 A 
ATOM      4  C   UNL     1      44.967   3.206  10.048  0.00  0.00    +0.000 A 
ATOM      5  C   UNL     1      43.877   2.444  10.510  0.00  0.00    +0.000 A 
ATOM      6  C   UNL     1      43.240   2.745  11.718  0.00  0.00    +0.000 A 
ATOM      7  C   UNL     1      43.692   3.809  12.485  0.00  0.00    +0.000 A 
ATOM      8  F   UNL     1      43.088   4.060  13.656  0.00  0.00    +0.000 F 
BRANCH   4   9
ATOM      9  C   UNL     1      45.653   2.888   8.773  0.00  0.00    +0.000 A 
ATOM     10  C   UNL     1      46.048   1.578   8.460  0.00  0.00    +0.000 A 
ATOM     11  C   UNL     1      46.705   1.326   7.265  0.00  0.00    +0.000 A 
ATOM     12  N   UNL     1      46.986   2.276   6.351  0.00  0.00    +0.000 NA
ATOM     13  C   UNL     1      46.597   3.530   6.650  0.00  0.00    +0.000 A 
ATOM     14  C   UNL     1      45.946   3.878   7.825  0.00  0.00    +0.000 A 
ENDBRANCH   4   9
ENDBRANCH   1   2
BRANCH   1  15
ATOM     15  O   UNL     1      46.700   5.724  12.978  0.00  0.00    +0.000 OA
BRANCH  15  19
ATOM     16  C   UNL     1      48.292   4.815  16.665  0.00  0.00    +0.000 A 
ATOM     17  C   UNL     1      48.650   6.008  16.033  0.00  0.00    +0.000 A 
ATOM     18  C   UNL     1      48.101   6.306  14.783  0.00  0.00    +0.000 A 
ATOM     19  C   UNL     1      47.219   5.399  14.214  0.00  0.00    +0.000 A 
ATOM     20  N   UNL     1      46.863   4.236  14.800  0.00  0.00    +0.000 NA
ATOM     21  C   UNL     1      47.413   3.966  16.008  0.00  0.00    +0.000 A 
BRANCH  16  23
ATOM     22  N   UNL     1      47.927   3.919  18.896  0.00  0.00    +0.000 N 
ATOM     23  C   UNL     1      48.821   4.394  17.978  0.00  0.00    +0.000 C 
ATOM     24  O   UNL     1      50.019   4.436  18.225  0.00  0.00    +0.000 OA
ATOM     25  H   UNL     1      48.324   3.537  19.746  0.00  0.00    +0.000 HD
ATOM     26  H   UNL     1      46.989   3.636  18.651  0.00  0.00    +0.000 HD
ENDBRANCH  16  23
ENDBRANCH  15  19
ENDBRANCH   1  15
TORSDOF 5
ENDMDL
MODEL 8
REMARK VINA RESULT:    -6.847      2.574      3.947
REMARK INTER + INTRA:          -9.828
REMARK INTER:                  -9.179
REMARK INTRA:                  -0.650
REMARK UNBOUND:                -0.980
REMARK  Name = 
REMARK  5 active torsions:
REMARK  status: ('A' for Active; 'I' for Inactive)
REMARK    1  A    between atoms: C_2  and  C_4
REMARK    2  A    between atoms: C_7  and  O_8
REMARK    3  A    between atoms: O_8  and  C_9
REMARK    4  A    between atoms: C_9  and  C_10
REMARK    5  A    between atoms: C_12  and  C_13
REMARK                            x       y       z     vdW  Elec       q    Type
REMARK                         _______ _______ _______ _____ _____    ______ ____
ROOT
ATOM      1  C   UNL     1      43.643   5.598  10.817  0.00  0.00    +0.000 C 
ENDROOT
BRANCH   1   2
ATOM      2  C   UNL     1      44.650   6.253  11.730  0.00  0.00    +0.000 A 
ATOM      3  C   UNL     1      45.370   5.524  12.691  0.00  0.00    +0.000 A 
ATOM      4  C   UNL     1      46.370   6.119  13.487  0.00  0.00    +0.000 A 
ATOM      5  C   UNL     1      46.627   7.488  13.286  0.00  0.00    +0.000 A 
ATOM      6  C   UNL     1      45.920   8.228  12.333  0.00  0.00    +0.000 A 
ATOM      7  C   UNL     1      44.949   7.604  11.563  0.00  0.00    +0.000 A 
ATOM      8  F   UNL     1      44.305   8.324  10.632  0.00  0.00    +0.000 F 
BRANCH   4   9
ATOM      9  C   UNL     1      47.123   5.326  14.488  0.00  0.00    +0.000 A 
ATOM     10  C   UNL     1      47.021   3.928  14.543  0.00  0.00    +0.000 A 
ATOM     11  C   UNL     1      47.728   3.225  15.508  0.00  0.00    +0.000 A 
ATOM     12  N   UNL     1      48.539   3.807  16.413  0.00  0.00    +0.000 NA
ATOM     13  C   UNL     1      48.643   5.148  16.351  0.00  0.00    +0.000 A 
ATOM     14  C   UNL     1      47.965   5.935  15.430  0.00  0.00    +0.000 A 
ENDBRANCH   4   9
ENDBRANCH   1   2
BRANCH   1  15
ATOM     15  O   UNL     1      43.771   4.172  10.864  0.00  0.00    +0.000 OA
BRANCH  15  19
ATOM     16  C   UNL     1      46.090   2.654   7.819  0.00  0.00    +0.000 A 
ATOM     17  C   UNL     1      45.528   1.786   8.757  0.00  0.00    +0.000 A 
ATOM     18  C   UNL     1      44.741   2.313   9.784  0.00  0.00    +0.000 A 
ATOM     19  C   UNL     1      44.550   3.686   9.834  0.00  0.00    +0.000 A 
ATOM     20  N   UNL     1      45.089   4.547   8.944  0.00  0.00    +0.000 NA
ATOM     21  C   UNL     1      45.853   4.013   7.962  0.00  0.00    +0.000 A 
BRANCH  16  23
ATOM     22  N   UNL     1      47.378   3.156   5.818  0.00  0.00    +0.000 N 
ATOM     23  C   UNL     1      46.947   2.207   6.702  0.00  0.00    +0.000 C 
ATOM     24  O   UNL     1      47.289   1.038   6.590  0.00  0.00    +0.000 OA
ATOM     25  H   UNL     1      48.050   2.846   5.126  0.00  0.00    +0.000 HD
ATOM     26  H   UNL     1      47.331   4.146   6.011  0.00  0.00    +0.000 HD
ENDBRANCH  16  23
ENDBRANCH  15  19
ENDBRANCH   1  15
TORSDOF 5
ENDMDL
MODEL 9
REMARK VINA RESULT:    -6.414      5.825      8.109
REMARK INTER + INTRA:          -9.269
REMARK INTER:                  -8.660
REMARK INTRA:                  -0.609
REMARK UNBOUND:                -0.980
REMARK  Name = 
REMARK  5 active torsions:
REMARK  status: ('A' for Active; 'I' for Inactive)
REMARK    1  A    between atoms: C_2  and  C_4
REMARK    2  A    between atoms: C_7  and  O_8
REMARK    3  A    between atoms: O_8  and  C_9
REMARK    4  A    between atoms: C_9  and  C_10
REMARK    5  A    between atoms: C_12  and  C_13
REMARK                            x       y       z     vdW  Elec       q    Type
REMARK                         _______ _______ _______ _____ _____    ______ ____
ROOT
ATOM      1  C   UNL     1      47.147   3.998  16.066  0.00  0.00    +0.000 C 
ENDROOT
BRANCH   1   2
ATOM      2  C   UNL     1      48.238   4.119  17.101  0.00  0.00    +0.000 A 
ATOM      3  C   UNL     1      49.439   3.397  17.005  0.00  0.00    +0.000 A 
ATOM      4  C   UNL     1      50.493   3.571  17.926  0.00  0.00    +0.000 A 
ATOM      5  C   UNL     1      50.299   4.505  18.961  0.00  0.00    +0.000 A 
ATOM      6  C   UNL     1      49.109   5.231  19.071  0.00  0.00    +0.000 A 
ATOM      7  C   UNL     1      48.099   5.038  18.139  0.00  0.00    +0.000 A 
ATOM      8  F   UNL     1      46.980   5.769  18.243  0.00  0.00    +0.000 F 
BRANCH   4   9
ATOM      9  C   UNL     1      51.755   2.804  17.798  0.00  0.00    +0.000 A 
ATOM     10  C   UNL     1      51.754   1.440  17.467  0.00  0.00    +0.000 A 
ATOM     11  C   UNL     1      52.958   0.756  17.375  0.00  0.00    +0.000 A 
ATOM     12  N   UNL     1      54.161   1.327  17.575  0.00  0.00    +0.000 NA
ATOM     13  C   UNL     1      54.158   2.639  17.882  0.00  0.00    +0.000 A 
ATOM     14  C   UNL     1      53.006   3.402  18.008  0.00  0.00    +0.000 A 
ENDBRANCH   4   9
ENDBRANCH   1   2
BRANCH   1  15
ATOM     15  O   UNL     1      47.707   3.852  14.755  0.00  0.00    +0.000 OA
BRANCH  15  19
ATOM     16  C   UNL     1      44.990   4.786  11.807  0.00  0.00    +0.000 A 
ATOM     17  C   UNL     1      45.733   5.804  12.409  0.00  0.00    +0.000 A 
ATOM     18  C   UNL     1      46.653   5.474  13.406  0.00  0.00    +0.000 A 
ATOM     19  C   UNL     1      46.793   4.141  13.764  0.00  0.00    +0.000 A 
ATOM     20  N   UNL     1      46.081   3.139  13.204  0.00  0.00    +0.000 NA
ATOM     21  C   UNL     1      45.190   3.485  12.244  0.00  0.00    +0.000 A 
BRANCH  16  23
ATOM     22  N   UNL     1      43.175   6.118  10.886  0.00  0.00    +0.000 N 
ATOM     23  C   UNL     1      43.982   5.023  10.753  0.00  0.00    +0.000 C 
ATOM     24  O   UNL     1      43.894   4.287   9.779  0.00  0.00    +0.000 OA
ATOM     25  H   UNL     1      42.567   6.319  10.101  0.00  0.00    +0.000 HD
ATOM     26  H   UNL     1      43.378   6.873  11.526  0.00  0.00    +0.000 HD
ENDBRANCH  16  23
ENDBRANCH  15  19
ENDBRANCH   1  15
TORSDOF 5
ENDMDL
