MODEL 1
REMARK VINA RESULT:    -8.575      0.000      0.000
REMARK INTER + INTRA:         -12.788
REMARK INTER:                 -11.583
REMARK INTRA:                  -1.205
REMARK UNBOUND:                -1.205
REMARK  Name = 
REMARK  10 active torsions:
REMARK  status: ('A' for Active; 'I' for Inactive)
REMARK    1  A    between atoms: C_1  and  C_2
REMARK    2  A    between atoms: N_4  and  C_5
REMARK    3  A    between atoms: C_9  and  C_10
REMARK    4  A    between atoms: C_10  and  C_11
REMARK    5  A    between atoms: C_10  and  C_12
REMARK    6  A    between atoms: C_10  and  C_13
REMARK    7  A    between atoms: C_13  and  N_14
REMARK    8  A    between atoms: N_14  and  C_15
REMARK    9  A    between atoms: C_18  and  C_19
REMARK   10  A    between atoms: C_27  and  C_28
REMARK                            x       y       z     vdW  Elec       q    Type
REMARK                         _______ _______ _______ _____ _____    ______ ____
ROOT
ATOM      1  C   UNL     1      43.921   4.754  12.339  0.00  0.00    +0.000 C 
ATOM      2  C   UNL     1      43.672   3.290  12.763  0.00  0.00    +0.000 C 
ATOM      3  C   UNL     1      42.830   5.640  12.989  0.00  0.00    +0.000 C 
ENDROOT
BRANCH   1   8
ATOM      4  C   UNL     1      47.225   6.789  12.587  0.00  0.00    +0.000 A 
ATOM      5  C   UNL     1      47.842   6.141  13.663  0.00  0.00    +0.000 A 
ATOM      6  C   UNL     1      47.260   5.039  14.281  0.00  0.00    +0.000 A 
ATOM      7  C   UNL     1      46.019   4.571  13.853  0.00  0.00    +0.000 A 
ATOM      8  C   UNL     1      45.341   5.188  12.791  0.00  0.00    +0.000 A 
ATOM      9  C   UNL     1      45.995   6.265  12.152  0.00  0.00    +0.000 A 
BRANCH   4  13
ATOM     10  C   UNL     1      48.662   9.687  14.468  0.00  0.00    +0.000 C 
ATOM     11  C   UNL     1      48.528  10.054  12.991  0.00  0.00    +0.000 C 
ATOM     12  C   UNL     1      47.416   9.269  12.265  0.00  0.00    +0.000 C 
ATOM     13  N   UNL     1      47.824   7.885  11.997  0.00  0.00    +0.000 N 
ATOM     14  C   UNL     1      49.140   7.755  11.349  0.00  0.00    +0.000 C 
ATOM     15  C   UNL     1      50.202   8.573  12.118  0.00  0.00    +0.000 C 
ATOM     16  C   UNL     1      51.520   8.590  11.354  0.00  0.00    +0.000 C 
ATOM     17  O   UNL     1      49.792   9.941  12.307  0.00  0.00    +0.000 OA
ENDBRANCH   4  13
ENDBRANCH   1   8
BRANCH   1  18
ATOM     18  C   UNL     1      43.814   4.866  10.778  0.00  0.00    +0.000 C 
BRANCH  18  19
ATOM     19  N   UNL     1      43.746   3.554  10.109  0.00  0.00    +0.000 N 
ATOM     20  H   UNL     1      42.810   3.319   9.791  0.00  0.00    +0.000 HD
BRANCH  19  21
ATOM     21  C   UNL     1      44.697   3.250   9.127  0.00  0.00    +0.000 A 
ATOM     22  C   UNL     1      45.332   4.228   8.355  0.00  0.00    +0.000 A 
ATOM     23  C   UNL     1      46.339   3.891   7.440  0.00  0.00    +0.000 A 
ATOM     24  C   UNL     1      46.747   2.565   7.292  0.00  0.00    +0.000 A 
ATOM     25  C   UNL     1      46.141   1.591   8.078  0.00  0.00    +0.000 A 
ATOM     26  F   UNL     1      46.498   0.298   7.988  0.00  0.00    +0.000 F 
ATOM     27  C   UNL     1      45.141   1.927   8.995  0.00  0.00    +0.000 A 
BRANCH  24  28
ATOM     28  C   UNL     1      47.813   2.270   6.306  0.00  0.00    +0.000 C 
ATOM     29  N   UNL     1      47.795   2.935   5.111  0.00  0.00    +0.000 N 
ATOM     30  O   UNL     1      48.694   1.452   6.535  0.00  0.00    +0.000 OA
ATOM     31  H   UNL     1      47.086   3.617   4.869  0.00  0.00    +0.000 HD
ATOM     32  H   UNL     1      48.523   2.730   4.440  0.00  0.00    +0.000 HD
ENDBRANCH  24  28
ENDBRANCH  19  21
ENDBRANCH  18  19
ENDBRANCH   1  18
TORSDOF 6
ENDMDL
MODEL 2
REMARK VINA RESULT:    -7.940      1.372      2.157
REMARK INTER + INTRA:         -11.929
REMARK INTER:                 -10.902
REMARK INTRA:                  -1.027
REMARK UNBOUND:                -1.205
REMARK  Name = 
REMARK  10 active torsions:
REMARK  status: ('A' for Active; 'I' for Inactive)
REMARK    1  A    between atoms: C_1  and  C_2
REMARK    2  A    between atoms: N_4  and  C_5
REMARK    3  A    between atoms: C_9  and  C_10
REMARK    4  A    between atoms: C_10  and  C_11
REMARK    5  A    between atoms: C_10  and  C_12
REMARK    6  A    between atoms: C_10  and  C_13
REMARK    7  A    between atoms: C_13  and  N_14
REMARK    8  A    between atoms: N_14  and  C_15
REMARK    9  A    between atoms: C_18  and  C_19
REMARK   10  A    between atoms: C_27  and  C_28
REMARK                            x       y       z     vdW  Elec       q    Type
REMARK                         _______ _______ _______ _____ _____    ______ ____
ROOT
ATOM      1  C   UNL     1      44.262   5.450  12.090  0.00  0.00    +0.000 C 
ATOM      2  C   UNL     1      45.507   4.569  12.336  0.00  0.00    +0.000 C 
ATOM      3  C   UNL     1      43.280   5.242  13.269  0.00  0.00    +0.000 C 
ENDROOT
BRANCH   1   8
ATOM      4  C   UNL     1      46.454   8.654  12.310  0.00  0.00    +0.000 A 
ATOM      5  C   UNL     1      45.627   9.573  11.653  0.00  0.00    +0.000 A 
ATOM      6  C   UNL     1      44.367   9.215  11.188  0.00  0.00    +0.000 A 
ATOM      7  C   UNL     1      43.908   7.909  11.341  0.00  0.00    +0.000 A 
ATOM      8  C   UNL     1      44.696   6.936  11.975  0.00  0.00    +0.000 A 
ATOM      9  C   UNL     1      45.944   7.356  12.487  0.00  0.00    +0.000 A 
BRANCH   4  13
ATOM     10  C   UNL     1      48.574   6.645  14.650  0.00  0.00    +0.000 C 
ATOM     11  C   UNL     1      49.132   8.064  14.546  0.00  0.00    +0.000 C 
ATOM     12  C   UNL     1      48.066   9.115  14.176  0.00  0.00    +0.000 C 
ATOM     13  N   UNL     1      47.704   9.036  12.756  0.00  0.00    +0.000 N 
ATOM     14  C   UNL     1      48.855   9.032  11.836  0.00  0.00    +0.000 C 
ATOM     15  C   UNL     1      49.888   7.969  12.271  0.00  0.00    +0.000 C 
ATOM     16  C   UNL     1      51.157   8.083  11.435  0.00  0.00    +0.000 C 
ATOM     17  O   UNL     1      50.263   8.117  13.653  0.00  0.00    +0.000 OA
ENDBRANCH   4  13
ENDBRANCH   1   8
BRANCH   1  18
ATOM     18  C   UNL     1      43.568   5.005  10.756  0.00  0.00    +0.000 C 
BRANCH  18  19
ATOM     19  N   UNL     1      43.859   3.605  10.395  0.00  0.00    +0.000 N 
ATOM     20  H   UNL     1      43.025   3.026  10.350  0.00  0.00    +0.000 HD
BRANCH  19  21
ATOM     21  C   UNL     1      44.700   3.354   9.304  0.00  0.00    +0.000 A 
ATOM     22  C   UNL     1      45.170   4.363   8.457  0.00  0.00    +0.000 A 
ATOM     23  C   UNL     1      46.077   4.084   7.425  0.00  0.00    +0.000 A 
ATOM     24  C   UNL     1      46.550   2.785   7.232  0.00  0.00    +0.000 A 
ATOM     25  C   UNL     1      46.111   1.782   8.088  0.00  0.00    +0.000 A 
ATOM     26  F   UNL     1      46.540   0.514   7.958  0.00  0.00    +0.000 F 
ATOM     27  C   UNL     1      45.212   2.062   9.121  0.00  0.00    +0.000 A 
BRANCH  24  28
ATOM     28  C   UNL     1      47.504   2.551   6.122  0.00  0.00    +0.000 C 
ATOM     29  N   UNL     1      48.724   2.007   6.417  0.00  0.00    +0.000 N 
ATOM     30  O   UNL     1      47.226   2.834   4.963  0.00  0.00    +0.000 OA
ATOM     31  H   UNL     1      49.005   1.760   7.358  0.00  0.00    +0.000 HD
ATOM     32  H   UNL     1      49.372   1.850   5.657  0.00  0.00    +0.000 HD
ENDBRANCH  24  28
ENDBRANCH  19  21
ENDBRANCH  18  19
ENDBRANCH   1  18
TORSDOF 6
ENDMDL
MODEL 3
REMARK VINA RESULT:    -7.153      3.721      6.216
REMARK INTER + INTRA:         -10.867
REMARK INTER:                  -9.392
REMARK INTRA:                  -1.475
REMARK UNBOUND:                -1.205
REMARK  Name = 
REMARK  10 active torsions:
REMARK  status: ('A' for Active; 'I' for Inactive)
REMARK    1  A    between atoms: C_1  and  C_2
REMARK    2  A    between atoms: N_4  and  C_5
REMARK    3  A    between atoms: C_9  and  C_10
REMARK    4  A    between atoms: C_10  and  C_11
REMARK    5  A    between atoms: C_10  and  C_12
REMARK    6  A    between atoms: C_10  and  C_13
REMARK    7  A    between atoms: C_13  and  N_14
REMARK    8  A    between atoms: N_14  and  C_15
REMARK    9  A    between atoms: C_18  and  C_19
REMARK   10  A    between atoms: C_27  and  C_28
REMARK                            x       y       z     vdW  Elec       q    Type
REMARK                         _______ _______ _______ _____ _____    ______ ____
ROOT
ATOM      1  C   UNL     1      48.568   8.318  13.383  0.00  0.00    +0.000 C 
ATOM      2  C   UNL     1      48.502   9.861  13.350  0.00  0.00    +0.000 C 
ATOM      3  C   UNL     1      48.902   7.816  11.957  0.00  0.00    +0.000 C 
ENDROOT
BRANCH   1   8
ATOM      4  C   UNL     1      50.268   6.428  16.326  0.00  0.00    +0.000 A 
ATOM      5  C   UNL     1      51.586   6.881  16.192  0.00  0.00    +0.000 A 
ATOM      6  C   UNL     1      51.940   7.814  15.222  0.00  0.00    +0.000 A 
ATOM      7  C   UNL     1      50.982   8.298  14.334  0.00  0.00    +0.000 A 
ATOM      8  C   UNL     1      49.648   7.870  14.405  0.00  0.00    +0.000 A 
ATOM      9  C   UNL     1      49.318   6.969  15.442  0.00  0.00    +0.000 A 
BRANCH   4  13
ATOM     10  C   UNL     1      47.376   4.063  16.113  0.00  0.00    +0.000 C 
ATOM     11  C   UNL     1      47.918   4.079  17.541  0.00  0.00    +0.000 C 
ATOM     12  C   UNL     1      48.621   5.400  17.914  0.00  0.00    +0.000 C 
ATOM     13  N   UNL     1      49.947   5.496  17.293  0.00  0.00    +0.000 N 
ATOM     14  C   UNL     1      50.799   4.311  17.497  0.00  0.00    +0.000 C 
ATOM     15  C   UNL     1      50.030   3.025  17.118  0.00  0.00    +0.000 C 
ATOM     16  C   UNL     1      50.839   1.789  17.496  0.00  0.00    +0.000 C 
ATOM     17  O   UNL     1      48.762   2.938  17.794  0.00  0.00    +0.000 OA
ENDBRANCH   4  13
ENDBRANCH   1   8
BRANCH   1  18
ATOM     18  C   UNL     1      47.173   7.749  13.818  0.00  0.00    +0.000 C 
BRANCH  18  19
ATOM     19  N   UNL     1      46.176   7.775  12.731  0.00  0.00    +0.000 N 
ATOM     20  H   UNL     1      46.492   8.293  11.916  0.00  0.00    +0.000 HD
BRANCH  19  21
ATOM     21  C   UNL     1      45.565   6.573  12.352  0.00  0.00    +0.000 A 
ATOM     22  C   UNL     1      44.533   6.507  11.410  0.00  0.00    +0.000 A 
ATOM     23  C   UNL     1      44.004   5.277  10.997  0.00  0.00    +0.000 A 
ATOM     24  C   UNL     1      44.512   4.081  11.504  0.00  0.00    +0.000 A 
ATOM     25  C   UNL     1      45.558   4.137  12.419  0.00  0.00    +0.000 A 
ATOM     26  F   UNL     1      46.096   3.018  12.935  0.00  0.00    +0.000 F 
ATOM     27  C   UNL     1      46.091   5.363  12.827  0.00  0.00    +0.000 A 
BRANCH  24  28
ATOM     28  C   UNL     1      43.909   2.812  11.032  0.00  0.00    +0.000 C 
ATOM     29  N   UNL     1      44.441   2.211   9.925  0.00  0.00    +0.000 N 
ATOM     30  O   UNL     1      42.954   2.302  11.604  0.00  0.00    +0.000 OA
ATOM     31  H   UNL     1      45.227   2.594   9.413  0.00  0.00    +0.000 HD
ATOM     32  H   UNL     1      44.025   1.347   9.606  0.00  0.00    +0.000 HD
ENDBRANCH  24  28
ENDBRANCH  19  21
ENDBRANCH  18  19
ENDBRANCH   1  18
TORSDOF 6
ENDMDL
MODEL 4
REMARK VINA RESULT:    -7.145      3.617      6.185
REMARK INTER + INTRA:         -10.856
REMARK INTER:                  -9.463
REMARK INTRA:                  -1.393
REMARK UNBOUND:                -1.205
REMARK  Name = 
REMARK  10 active torsions:
REMARK  status: ('A' for Active; 'I' for Inactive)
REMARK    1  A    between atoms: C_1  and  C_2
REMARK    2  A    between atoms: N_4  and  C_5
REMARK    3  A    between atoms: C_9  and  C_10
REMARK    4  A    between atoms: C_10  and  C_11
REMARK    5  A    between atoms: C_10  and  C_12
REMARK    6  A    between atoms: C_10  and  C_13
REMARK    7  A    between atoms: C_13  and  N_14
REMARK    8  A    between atoms: N_14  and  C_15
REMARK    9  A    between atoms: C_18  and  C_19
REMARK   10  A    between atoms: C_27  and  C_28
REMARK                            x       y       z     vdW  Elec       q    Type
REMARK                         _______ _______ _______ _____ _____    ______ ____
ROOT
ATOM      1  C   UNL     1      48.382   8.464  12.790  0.00  0.00    +0.000 C 
ATOM      2  C   UNL     1      49.104   9.687  12.180  0.00  0.00    +0.000 C 
ATOM      3  C   UNL     1      49.030   7.181  12.212  0.00  0.00    +0.000 C 
ENDROOT
BRANCH   1   8
ATOM      4  C   UNL     1      48.971   7.305  16.454  0.00  0.00    +0.000 A 
ATOM      5  C   UNL     1      48.909   8.533  17.122  0.00  0.00    +0.000 A 
ATOM      6  C   UNL     1      48.633   9.717  16.446  0.00  0.00    +0.000 A 
ATOM      7  C   UNL     1      48.439   9.706  15.066  0.00  0.00    +0.000 A 
ATOM      8  C   UNL     1      48.506   8.510  14.336  0.00  0.00    +0.000 A 
ATOM      9  C   UNL     1      48.728   7.323  15.069  0.00  0.00    +0.000 A 
BRANCH   4  13
ATOM     10  C   UNL     1      47.703   6.532  19.889  0.00  0.00    +0.000 C 
ATOM     11  C   UNL     1      48.827   5.562  19.530  0.00  0.00    +0.000 C 
ATOM     12  C   UNL     1      49.824   6.135  18.502  0.00  0.00    +0.000 C 
ATOM     13  N   UNL     1      49.254   6.146  17.150  0.00  0.00    +0.000 N 
ATOM     14  C   UNL     1      48.665   4.863  16.730  0.00  0.00    +0.000 C 
ATOM     15  C   UNL     1      47.689   4.341  17.808  0.00  0.00    +0.000 C 
ATOM     16  C   UNL     1      47.216   2.933  17.464  0.00  0.00    +0.000 C 
ATOM     17  O   UNL     1      48.304   4.287  19.109  0.00  0.00    +0.000 OA
ENDBRANCH   4  13
ENDBRANCH   1   8
BRANCH   1  18
ATOM     18  C   UNL     1      46.867   8.503  12.387  0.00  0.00    +0.000 C 
BRANCH  18  19
ATOM     19  N   UNL     1      46.012   7.700  13.281  0.00  0.00    +0.000 N 
ATOM     20  H   UNL     1      45.323   8.258  13.776  0.00  0.00    +0.000 HD
BRANCH  19  21
ATOM     21  C   UNL     1      45.437   6.525  12.781  0.00  0.00    +0.000 A 
ATOM     22  C   UNL     1      44.411   6.523  11.831  0.00  0.00    +0.000 A 
ATOM     23  C   UNL     1      43.918   5.326  11.294  0.00  0.00    +0.000 A 
ATOM     24  C   UNL     1      44.459   4.100  11.685  0.00  0.00    +0.000 A 
ATOM     25  C   UNL     1      45.499   4.095  12.607  0.00  0.00    +0.000 A 
ATOM     26  F   UNL     1      46.067   2.946  13.014  0.00  0.00    +0.000 F 
ATOM     27  C   UNL     1      45.995   5.289  13.138  0.00  0.00    +0.000 A 
BRANCH  24  28
ATOM     28  C   UNL     1      43.893   2.868  11.086  0.00  0.00    +0.000 C 
ATOM     29  N   UNL     1      44.501   2.345   9.978  0.00  0.00    +0.000 N 
ATOM     30  O   UNL     1      42.904   2.319  11.555  0.00  0.00    +0.000 OA
ATOM     31  H   UNL     1      45.317   2.763   9.547  0.00  0.00    +0.000 HD
ATOM     32  H   UNL     1      44.111   1.506   9.571  0.00  0.00    +0.000 HD
ENDBRANCH  24  28
ENDBRANCH  19  21
ENDBRANCH  18  19
ENDBRANCH   1  18
TORSDOF 6
ENDMDL
MODEL 5
REMARK VINA RESULT:    -7.108      3.595      6.123
REMARK INTER + INTRA:         -10.806
REMARK INTER:                  -9.390
REMARK INTRA:                  -1.416
REMARK UNBOUND:                -1.205
REMARK  Name = 
REMARK  10 active torsions:
REMARK  status: ('A' for Active; 'I' for Inactive)
REMARK    1  A    between atoms: C_1  and  C_2
REMARK    2  A    between atoms: N_4  and  C_5
REMARK    3  A    between atoms: C_9  and  C_10
REMARK    4  A    between atoms: C_10  and  C_11
REMARK    5  A    between atoms: C_10  and  C_12
REMARK    6  A    between atoms: C_10  and  C_13
REMARK    7  A    between atoms: C_13  and  N_14
REMARK    8  A    between atoms: N_14  and  C_15
REMARK    9  A    between atoms: C_18  and  C_19
REMARK   10  A    between atoms: C_27  and  C_28
REMARK                            x       y       z     vdW  Elec       q    Type
REMARK                         _______ _______ _______ _____ _____    ______ ____
ROOT
ATOM      1  C   UNL     1      48.598   8.069  13.179  0.00  0.00    +0.000 C 
ATOM      2  C   UNL     1      49.597   9.098  12.604  0.00  0.00    +0.000 C 
ATOM      3  C   UNL     1      49.094   6.650  12.805  0.00  0.00    +0.000 C 
ENDROOT
BRANCH   1   8
ATOM      4  C   UNL     1      48.655   7.222  16.974  0.00  0.00    +0.000 A 
ATOM      5  C   UNL     1      48.517   8.502  17.522  0.00  0.00    +0.000 A 
ATOM      6  C   UNL     1      48.352   9.625  16.717  0.00  0.00    +0.000 A 
ATOM      7  C   UNL     1      48.353   9.498  15.330  0.00  0.00    +0.000 A 
ATOM      8  C   UNL     1      48.506   8.245  14.718  0.00  0.00    +0.000 A 
ATOM      9  C   UNL     1      48.608   7.123  15.572  0.00  0.00    +0.000 A 
BRANCH   4  13
ATOM     10  C   UNL     1      47.515   3.755  16.146  0.00  0.00    +0.000 C 
ATOM     11  C   UNL     1      47.867   3.835  17.631  0.00  0.00    +0.000 C 
ATOM     12  C   UNL     1      47.720   5.254  18.217  0.00  0.00    +0.000 C 
ATOM     13  N   UNL     1      48.823   6.126  17.797  0.00  0.00    +0.000 N 
ATOM     14  C   UNL     1      50.164   5.550  18.004  0.00  0.00    +0.000 C 
ATOM     15  C   UNL     1      50.237   4.128  17.406  0.00  0.00    +0.000 C 
ATOM     16  C   UNL     1      51.557   3.460  17.774  0.00  0.00    +0.000 C 
ATOM     17  O   UNL     1      49.174   3.286  17.890  0.00  0.00    +0.000 OA
ENDBRANCH   4  13
ENDBRANCH   1   8
BRANCH   1  18
ATOM     18  C   UNL     1      47.185   8.307  12.541  0.00  0.00    +0.000 C 
BRANCH  18  19
ATOM     19  N   UNL     1      46.095   7.669  13.302  0.00  0.00    +0.000 N 
ATOM     20  H   UNL     1      45.386   8.329  13.608  0.00  0.00    +0.000 HD
BRANCH  19  21
ATOM     21  C   UNL     1      45.505   6.509  12.783  0.00  0.00    +0.000 A 
ATOM     22  C   UNL     1      44.500   6.534  11.812  0.00  0.00    +0.000 A 
ATOM     23  C   UNL     1      43.993   5.351  11.258  0.00  0.00    +0.000 A 
ATOM     24  C   UNL     1      44.499   4.111  11.651  0.00  0.00    +0.000 A 
ATOM     25  C   UNL     1      45.520   4.078  12.595  0.00  0.00    +0.000 A 
ATOM     26  F   UNL     1      46.056   2.916  13.006  0.00  0.00    +0.000 F 
ATOM     27  C   UNL     1      46.030   5.259  13.143  0.00  0.00    +0.000 A 
BRANCH  24  28
ATOM     28  C   UNL     1      43.921   2.895  11.033  0.00  0.00    +0.000 C 
ATOM     29  N   UNL     1      44.501   2.405   9.895  0.00  0.00    +0.000 N 
ATOM     30  O   UNL     1      42.945   2.331  11.512  0.00  0.00    +0.000 OA
ATOM     31  H   UNL     1      45.305   2.837   9.456  0.00  0.00    +0.000 HD
ATOM     32  H   UNL     1      44.102   1.576   9.476  0.00  0.00    +0.000 HD
ENDBRANCH  24  28
ENDBRANCH  19  21
ENDBRANCH  18  19
ENDBRANCH   1  18
TORSDOF 6
ENDMDL
MODEL 6
REMARK VINA RESULT:    -7.096      3.593      7.934
REMARK INTER + INTRA:         -10.789
REMARK INTER:                  -9.657
REMARK INTRA:                  -1.132
REMARK UNBOUND:                -1.205
REMARK  Name = 
REMARK  10 active torsions:
REMARK  status: ('A' for Active; 'I' for Inactive)
REMARK    1  A    between atoms: C_1  and  C_2
REMARK    2  A    between atoms: N_4  and  C_5
REMARK    3  A    between atoms: C_9  and  C_10
REMARK    4  A    between atoms: C_10  and  C_11
REMARK    5  A    between atoms: C_10  and  C_12
REMARK    6  A    between atoms: C_10  and  C_13
REMARK    7  A    between atoms: C_13  and  N_14
REMARK    8  A    between atoms: N_14  and  C_15
REMARK    9  A    between atoms: C_18  and  C_19
REMARK   10  A    between atoms: C_27  and  C_28
REMARK                            x       y       z     vdW  Elec       q    Type
REMARK                         _______ _______ _______ _____ _____    ______ ____
ROOT
ATOM      1  C   UNL     1      48.534   9.328  12.903  0.00  0.00    +0.000 C 
ATOM      2  C   UNL     1      49.680   8.607  12.157  0.00  0.00    +0.000 C 
ATOM      3  C   UNL     1      48.721  10.854  12.719  0.00  0.00    +0.000 C 
ENDROOT
BRANCH   1   8
ATOM      4  C   UNL     1      45.695   6.971  11.678  0.00  0.00    +0.000 A 
ATOM      5  C   UNL     1      44.670   7.900  11.459  0.00  0.00    +0.000 A 
ATOM      6  C   UNL     1      44.874   9.264  11.639  0.00  0.00    +0.000 A 
ATOM      7  C   UNL     1      46.109   9.736  12.077  0.00  0.00    +0.000 A 
ATOM      8  C   UNL     1      47.171   8.855  12.332  0.00  0.00    +0.000 A 
ATOM      9  C   UNL     1      46.941   7.484  12.078  0.00  0.00    +0.000 A 
BRANCH   4  13
ATOM     10  C   UNL     1      42.317   5.366  11.809  0.00  0.00    +0.000 C 
ATOM     11  C   UNL     1      43.397   4.287  11.873  0.00  0.00    +0.000 C 
ATOM     12  C   UNL     1      44.731   4.792  12.462  0.00  0.00    +0.000 C 
ATOM     13  N   UNL     1      45.462   5.622  11.498  0.00  0.00    +0.000 N 
ATOM     14  C   UNL     1      45.613   5.013  10.164  0.00  0.00    +0.000 C 
ATOM     15  C   UNL     1      44.245   4.518   9.642  0.00  0.00    +0.000 C 
ATOM     16  C   UNL     1      44.421   3.729   8.350  0.00  0.00    +0.000 C 
ATOM     17  O   UNL     1      43.587   3.658  10.590  0.00  0.00    +0.000 OA
ENDBRANCH   4  13
ENDBRANCH   1   8
BRANCH   1  18
ATOM     18  C   UNL     1      48.610   8.978  14.430  0.00  0.00    +0.000 C 
BRANCH  18  19
ATOM     19  N   UNL     1      49.595   7.924  14.732  0.00  0.00    +0.000 N 
ATOM     20  H   UNL     1      50.465   8.290  15.107  0.00  0.00    +0.000 HD
BRANCH  19  21
ATOM     21  C   UNL     1      49.175   6.799  15.453  0.00  0.00    +0.000 A 
ATOM     22  C   UNL     1      49.651   6.493  16.731  0.00  0.00    +0.000 A 
ATOM     23  C   UNL     1      49.145   5.404  17.455  0.00  0.00    +0.000 A 
ATOM     24  C   UNL     1      48.131   4.608  16.919  0.00  0.00    +0.000 A 
ATOM     25  C   UNL     1      47.631   4.924  15.661  0.00  0.00    +0.000 A 
ATOM     26  F   UNL     1      46.648   4.201  15.096  0.00  0.00    +0.000 F 
ATOM     27  C   UNL     1      48.132   6.014  14.942  0.00  0.00    +0.000 A 
BRANCH  24  28
ATOM     28  C   UNL     1      47.640   3.469  17.729  0.00  0.00    +0.000 C 
ATOM     29  N   UNL     1      48.365   3.089  18.825  0.00  0.00    +0.000 N 
ATOM     30  O   UNL     1      46.613   2.868  17.439  0.00  0.00    +0.000 OA
ATOM     31  H   UNL     1      49.223   3.549  19.105  0.00  0.00    +0.000 HD
ATOM     32  H   UNL     1      48.027   2.310  19.374  0.00  0.00    +0.000 HD
ENDBRANCH  24  28
ENDBRANCH  19  21
ENDBRANCH  18  19
ENDBRANCH   1  18
TORSDOF 6
ENDMDL
MODEL 7
REMARK VINA RESULT:    -6.655      4.298      7.077
REMARK INTER + INTRA:         -10.194
REMARK INTER:                  -8.623
REMARK INTRA:                  -1.571
REMARK UNBOUND:                -1.205
REMARK  Name = 
REMARK  10 active torsions:
REMARK  status: ('A' for Active; 'I' for Inactive)
REMARK    1  A    between atoms: C_1  and  C_2
REMARK    2  A    between atoms: N_4  and  C_5
REMARK    3  A    between atoms: C_9  and  C_10
REMARK    4  A    between atoms: C_10  and  C_11
REMARK    5  A    between atoms: C_10  and  C_12
REMARK    6  A    between atoms: C_10  and  C_13
REMARK    7  A    between atoms: C_13  and  N_14
REMARK    8  A    between atoms: N_14  and  C_15
REMARK    9  A    between atoms: C_18  and  C_19
REMARK   10  A    between atoms: C_27  and  C_28
REMARK                            x       y       z     vdW  Elec       q    Type
REMARK                         _______ _______ _______ _____ _____    ______ ____
ROOT
ATOM      1  C   UNL     1      49.418   8.826  14.095  0.00  0.00    +0.000 C 
ATOM      2  C   UNL     1      48.048   8.888  14.807  0.00  0.00    +0.000 C 
ATOM      3  C   UNL     1      49.911  10.276  13.866  0.00  0.00    +0.000 C 
ENDROOT
BRANCH   1   8
ATOM      4  C   UNL     1      50.786   6.280  16.695  0.00  0.00    +0.000 A 
ATOM      5  C   UNL     1      52.162   6.405  16.474  0.00  0.00    +0.000 A 
ATOM      6  C   UNL     1      52.672   7.317  15.556  0.00  0.00    +0.000 A 
ATOM      7  C   UNL     1      51.808   8.113  14.806  0.00  0.00    +0.000 A 
ATOM      8  C   UNL     1      50.417   8.022  14.968  0.00  0.00    +0.000 A 
ATOM      9  C   UNL     1      49.944   7.128  15.954  0.00  0.00    +0.000 A 
BRANCH   4  13
ATOM     10  C   UNL     1      48.090   6.980  19.194  0.00  0.00    +0.000 C 
ATOM     11  C   UNL     1      48.799   5.676  19.560  0.00  0.00    +0.000 C 
ATOM     12  C   UNL     1      50.254   5.609  19.052  0.00  0.00    +0.000 C 
ATOM     13  N   UNL     1      50.307   5.360  17.608  0.00  0.00    +0.000 N 
ATOM     14  C   UNL     1      49.485   4.224  17.157  0.00  0.00    +0.000 C 
ATOM     15  C   UNL     1      48.047   4.347  17.710  0.00  0.00    +0.000 C 
ATOM     16  C   UNL     1      47.245   3.088  17.400  0.00  0.00    +0.000 C 
ATOM     17  O   UNL     1      48.035   4.529  19.139  0.00  0.00    +0.000 OA
ENDBRANCH   4  13
ENDBRANCH   1   8
BRANCH   1  18
ATOM     18  C   UNL     1      49.248   8.114  12.708  0.00  0.00    +0.000 C 
BRANCH  18  19
ATOM     19  N   UNL     1      49.116   6.650  12.824  0.00  0.00    +0.000 N 
ATOM     20  H   UNL     1      49.702   6.256  13.555  0.00  0.00    +0.000 HD
BRANCH  19  21
ATOM     21  C   UNL     1      47.832   6.092  12.861  0.00  0.00    +0.000 A 
ATOM     22  C   UNL     1      47.415   5.204  13.858  0.00  0.00    +0.000 A 
ATOM     23  C   UNL     1      46.096   4.732  13.907  0.00  0.00    +0.000 A 
ATOM     24  C   UNL     1      45.156   5.158  12.968  0.00  0.00    +0.000 A 
ATOM     25  C   UNL     1      45.555   6.065  11.991  0.00  0.00    +0.000 A 
ATOM     26  F   UNL     1      44.693   6.520  11.066  0.00  0.00    +0.000 F 
ATOM     27  C   UNL     1      46.869   6.540  11.946  0.00  0.00    +0.000 A 
BRANCH  24  28
ATOM     28  C   UNL     1      43.779   4.622  13.069  0.00  0.00    +0.000 C 
ATOM     29  N   UNL     1      42.735   5.505  13.066  0.00  0.00    +0.000 N 
ATOM     30  O   UNL     1      43.561   3.420  13.158  0.00  0.00    +0.000 OA
ATOM     31  H   UNL     1      42.861   6.509  13.000  0.00  0.00    +0.000 HD
ATOM     32  H   UNL     1      41.797   5.135  13.137  0.00  0.00    +0.000 HD
ENDBRANCH  24  28
ENDBRANCH  19  21
ENDBRANCH  18  19
ENDBRANCH   1  18
TORSDOF 6
ENDMDL
MODEL 8
REMARK VINA RESULT:    -5.965      2.723      5.233
REMARK INTER + INTRA:          -9.263
REMARK INTER:                  -8.376
REMARK INTRA:                  -0.886
REMARK UNBOUND:                -1.205
REMARK  Name = 
REMARK  10 active torsions:
REMARK  status: ('A' for Active; 'I' for Inactive)
REMARK    1  A    between atoms: C_1  and  C_2
REMARK    2  A    between atoms: N_4  and  C_5
REMARK    3  A    between atoms: C_9  and  C_10
REMARK    4  A    between atoms: C_10  and  C_11
REMARK    5  A    between atoms: C_10  and  C_12
REMARK    6  A    between atoms: C_10  and  C_13
REMARK    7  A    between atoms: C_13  and  N_14
REMARK    8  A    between atoms: N_14  and  C_15
REMARK    9  A    between atoms: C_18  and  C_19
REMARK   10  A    between atoms: C_27  and  C_28
REMARK                            x       y       z     vdW  Elec       q    Type
REMARK                         _______ _______ _______ _____ _____    ______ ____
ROOT
ATOM      1  C   UNL     1      48.019   8.359  13.284  0.00  0.00    +0.000 C 
ATOM      2  C   UNL     1      48.759   7.013  13.110  0.00  0.00    +0.000 C 
ATOM      3  C   UNL     1      48.155   8.798  14.763  0.00  0.00    +0.000 C 
ENDROOT
BRANCH   1   8
ATOM      4  C   UNL     1      50.599  10.203  11.036  0.00  0.00    +0.000 A 
ATOM      5  C   UNL     1      49.782  11.184  10.462  0.00  0.00    +0.000 A 
ATOM      6  C   UNL     1      48.441  11.309  10.810  0.00  0.00    +0.000 A 
ATOM      7  C   UNL     1      47.871  10.429  11.727  0.00  0.00    +0.000 A 
ATOM      8  C   UNL     1      48.632   9.413  12.325  0.00  0.00    +0.000 A 
ATOM      9  C   UNL     1      50.004   9.359  11.990  0.00  0.00    +0.000 A 
BRANCH   4  13
ATOM     10  C   UNL     1      52.268   7.014  10.012  0.00  0.00    +0.000 C 
ATOM     11  C   UNL     1      53.328   8.079  10.286  0.00  0.00    +0.000 C 
ATOM     12  C   UNL     1      52.866   9.158  11.286  0.00  0.00    +0.000 C 
ATOM     13  N   UNL     1      51.926  10.098  10.666  0.00  0.00    +0.000 N 
ATOM     14  C   UNL     1      52.387  10.659   9.383  0.00  0.00    +0.000 C 
ATOM     15  C   UNL     1      52.846   9.528   8.436  0.00  0.00    +0.000 C 
ATOM     16  C   UNL     1      53.491  10.109   7.183  0.00  0.00    +0.000 C 
ATOM     17  O   UNL     1      53.813   8.663   9.061  0.00  0.00    +0.000 OA
ENDBRANCH   4  13
ENDBRANCH   1   8
BRANCH   1  18
ATOM     18  C   UNL     1      46.501   8.163  12.941  0.00  0.00    +0.000 C 
BRANCH  18  19
ATOM     19  N   UNL     1      45.985   6.841  13.342  0.00  0.00    +0.000 N 
ATOM     20  H   UNL     1      45.299   6.893  14.090  0.00  0.00    +0.000 HD
BRANCH  19  21
ATOM     21  C   UNL     1      45.568   5.952  12.343  0.00  0.00    +0.000 A 
ATOM     22  C   UNL     1      45.763   6.193  10.980  0.00  0.00    +0.000 A 
ATOM     23  C   UNL     1      45.406   5.242  10.014  0.00  0.00    +0.000 A 
ATOM     24  C   UNL     1      44.863   4.014  10.397  0.00  0.00    +0.000 A 
ATOM     25  C   UNL     1      44.694   3.755  11.752  0.00  0.00    +0.000 A 
ATOM     26  F   UNL     1      44.185   2.587  12.183  0.00  0.00    +0.000 F 
ATOM     27  C   UNL     1      45.055   4.701  12.716  0.00  0.00    +0.000 A 
BRANCH  24  28
ATOM     28  C   UNL     1      44.502   3.051   9.331  0.00  0.00    +0.000 C 
ATOM     29  N   UNL     1      44.422   3.505   8.043  0.00  0.00    +0.000 N 
ATOM     30  O   UNL     1      44.272   1.874   9.578  0.00  0.00    +0.000 OA
ATOM     31  H   UNL     1      44.597   4.470   7.786  0.00  0.00    +0.000 HD
ATOM     32  H   UNL     1      44.174   2.845   7.319  0.00  0.00    +0.000 HD
ENDBRANCH  24  28
ENDBRANCH  19  21
ENDBRANCH  18  19
ENDBRANCH   1  18
TORSDOF 6
ENDMDL
