MODEL 1
REMARK VINA RESULT:    -8.959      0.000      0.000
REMARK INTER + INTRA:         -12.871
REMARK INTER:                 -12.102
REMARK INTRA:                  -0.770
REMARK UNBOUND:                -0.770
REMARK  Name = 
REMARK  6 active torsions:
REMARK  status: ('A' for Active; 'I' for Inactive)
REMARK    1  A    between atoms: C_2  and  C_3
REMARK    2  A    between atoms: C_6  and  C_7
REMARK    3  A    between atoms: C_11  and  C_12
REMARK    4  A    between atoms: C_12  and  N_13
REMARK    5  A    between atoms: N_13  and  C_14
REMARK    6  A    between atoms: C_17  and  C_18
REMARK                            x       y       z     vdW  Elec       q    Type
REMARK                         _______ _______ _______ _____ _____    ______ ____
ROOT
ATOM      1  C   UNL     1      43.798   4.913  11.421  0.00  0.00    +0.000 C 
ATOM      2  C   UNL     1      42.494   5.344  12.096  0.00  0.00    +0.000 C 
ATOM      3  C   UNL     1      43.059   6.166  10.995  0.00  0.00    +0.000 C 
ATOM      4  F   UNL     1      43.555   7.407  11.362  0.00  0.00    +0.000 F 
ENDROOT
BRANCH   1   9
ATOM      5  C   UNL     1      47.128   6.137  12.519  0.00  0.00    +0.000 A 
ATOM      6  N   UNL     1      47.605   5.174  13.331  0.00  0.00    +0.000 NA
ATOM      7  C   UNL     1      46.784   4.144  13.581  0.00  0.00    +0.000 A 
ATOM      8  C   UNL     1      45.522   4.042  13.052  0.00  0.00    +0.000 A 
ATOM      9  C   UNL     1      45.106   5.054  12.200  0.00  0.00    +0.000 A 
ATOM     10  N   UNL     1      45.914   6.107  11.938  0.00  0.00    +0.000 NA
BRANCH   5  14
ATOM     11  C   UNL     1      49.711   9.467  11.599  0.00  0.00    +0.000 A 
ATOM     12  C   UNL     1      50.242   8.187  11.749  0.00  0.00    +0.000 A 
ATOM     13  C   UNL     1      49.401   7.110  12.054  0.00  0.00    +0.000 A 
ATOM     14  C   UNL     1      48.012   7.279  12.214  0.00  0.00    +0.000 A 
ATOM     15  C   UNL     1      47.502   8.584  12.061  0.00  0.00    +0.000 A 
ATOM     16  C   UNL     1      48.337   9.666  11.757  0.00  0.00    +0.000 A 
BRANCH  11  18
ATOM     17  N   UNL     1      51.262  11.464  11.012  0.00  0.00    +0.000 NA
ATOM     18  C   UNL     1      50.567  10.570  11.280  0.00  0.00    +0.000 C 
ENDBRANCH  11  18
ENDBRANCH   5  14
ENDBRANCH   1   9
BRANCH   1  19
ATOM     19  N   UNL     1      43.703   3.616  10.695  0.00  0.00    +0.000 N 
ATOM     20  H   UNL     1      43.552   2.812  11.301  0.00  0.00    +0.000 HD
BRANCH  19  21
ATOM     21  C   UNL     1      44.530   3.247   9.613  0.00  0.00    +0.000 A 
ATOM     22  C   UNL     1      44.967   1.945   9.368  0.00  0.00    +0.000 A 
ATOM     23  C   UNL     1      45.900   1.682   8.356  0.00  0.00    +0.000 A 
ATOM     24  C   UNL     1      46.414   2.721   7.573  0.00  0.00    +0.000 A 
ATOM     25  C   UNL     1      45.988   4.029   7.809  0.00  0.00    +0.000 A 
ATOM     26  C   UNL     1      45.061   4.283   8.824  0.00  0.00    +0.000 A 
BRANCH  24  27
ATOM     27  C   UNL     1      47.444   2.396   6.553  0.00  0.00    +0.000 C 
ATOM     28  N   UNL     1      47.452   3.134   5.400  0.00  0.00    +0.000 N 
ATOM     29  O   UNL     1      48.249   1.492   6.722  0.00  0.00    +0.000 OA
ATOM     30  H   UNL     1      46.693   3.737   5.124  0.00  0.00    +0.000 HD
ATOM     31  H   UNL     1      48.105   2.837   4.687  0.00  0.00    +0.000 HD
ENDBRANCH  24  27
ENDBRANCH  19  21
ENDBRANCH   1  19
TORSDOF 6
ENDMDL
MODEL 2
REMARK VINA RESULT:    -8.702      2.496      4.173
REMARK INTER + INTRA:         -12.524
REMARK INTER:                 -12.429
REMARK INTRA:                  -0.095
REMARK UNBOUND:                -0.770
REMARK  Name = 
REMARK  6 active torsions:
REMARK  status: ('A' for Active; 'I' for Inactive)
REMARK    1  A    between atoms: C_2  and  C_3
REMARK    2  A    between atoms: C_6  and  C_7
REMARK    3  A    between atoms: C_11  and  C_12
REMARK    4  A    between atoms: C_12  and  N_13
REMARK    5  A    between atoms: N_13  and  C_14
REMARK    6  A    between atoms: C_17  and  C_18
REMARK                            x       y       z     vdW  Elec       q    Type
REMARK                         _______ _______ _______ _____ _____    ______ ____
ROOT
ATOM      1  C   UNL     1      43.940   4.880  11.449  0.00  0.00    +0.000 C 
ATOM      2  C   UNL     1      43.334   3.731  12.257  0.00  0.00    +0.000 C 
ATOM      3  C   UNL     1      42.765   5.099  12.380  0.00  0.00    +0.000 C 
ATOM      4  F   UNL     1      42.968   5.729  13.597  0.00  0.00    +0.000 F 
ENDROOT
BRANCH   1   9
ATOM      5  C   UNL     1      46.942   5.700  13.476  0.00  0.00    +0.000 A 
ATOM      6  N   UNL     1      47.618   6.610  12.749  0.00  0.00    +0.000 NA
ATOM      7  C   UNL     1      47.118   6.897  11.539  0.00  0.00    +0.000 A 
ATOM      8  C   UNL     1      45.978   6.320  11.039  0.00  0.00    +0.000 A 
ATOM      9  C   UNL     1      45.315   5.414  11.854  0.00  0.00    +0.000 A 
ATOM     10  N   UNL     1      45.804   5.102  13.076  0.00  0.00    +0.000 NA
BRANCH   5  14
ATOM     11  C   UNL     1      48.437   4.753  17.410  0.00  0.00    +0.000 A 
ATOM     12  C   UNL     1      48.867   5.905  16.754  0.00  0.00    +0.000 A 
ATOM     13  C   UNL     1      48.385   6.206  15.475  0.00  0.00    +0.000 A 
ATOM     14  C   UNL     1      47.460   5.370  14.819  0.00  0.00    +0.000 A 
ATOM     15  C   UNL     1      47.045   4.210  15.503  0.00  0.00    +0.000 A 
ATOM     16  C   UNL     1      47.525   3.903  16.782  0.00  0.00    +0.000 A 
BRANCH  11  18
ATOM     17  N   UNL     1      49.324   4.204  19.787  0.00  0.00    +0.000 NA
ATOM     18  C   UNL     1      48.924   4.446  18.722  0.00  0.00    +0.000 C 
ENDBRANCH  11  18
ENDBRANCH   5  14
ENDBRANCH   1   9
BRANCH   1  19
ATOM     19  N   UNL     1      43.802   4.722   9.974  0.00  0.00    +0.000 N 
ATOM     20  H   UNL     1      42.838   4.723   9.645  0.00  0.00    +0.000 HD
BRANCH  19  21
ATOM     21  C   UNL     1      44.569   3.831   9.193  0.00  0.00    +0.000 A 
ATOM     22  C   UNL     1      44.684   2.464   9.446  0.00  0.00    +0.000 A 
ATOM     23  C   UNL     1      45.576   1.673   8.710  0.00  0.00    +0.000 A 
ATOM     24  C   UNL     1      46.370   2.240   7.708  0.00  0.00    +0.000 A 
ATOM     25  C   UNL     1      46.267   3.607   7.445  0.00  0.00    +0.000 A 
ATOM     26  C   UNL     1      45.379   4.390   8.188  0.00  0.00    +0.000 A 
BRANCH  24  27
ATOM     27  C   UNL     1      47.342   1.368   6.997  0.00  0.00    +0.000 C 
ATOM     28  N   UNL     1      48.510   1.937   6.567  0.00  0.00    +0.000 N 
ATOM     29  O   UNL     1      47.105   0.188   6.784  0.00  0.00    +0.000 OA
ATOM     30  H   UNL     1      48.660   2.933   6.530  0.00  0.00    +0.000 HD
ATOM     31  H   UNL     1      49.114   1.345   6.012  0.00  0.00    +0.000 HD
ENDBRANCH  24  27
ENDBRANCH  19  21
ENDBRANCH   1  19
TORSDOF 6
ENDMDL
MODEL 3
REMARK VINA RESULT:    -7.626      1.663      2.271
REMARK INTER + INTRA:         -11.071
REMARK INTER:                 -10.789
REMARK INTRA:                  -0.282
REMARK UNBOUND:                -0.770
REMARK  Name = 
REMARK  6 active torsions:
REMARK  status: ('A' for Active; 'I' for Inactive)
REMARK    1  A    between atoms: C_2  and  C_3
REMARK    2  A    between atoms: C_6  and  C_7
REMARK    3  A    between atoms: C_11  and  C_12
REMARK    4  A    between atoms: C_12  and  N_13
REMARK    5  A    between atoms: N_13  and  C_14
REMARK    6  A    between atoms: C_17  and  C_18
REMARK                            x       y       z     vdW  Elec       q    Type
REMARK                         _______ _______ _______ _____ _____    ______ ____
ROOT
ATOM      1  C   UNL     1      44.099   4.281  11.429  0.00  0.00    +0.000 C 
ATOM      2  C   UNL     1      44.886   3.262  12.256  0.00  0.00    +0.000 C 
ATOM      3  C   UNL     1      43.537   3.691  12.706  0.00  0.00    +0.000 C 
ATOM      4  F   UNL     1      43.502   4.462  13.856  0.00  0.00    +0.000 F 
ENDROOT
BRANCH   1   9
ATOM      5  C   UNL     1      46.181   7.314  11.940  0.00  0.00    +0.000 A 
ATOM      6  N   UNL     1      45.340   8.350  11.759  0.00  0.00    +0.000 NA
ATOM      7  C   UNL     1      44.089   8.046  11.387  0.00  0.00    +0.000 A 
ATOM      8  C   UNL     1      43.653   6.759  11.197  0.00  0.00    +0.000 A 
ATOM      9  C   UNL     1      44.563   5.739  11.429  0.00  0.00    +0.000 A 
ATOM     10  N   UNL     1      45.833   6.021  11.798  0.00  0.00    +0.000 NA
BRANCH   5  14
ATOM     11  C   UNL     1      50.218   8.219  13.158  0.00  0.00    +0.000 A 
ATOM     12  C   UNL     1      49.965   7.725  11.880  0.00  0.00    +0.000 A 
ATOM     13  C   UNL     1      48.654   7.427  11.490  0.00  0.00    +0.000 A 
ATOM     14  C   UNL     1      47.563   7.615  12.361  0.00  0.00    +0.000 A 
ATOM     15  C   UNL     1      47.848   8.111  13.649  0.00  0.00    +0.000 A 
ATOM     16  C   UNL     1      49.157   8.411  14.045  0.00  0.00    +0.000 A 
BRANCH  11  18
ATOM     17  N   UNL     1      52.644   8.795  13.883  0.00  0.00    +0.000 NA
ATOM     18  C   UNL     1      51.559   8.532  13.558  0.00  0.00    +0.000 C 
ENDBRANCH  11  18
ENDBRANCH   5  14
ENDBRANCH   1   9
BRANCH   1  19
ATOM     19  N   UNL     1      43.729   3.801  10.069  0.00  0.00    +0.000 N 
ATOM     20  H   UNL     1      42.903   3.204  10.050  0.00  0.00    +0.000 HD
BRANCH  19  21
ATOM     21  C   UNL     1      44.655   3.360   9.099  0.00  0.00    +0.000 A 
ATOM     22  C   UNL     1      45.030   2.028   8.921  0.00  0.00    +0.000 A 
ATOM     23  C   UNL     1      46.060   1.688   8.033  0.00  0.00    +0.000 A 
ATOM     24  C   UNL     1      46.734   2.679   7.311  0.00  0.00    +0.000 A 
ATOM     25  C   UNL     1      46.371   4.015   7.482  0.00  0.00    +0.000 A 
ATOM     26  C   UNL     1      45.346   4.347   8.374  0.00  0.00    +0.000 A 
BRANCH  24  27
ATOM     27  C   UNL     1      47.857   2.270   6.428  0.00  0.00    +0.000 C 
ATOM     28  N   UNL     1      47.964   2.886   5.210  0.00  0.00    +0.000 N 
ATOM     29  O   UNL     1      48.650   1.403   6.763  0.00  0.00    +0.000 OA
ATOM     30  H   UNL     1      47.229   3.444   4.806  0.00  0.00    +0.000 HD
ATOM     31  H   UNL     1      48.684   2.529   4.594  0.00  0.00    +0.000 HD
ENDBRANCH  24  27
ENDBRANCH  19  21
ENDBRANCH   1  19
TORSDOF 6
ENDMDL
MODEL 4
REMARK VINA RESULT:    -6.750      4.512      6.861
REMARK INTER + INTRA:          -9.887
REMARK INTER:                  -9.146
REMARK INTRA:                  -0.742
REMARK UNBOUND:                -0.770
REMARK  Name = 
REMARK  6 active torsions:
REMARK  status: ('A' for Active; 'I' for Inactive)
REMARK    1  A    between atoms: C_2  and  C_3
REMARK    2  A    between atoms: C_6  and  C_7
REMARK    3  A    between atoms: C_11  and  C_12
REMARK    4  A    between atoms: C_12  and  N_13
REMARK    5  A    between atoms: N_13  and  C_14
REMARK    6  A    between atoms: C_17  and  C_18
REMARK                            x       y       z     vdW  Elec       q    Type
REMARK                         _______ _______ _______ _____ _____    ______ ____
ROOT
ATOM      1  C   UNL     1      48.145   7.899  13.768  0.00  0.00    +0.000 C 
ATOM      2  C   UNL     1      48.592   9.167  13.038  0.00  0.00    +0.000 C 
ATOM      3  C   UNL     1      49.145   7.850  12.631  0.00  0.00    +0.000 C 
ATOM      4  F   UNL     1      50.487   7.647  12.912  0.00  0.00    +0.000 F 
ENDROOT
BRANCH   1   9
ATOM      5  C   UNL     1      49.568   6.251  16.777  0.00  0.00    +0.000 A 
ATOM      6  N   UNL     1      49.244   7.059  17.804  0.00  0.00    +0.000 NA
ATOM      7  C   UNL     1      48.617   8.201  17.491  0.00  0.00    +0.000 A 
ATOM      8  C   UNL     1      48.301   8.558  16.203  0.00  0.00    +0.000 A 
ATOM      9  C   UNL     1      48.637   7.665  15.197  0.00  0.00    +0.000 A 
ATOM     10  N   UNL     1      49.277   6.509  15.488  0.00  0.00    +0.000 NA
BRANCH   5  14
ATOM     11  C   UNL     1      51.559   2.530  17.663  0.00  0.00    +0.000 A 
ATOM     12  C   UNL     1      50.195   2.546  17.382  0.00  0.00    +0.000 A 
ATOM     13  C   UNL     1      49.550   3.756  17.101  0.00  0.00    +0.000 A 
ATOM     14  C   UNL     1      50.249   4.979  17.090  0.00  0.00    +0.000 A 
ATOM     15  C   UNL     1      51.627   4.935  17.382  0.00  0.00    +0.000 A 
ATOM     16  C   UNL     1      52.277   3.728  17.665  0.00  0.00    +0.000 A 
BRANCH  11  18
ATOM     17  N   UNL     1      52.764   0.288  18.181  0.00  0.00    +0.000 NA
ATOM     18  C   UNL     1      52.224   1.291  17.944  0.00  0.00    +0.000 C 
ENDBRANCH  11  18
ENDBRANCH   5  14
ENDBRANCH   1   9
BRANCH   1  19
ATOM     19  N   UNL     1      46.698   7.584  13.604  0.00  0.00    +0.000 N 
ATOM     20  H   UNL     1      46.149   7.703  14.453  0.00  0.00    +0.000 HD
BRANCH  19  21
ATOM     21  C   UNL     1      46.199   6.489  12.866  0.00  0.00    +0.000 A 
ATOM     22  C   UNL     1      45.643   6.590  11.591  0.00  0.00    +0.000 A 
ATOM     23  C   UNL     1      45.041   5.480  10.983  0.00  0.00    +0.000 A 
ATOM     24  C   UNL     1      44.984   4.249  11.646  0.00  0.00    +0.000 A 
ATOM     25  C   UNL     1      45.534   4.134  12.923  0.00  0.00    +0.000 A 
ATOM     26  C   UNL     1      46.127   5.248  13.525  0.00  0.00    +0.000 A 
BRANCH  24  27
ATOM     27  C   UNL     1      44.283   3.120  10.981  0.00  0.00    +0.000 C 
ATOM     28  N   UNL     1      44.975   2.409  10.038  0.00  0.00    +0.000 N 
ATOM     29  O   UNL     1      43.123   2.841  11.249  0.00  0.00    +0.000 OA
ATOM     30  H   UNL     1      45.844   2.723   9.636  0.00  0.00    +0.000 HD
ATOM     31  H   UNL     1      44.449   1.702   9.540  0.00  0.00    +0.000 HD
ENDBRANCH  24  27
ENDBRANCH  19  21
ENDBRANCH   1  19
TORSDOF 6
ENDMDL
MODEL 5
REMARK VINA RESULT:    -6.614      5.507      8.722
REMARK INTER + INTRA:          -9.703
REMARK INTER:                  -9.160
REMARK INTRA:                  -0.543
REMARK UNBOUND:                -0.770
REMARK  Name = 
REMARK  6 active torsions:
REMARK  status: ('A' for Active; 'I' for Inactive)
REMARK    1  A    between atoms: C_2  and  C_3
REMARK    2  A    between atoms: C_6  and  C_7
REMARK    3  A    between atoms: C_11  and  C_12
REMARK    4  A    between atoms: C_12  and  N_13
REMARK    5  A    between atoms: N_13  and  C_14
REMARK    6  A    between atoms: C_17  and  C_18
REMARK                            x       y       z     vdW  Elec       q    Type
REMARK                         _______ _______ _______ _____ _____    ______ ____
ROOT
ATOM      1  C   UNL     1      49.142   5.477  17.965  0.00  0.00    +0.000 C 
ATOM      2  C   UNL     1      48.221   6.088  19.023  0.00  0.00    +0.000 C 
ATOM      3  C   UNL     1      47.865   4.788  18.398  0.00  0.00    +0.000 C 
ATOM      4  F   UNL     1      46.763   4.804  17.558  0.00  0.00    +0.000 F 
ENDROOT
BRANCH   1   9
ATOM      5  C   UNL     1      48.421   6.252  14.406  0.00  0.00    +0.000 A 
ATOM      6  N   UNL     1      49.454   7.014  13.997  0.00  0.00    +0.000 NA
ATOM      7  C   UNL     1      50.360   7.341  14.928  0.00  0.00    +0.000 A 
ATOM      8  C   UNL     1      50.274   6.935  16.237  0.00  0.00    +0.000 A 
ATOM      9  C   UNL     1      49.200   6.128  16.582  0.00  0.00    +0.000 A 
ATOM     10  N   UNL     1      48.269   5.790  15.661  0.00  0.00    +0.000 NA
BRANCH   5  14
ATOM     11  C   UNL     1      45.452   5.131  11.484  0.00  0.00    +0.000 A 
ATOM     12  C   UNL     1      45.624   4.370  12.639  0.00  0.00    +0.000 A 
ATOM     13  C   UNL     1      46.592   4.733  13.582  0.00  0.00    +0.000 A 
ATOM     14  C   UNL     1      47.412   5.864  13.400  0.00  0.00    +0.000 A 
ATOM     15  C   UNL     1      47.221   6.614  12.222  0.00  0.00    +0.000 A 
ATOM     16  C   UNL     1      46.254   6.255  11.275  0.00  0.00    +0.000 A 
BRANCH  11  18
ATOM     17  N   UNL     1      43.646   4.479   9.737  0.00  0.00    +0.000 NA
ATOM     18  C   UNL     1      44.456   4.766  10.520  0.00  0.00    +0.000 C 
ENDBRANCH  11  18
ENDBRANCH   5  14
ENDBRANCH   1   9
BRANCH   1  19
ATOM     19  N   UNL     1      50.491   5.107  18.478  0.00  0.00    +0.000 N 
ATOM     20  H   UNL     1      51.149   5.884  18.514  0.00  0.00    +0.000 HD
BRANCH  19  21
ATOM     21  C   UNL     1      51.176   3.921  18.137  0.00  0.00    +0.000 A 
ATOM     22  C   UNL     1      50.584   2.826  17.508  0.00  0.00    +0.000 A 
ATOM     23  C   UNL     1      51.295   1.632  17.330  0.00  0.00    +0.000 A 
ATOM     24  C   UNL     1      52.613   1.515  17.784  0.00  0.00    +0.000 A 
ATOM     25  C   UNL     1      53.218   2.601  18.418  0.00  0.00    +0.000 A 
ATOM     26  C   UNL     1      52.499   3.787  18.596  0.00  0.00    +0.000 A 
BRANCH  24  27
ATOM     27  C   UNL     1      53.303   0.208  17.624  0.00  0.00    +0.000 C 
ATOM     28  N   UNL     1      52.979  -0.794  18.499  0.00  0.00    +0.000 N 
ATOM     29  O   UNL     1      54.144   0.031  16.755  0.00  0.00    +0.000 OA
ATOM     30  H   UNL     1      52.459  -0.639  19.349  0.00  0.00    +0.000 HD
ATOM     31  H   UNL     1      53.523  -1.643  18.424  0.00  0.00    +0.000 HD
ENDBRANCH  24  27
ENDBRANCH  19  21
ENDBRANCH   1  19
TORSDOF 6
ENDMDL
MODEL 6
REMARK VINA RESULT:    -6.474      1.870      2.630
REMARK INTER + INTRA:          -9.515
REMARK INTER:                  -9.233
REMARK INTRA:                  -0.282
REMARK UNBOUND:                -0.770
REMARK  Name = 
REMARK  6 active torsions:
REMARK  status: ('A' for Active; 'I' for Inactive)
REMARK    1  A    between atoms: C_2  and  C_3
REMARK    2  A    between atoms: C_6  and  C_7
REMARK    3  A    between atoms: C_11  and  C_12
REMARK    4  A    between atoms: C_12  and  N_13
REMARK    5  A    between atoms: N_13  and  C_14
REMARK    6  A    between atoms: C_17  and  C_18
REMARK                            x       y       z     vdW  Elec       q    Type
REMARK                         _______ _______ _______ _____ _____    ______ ____
ROOT
ATOM      1  C   UNL     1      45.622   5.121  12.432  0.00  0.00    +0.000 C 
ATOM      2  C   UNL     1      46.716   4.088  12.711  0.00  0.00    +0.000 C 
ATOM      3  C   UNL     1      45.733   4.426  13.774  0.00  0.00    +0.000 C 
ATOM      4  F   UNL     1      46.236   5.120  14.861  0.00  0.00    +0.000 F 
ENDROOT
BRANCH   1   9
ATOM      5  C   UNL     1      47.654   8.200  12.008  0.00  0.00    +0.000 A 
ATOM      6  N   UNL     1      46.866   9.203  12.441  0.00  0.00    +0.000 NA
ATOM      7  C   UNL     1      45.620   8.868  12.803  0.00  0.00    +0.000 A 
ATOM      8  C   UNL     1      45.142   7.582  12.754  0.00  0.00    +0.000 A 
ATOM      9  C   UNL     1      46.017   6.595  12.327  0.00  0.00    +0.000 A 
ATOM     10  N   UNL     1      47.277   6.909  11.949  0.00  0.00    +0.000 NA
BRANCH   5  14
ATOM     11  C   UNL     1      51.687   9.171  10.824  0.00  0.00    +0.000 A 
ATOM     12  C   UNL     1      51.308   7.842  11.002  0.00  0.00    +0.000 A 
ATOM     13  C   UNL     1      50.000   7.531  11.392  0.00  0.00    +0.000 A 
ATOM     14  C   UNL     1      49.037   8.535  11.612  0.00  0.00    +0.000 A 
ATOM     15  C   UNL     1      49.448   9.870  11.430  0.00  0.00    +0.000 A 
ATOM     16  C   UNL     1      50.754  10.188  11.040  0.00  0.00    +0.000 A 
BRANCH  11  18
ATOM     17  N   UNL     1      54.104   9.758  10.081  0.00  0.00    +0.000 NA
ATOM     18  C   UNL     1      53.023   9.492  10.418  0.00  0.00    +0.000 C 
ENDBRANCH  11  18
ENDBRANCH   5  14
ENDBRANCH   1   9
BRANCH   1  19
ATOM     19  N   UNL     1      44.660   4.712  11.371  0.00  0.00    +0.000 N 
ATOM     20  H   UNL     1      43.808   4.283  11.726  0.00  0.00    +0.000 HD
BRANCH  19  21
ATOM     21  C   UNL     1      45.028   4.096  10.155  0.00  0.00    +0.000 A 
ATOM     22  C   UNL     1      44.955   2.724   9.916  0.00  0.00    +0.000 A 
ATOM     23  C   UNL     1      45.472   2.175   8.735  0.00  0.00    +0.000 A 
ATOM     24  C   UNL     1      46.073   2.994   7.773  0.00  0.00    +0.000 A 
ATOM     25  C   UNL     1      46.155   4.368   7.999  0.00  0.00    +0.000 A 
ATOM     26  C   UNL     1      45.642   4.907   9.183  0.00  0.00    +0.000 A 
BRANCH  24  27
ATOM     27  C   UNL     1      46.657   2.354   6.565  0.00  0.00    +0.000 C 
ATOM     28  N   UNL     1      47.261   1.135   6.720  0.00  0.00    +0.000 N 
ATOM     29  O   UNL     1      46.620   2.899   5.472  0.00  0.00    +0.000 OA
ATOM     30  H   UNL     1      47.502   0.748   7.618  0.00  0.00    +0.000 HD
ATOM     31  H   UNL     1      47.725   0.762   5.902  0.00  0.00    +0.000 HD
ENDBRANCH  24  27
ENDBRANCH  19  21
ENDBRANCH   1  19
TORSDOF 6
ENDMDL
MODEL 7
REMARK VINA RESULT:    -6.317      2.619      7.043
REMARK INTER + INTRA:          -9.302
REMARK INTER:                  -8.678
REMARK INTRA:                  -0.624
REMARK UNBOUND:                -0.770
REMARK  Name = 
REMARK  6 active torsions:
REMARK  status: ('A' for Active; 'I' for Inactive)
REMARK    1  A    between atoms: C_2  and  C_3
REMARK    2  A    between atoms: C_6  and  C_7
REMARK    3  A    between atoms: C_11  and  C_12
REMARK    4  A    between atoms: C_12  and  N_13
REMARK    5  A    between atoms: N_13  and  C_14
REMARK    6  A    between atoms: C_17  and  C_18
REMARK                            x       y       z     vdW  Elec       q    Type
REMARK                         _______ _______ _______ _____ _____    ______ ____
ROOT
ATOM      1  C   UNL     1      45.886   5.088  13.668  0.00  0.00    +0.000 C 
ATOM      2  C   UNL     1      45.940   4.497  15.078  0.00  0.00    +0.000 C 
ATOM      3  C   UNL     1      47.143   4.437  14.208  0.00  0.00    +0.000 C 
ATOM      4  F   UNL     1      47.503   3.176  13.764  0.00  0.00    +0.000 F 
ENDROOT
BRANCH   1   9
ATOM      5  C   UNL     1      44.907   3.532  10.441  0.00  0.00    +0.000 A 
ATOM      6  N   UNL     1      43.578   3.337  10.535  0.00  0.00    +0.000 NA
ATOM      7  C   UNL     1      43.010   3.650  11.708  0.00  0.00    +0.000 A 
ATOM      8  C   UNL     1      43.714   4.150  12.775  0.00  0.00    +0.000 A 
ATOM      9  C   UNL     1      45.075   4.354  12.599  0.00  0.00    +0.000 A 
ATOM     10  N   UNL     1      45.671   4.039  11.426  0.00  0.00    +0.000 NA
BRANCH   5  14
ATOM     11  C   UNL     1      46.842   2.591   6.702  0.00  0.00    +0.000 A 
ATOM     12  C   UNL     1      46.598   3.918   7.052  0.00  0.00    +0.000 A 
ATOM     13  C   UNL     1      45.965   4.219   8.264  0.00  0.00    +0.000 A 
ATOM     14  C   UNL     1      45.560   3.208   9.157  0.00  0.00    +0.000 A 
ATOM     15  C   UNL     1      45.814   1.875   8.777  0.00  0.00    +0.000 A 
ATOM     16  C   UNL     1      46.447   1.567   7.566  0.00  0.00    +0.000 A 
BRANCH  11  18
ATOM     17  N   UNL     1      48.021   2.029   4.459  0.00  0.00    +0.000 NA
ATOM     18  C   UNL     1      47.497   2.279   5.466  0.00  0.00    +0.000 C 
ENDBRANCH  11  18
ENDBRANCH   5  14
ENDBRANCH   1   9
BRANCH   1  19
ATOM     19  N   UNL     1      45.671   6.561  13.636  0.00  0.00    +0.000 N 
ATOM     20  H   UNL     1      44.694   6.836  13.552  0.00  0.00    +0.000 HD
BRANCH  19  21
ATOM     21  C   UNL     1      46.482   7.470  12.923  0.00  0.00    +0.000 A 
ATOM     22  C   UNL     1      47.722   7.148  12.370  0.00  0.00    +0.000 A 
ATOM     23  C   UNL     1      48.530   8.142  11.801  0.00  0.00    +0.000 A 
ATOM     24  C   UNL     1      48.110   9.476  11.779  0.00  0.00    +0.000 A 
ATOM     25  C   UNL     1      46.874   9.813  12.330  0.00  0.00    +0.000 A 
ATOM     26  C   UNL     1      46.076   8.816  12.902  0.00  0.00    +0.000 A 
BRANCH  24  27
ATOM     27  C   UNL     1      49.031  10.498  11.216  0.00  0.00    +0.000 C 
ATOM     28  N   UNL     1      50.284  10.593  11.759  0.00  0.00    +0.000 N 
ATOM     29  O   UNL     1      48.682  11.244  10.312  0.00  0.00    +0.000 OA
ATOM     30  H   UNL     1      50.544  10.156  12.629  0.00  0.00    +0.000 HD
ATOM     31  H   UNL     1      50.859  11.352  11.418  0.00  0.00    +0.000 HD
ENDBRANCH  24  27
ENDBRANCH  19  21
ENDBRANCH   1  19
TORSDOF 6
ENDMDL
