MODEL 1
REMARK VINA RESULT:    -8.108      0.000      0.000
REMARK INTER + INTRA:         -12.509
REMARK INTER:                 -11.426
REMARK INTRA:                  -1.082
REMARK UNBOUND:                -1.082
REMARK  Name = 
REMARK  8 active torsions:
REMARK  status: ('A' for Active; 'I' for Inactive)
REMARK    1  A    between atoms: C_1  and  O_2
REMARK    2  A    between atoms: O_2  and  C_3
REMARK    3  A    between atoms: C_5  and  C_6
REMARK    4  A    between atoms: C_6  and  N_7
REMARK    5  A    between atoms: C_8  and  C_10
REMARK    6  A    between atoms: C_17  and  C_18
REMARK    7  A    between atoms: C_18  and  N_19
REMARK    8  A    between atoms: C_20  and  C_22
REMARK                            x       y       z     vdW  Elec       q    Type
REMARK                         _______ _______ _______ _____ _____    ______ ____
ROOT
ATOM      1  C   UNL     1      45.283   8.121  12.282  0.00  0.00    +0.000 A 
ATOM      2  C   UNL     1      44.519   7.343  11.399  0.00  0.00    +0.000 A 
ATOM      3  C   UNL     1      44.937   6.057  11.019  0.00  0.00    +0.000 A 
ATOM      4  C   UNL     1      46.123   5.546  11.552  0.00  0.00    +0.000 A 
ATOM      5  C   UNL     1      46.886   6.311  12.433  0.00  0.00    +0.000 A 
ATOM      6  C   UNL     1      46.486   7.607  12.800  0.00  0.00    +0.000 A 
ENDROOT
BRANCH   1   8
ATOM      7  C   UNL     1      45.011  10.394  11.633  0.00  0.00    +0.000 C 
ATOM      8  O   UNL     1      44.956   9.402  12.652  0.00  0.00    +0.000 OA
ENDBRANCH   1   8
BRANCH   3   9
ATOM      9  C   UNL     1      44.092   5.222  10.090  0.00  0.00    +0.000 C 
BRANCH   9  10
ATOM     10  N   UNL     1      44.909   4.579   9.095  0.00  0.00    +0.000 N 
ATOM     11  C   UNL     1      45.057   3.214   9.055  0.00  0.00    +0.000 C 
ATOM     12  O   UNL     1      44.533   2.472   9.882  0.00  0.00    +0.000 OA
ATOM     13  H   UNL     1      45.287   5.143   8.348  0.00  0.00    +0.000 HD
BRANCH  11  14
ATOM     14  C   UNL     1      45.867   2.713   7.965  0.00  0.00    +0.000 A 
ATOM     15  C   UNL     1      46.236   3.268   6.748  0.00  0.00    +0.000 A 
ATOM     16  C   UNL     1      47.052   2.335   6.063  0.00  0.00    +0.000 A 
ATOM     17  C   UNL     1      47.168   1.227   6.869  0.00  0.00    +0.000 A 
ATOM     18  N   UNL     1      46.452   1.463   8.011  0.00  0.00    +0.000 N 
ATOM     19  H   UNL     1      46.352   0.826   8.794  0.00  0.00    +0.000 HD
ENDBRANCH  11  14
ENDBRANCH   9  10
ENDBRANCH   3   9
BRANCH   6  20
ATOM     20  C   UNL     1      47.344   8.381  13.770  0.00  0.00    +0.000 C 
BRANCH  20  21
ATOM     21  N   UNL     1      47.767   7.565  14.887  0.00  0.00    +0.000 N 
ATOM     22  C   UNL     1      49.016   7.007  14.986  0.00  0.00    +0.000 C 
ATOM     23  O   UNL     1      49.888   7.181  14.138  0.00  0.00    +0.000 OA
ATOM     24  H   UNL     1      47.024   7.236  15.491  0.00  0.00    +0.000 HD
BRANCH  22  25
ATOM     25  C   UNL     1      49.289   6.253  16.219  0.00  0.00    +0.000 A 
ATOM     26  C   UNL     1      50.323   6.648  17.060  0.00  0.00    +0.000 A 
ATOM     27  S   UNL     1      50.432   5.720  18.489  0.00  0.00    +0.000 S 
ATOM     28  C   UNL     1      49.138   4.725  18.008  0.00  0.00    +0.000 A 
ATOM     29  N   UNL     1      48.706   3.705  18.799  0.00  0.00    +0.000 NA
ATOM     30  C   UNL     1      47.740   3.011  18.296  0.00  0.00    +0.000 A 
ATOM     31  N   UNL     1      47.172   3.242  17.071  0.00  0.00    +0.000 N 
ATOM     32  C   UNL     1      47.554   4.276  16.252  0.00  0.00    +0.000 A 
ATOM     33  O   UNL     1      46.989   4.478  15.183  0.00  0.00    +0.000 OA
ATOM     34  C   UNL     1      48.633   5.092  16.773  0.00  0.00    +0.000 A 
ATOM     35  H   UNL     1      46.417   2.662  16.733  0.00  0.00    +0.000 HD
ENDBRANCH  22  25
ENDBRANCH  20  21
ENDBRANCH   6  20
TORSDOF 7
ENDMDL
MODEL 2
REMARK VINA RESULT:    -7.957      1.822      2.569
REMARK INTER + INTRA:         -12.296
REMARK INTER:                 -11.284
REMARK INTRA:                  -1.013
REMARK UNBOUND:                -1.082
REMARK  Name = 
REMARK  8 active torsions:
REMARK  status: ('A' for Active; 'I' for Inactive)
REMARK    1  A    between atoms: C_1  and  O_2
REMARK    2  A    between atoms: O_2  and  C_3
REMARK    3  A    between atoms: C_5  and  C_6
REMARK    4  A    between atoms: C_6  and  N_7
REMARK    5  A    between atoms: C_8  and  C_10
REMARK    6  A    between atoms: C_17  and  C_18
REMARK    7  A    between atoms: C_18  and  N_19
REMARK    8  A    between atoms: C_20  and  C_22
REMARK                            x       y       z     vdW  Elec       q    Type
REMARK                         _______ _______ _______ _____ _____    ______ ____
ROOT
ATOM      1  C   UNL     1      46.922   5.338  13.030  0.00  0.00    +0.000 A 
ATOM      2  C   UNL     1      45.944   4.654  12.293  0.00  0.00    +0.000 A 
ATOM      3  C   UNL     1      45.096   5.336  11.405  0.00  0.00    +0.000 A 
ATOM      4  C   UNL     1      45.253   6.716  11.245  0.00  0.00    +0.000 A 
ATOM      5  C   UNL     1      46.225   7.403  11.971  0.00  0.00    +0.000 A 
ATOM      6  C   UNL     1      47.061   6.730  12.877  0.00  0.00    +0.000 A 
ENDROOT
BRANCH   1   8
ATOM      7  C   UNL     1      47.122   3.895  14.911  0.00  0.00    +0.000 C 
ATOM      8  O   UNL     1      47.746   4.738  13.949  0.00  0.00    +0.000 OA
ENDBRANCH   1   8
BRANCH   3   9
ATOM      9  C   UNL     1      44.067   4.584  10.600  0.00  0.00    +0.000 C 
BRANCH   9  10
ATOM     10  N   UNL     1      44.692   3.576   9.783  0.00  0.00    +0.000 N 
ATOM     11  C   UNL     1      45.468   3.906   8.700  0.00  0.00    +0.000 C 
ATOM     12  O   UNL     1      45.643   5.070   8.345  0.00  0.00    +0.000 OA
ATOM     13  H   UNL     1      44.644   2.616  10.088  0.00  0.00    +0.000 HD
BRANCH  11  14
ATOM     14  C   UNL     1      46.071   2.787   8.008  0.00  0.00    +0.000 A 
ATOM     15  C   UNL     1      46.789   2.702   6.824  0.00  0.00    +0.000 A 
ATOM     16  C   UNL     1      47.151   1.348   6.619  0.00  0.00    +0.000 A 
ATOM     17  C   UNL     1      46.650   0.629   7.678  0.00  0.00    +0.000 A 
ATOM     18  N   UNL     1      46.001   1.501   8.509  0.00  0.00    +0.000 N 
ATOM     19  H   UNL     1      45.531   1.262   9.374  0.00  0.00    +0.000 HD
ENDBRANCH  11  14
ENDBRANCH   9  10
ENDBRANCH   3   9
BRANCH   6  20
ATOM     20  C   UNL     1      48.107   7.524  13.622  0.00  0.00    +0.000 C 
BRANCH  20  21
ATOM     21  N   UNL     1      47.984   7.370  15.054  0.00  0.00    +0.000 N 
ATOM     22  C   UNL     1      49.022   6.988  15.865  0.00  0.00    +0.000 C 
ATOM     23  O   UNL     1      50.153   6.770  15.436  0.00  0.00    +0.000 OA
ATOM     24  H   UNL     1      47.036   7.340  15.408  0.00  0.00    +0.000 HD
BRANCH  22  25
ATOM     25  C   UNL     1      48.729   6.937  17.306  0.00  0.00    +0.000 A 
ATOM     26  C   UNL     1      48.275   8.075  17.963  0.00  0.00    +0.000 A 
ATOM     27  S   UNL     1      47.894   7.808  19.605  0.00  0.00    +0.000 S 
ATOM     28  C   UNL     1      48.373   6.178  19.509  0.00  0.00    +0.000 A 
ATOM     29  N   UNL     1      48.296   5.359  20.594  0.00  0.00    +0.000 NA
ATOM     30  C   UNL     1      48.724   4.158  20.388  0.00  0.00    +0.000 A 
ATOM     31  N   UNL     1      49.228   3.704  19.198  0.00  0.00    +0.000 N 
ATOM     32  C   UNL     1      49.298   4.484  18.069  0.00  0.00    +0.000 A 
ATOM     33  O   UNL     1      49.712   4.027  17.010  0.00  0.00    +0.000 OA
ATOM     34  C   UNL     1      48.823   5.843  18.244  0.00  0.00    +0.000 A 
ATOM     35  H   UNL     1      49.547   2.751  19.101  0.00  0.00    +0.000 HD
ENDBRANCH  22  25
ENDBRANCH  20  21
ENDBRANCH   6  20
TORSDOF 7
ENDMDL
MODEL 3
REMARK VINA RESULT:    -7.752      2.284      3.318
REMARK INTER + INTRA:         -12.007
REMARK INTER:                 -10.688
REMARK INTRA:                  -1.319
REMARK UNBOUND:                -1.082
REMARK  Name = 
REMARK  8 active torsions:
REMARK  status: ('A' for Active; 'I' for Inactive)
REMARK    1  A    between atoms: C_1  and  O_2
REMARK    2  A    between atoms: O_2  and  C_3
REMARK    3  A    between atoms: C_5  and  C_6
REMARK    4  A    between atoms: C_6  and  N_7
REMARK    5  A    between atoms: C_8  and  C_10
REMARK    6  A    between atoms: C_17  and  C_18
REMARK    7  A    between atoms: C_18  and  N_19
REMARK    8  A    between atoms: C_20  and  C_22
REMARK                            x       y       z     vdW  Elec       q    Type
REMARK                         _______ _______ _______ _____ _____    ______ ____
ROOT
ATOM      1  C   UNL     1      46.906   5.341  13.110  0.00  0.00    +0.000 A 
ATOM      2  C   UNL     1      45.955   4.703  12.300  0.00  0.00    +0.000 A 
ATOM      3  C   UNL     1      45.151   5.435  11.411  0.00  0.00    +0.000 A 
ATOM      4  C   UNL     1      45.324   6.819  11.325  0.00  0.00    +0.000 A 
ATOM      5  C   UNL     1      46.269   7.461  12.123  0.00  0.00    +0.000 A 
ATOM      6  C   UNL     1      47.061   6.738  13.031  0.00  0.00    +0.000 A 
ENDROOT
BRANCH   1   8
ATOM      7  C   UNL     1      47.032   3.733  14.858  0.00  0.00    +0.000 C 
ATOM      8  O   UNL     1      47.686   4.690  14.032  0.00  0.00    +0.000 OA
ENDBRANCH   1   8
BRANCH   3   9
ATOM      9  C   UNL     1      44.151   4.732  10.528  0.00  0.00    +0.000 C 
BRANCH   9  10
ATOM     10  N   UNL     1      44.767   3.631   9.833  0.00  0.00    +0.000 N 
ATOM     11  C   UNL     1      45.531   3.826   8.709  0.00  0.00    +0.000 C 
ATOM     12  O   UNL     1      45.703   4.938   8.214  0.00  0.00    +0.000 OA
ATOM     13  H   UNL     1      44.722   2.715  10.252  0.00  0.00    +0.000 HD
BRANCH  11  14
ATOM     14  C   UNL     1      46.126   2.629   8.152  0.00  0.00    +0.000 A 
ATOM     15  C   UNL     1      45.859   1.281   8.346  0.00  0.00    +0.000 A 
ATOM     16  C   UNL     1      46.747   0.531   7.535  0.00  0.00    +0.000 A 
ATOM     17  C   UNL     1      47.540   1.430   6.861  0.00  0.00    +0.000 A 
ATOM     18  N   UNL     1      47.160   2.690   7.239  0.00  0.00    +0.000 N 
ATOM     19  H   UNL     1      47.564   3.558   6.907  0.00  0.00    +0.000 HD
ENDBRANCH  11  14
ENDBRANCH   9  10
ENDBRANCH   3   9
BRANCH   6  20
ATOM     20  C   UNL     1      48.080   7.485  13.856  0.00  0.00    +0.000 C 
BRANCH  20  21
ATOM     21  N   UNL     1      47.948   7.198  15.267  0.00  0.00    +0.000 N 
ATOM     22  C   UNL     1      48.980   6.740  16.046  0.00  0.00    +0.000 C 
ATOM     23  O   UNL     1      50.113   6.562  15.606  0.00  0.00    +0.000 OA
ATOM     24  H   UNL     1      46.997   7.137  15.611  0.00  0.00    +0.000 HD
BRANCH  22  25
ATOM     25  C   UNL     1      48.677   6.556  17.473  0.00  0.00    +0.000 A 
ATOM     26  C   UNL     1      48.860   5.312  18.067  0.00  0.00    +0.000 A 
ATOM     27  S   UNL     1      48.553   5.306  19.746  0.00  0.00    +0.000 S 
ATOM     28  C   UNL     1      48.114   6.950  19.729  0.00  0.00    +0.000 A 
ATOM     29  N   UNL     1      47.736   7.587  20.871  0.00  0.00    +0.000 NA
ATOM     30  C   UNL     1      47.397   8.822  20.706  0.00  0.00    +0.000 A 
ATOM     31  N   UNL     1      47.395   9.475  19.502  0.00  0.00    +0.000 N 
ATOM     32  C   UNL     1      47.796   8.883  18.329  0.00  0.00    +0.000 A 
ATOM     33  O   UNL     1      47.825   9.514  17.279  0.00  0.00    +0.000 OA
ATOM     34  C   UNL     1      48.195   7.494  18.459  0.00  0.00    +0.000 A 
ATOM     35  H   UNL     1      47.119  10.444  19.438  0.00  0.00    +0.000 HD
ENDBRANCH  22  25
ENDBRANCH  20  21
ENDBRANCH   6  20
TORSDOF 7
ENDMDL
MODEL 4
REMARK VINA RESULT:    -7.686      4.489      9.370
REMARK INTER + INTRA:         -11.914
REMARK INTER:                 -10.689
REMARK INTRA:                  -1.224
REMARK UNBOUND:                -1.082
REMARK  Name = 
REMARK  8 active torsions:
REMARK  status: ('A' for Active; 'I' for Inactive)
REMARK    1  A    between atoms: C_1  and  O_2
REMARK    2  A    between atoms: O_2  and  C_3
REMARK    3  A    between atoms: C_5  and  C_6
REMARK    4  A    between atoms: C_6  and  N_7
REMARK    5  A    between atoms: C_8  and  C_10
REMARK    6  A    between atoms: C_17  and  C_18
REMARK    7  A    between atoms: C_18  and  N_19
REMARK    8  A    between atoms: C_20  and  C_22
REMARK                            x       y       z     vdW  Elec       q    Type
REMARK                         _______ _______ _______ _____ _____    ______ ____
ROOT
ATOM      1  C   UNL     1      49.268   4.461  17.713  0.00  0.00    +0.000 A 
ATOM      2  C   UNL     1      50.637   4.309  17.977  0.00  0.00    +0.000 A 
ATOM      3  C   UNL     1      51.289   3.087  17.747  0.00  0.00    +0.000 A 
ATOM      4  C   UNL     1      50.556   2.017  17.226  0.00  0.00    +0.000 A 
ATOM      5  C   UNL     1      49.196   2.159  16.958  0.00  0.00    +0.000 A 
ATOM      6  C   UNL     1      48.533   3.373  17.207  0.00  0.00    +0.000 A 
ENDROOT
BRANCH   1   8
ATOM      7  C   UNL     1      49.057   6.804  17.363  0.00  0.00    +0.000 C 
ATOM      8  O   UNL     1      48.563   5.612  17.963  0.00  0.00    +0.000 OA
ENDBRANCH   1   8
BRANCH   3   9
ATOM      9  C   UNL     1      52.767   2.947  18.011  0.00  0.00    +0.000 C 
BRANCH   9  10
ATOM     10  N   UNL     1      53.080   1.621  18.478  0.00  0.00    +0.000 N 
ATOM     11  C   UNL     1      54.017   0.838  17.850  0.00  0.00    +0.000 C 
ATOM     12  O   UNL     1      54.610   1.205  16.838  0.00  0.00    +0.000 OA
ATOM     13  H   UNL     1      52.680   1.314  19.352  0.00  0.00    +0.000 HD
BRANCH  11  14
ATOM     14  C   UNL     1      54.259  -0.449  18.467  0.00  0.00    +0.000 A 
ATOM     15  C   UNL     1      55.430  -1.106  18.818  0.00  0.00    +0.000 A 
ATOM     16  C   UNL     1      55.083  -2.349  19.403  0.00  0.00    +0.000 A 
ATOM     17  C   UNL     1      53.711  -2.433  19.398  0.00  0.00    +0.000 A 
ATOM     18  N   UNL     1      53.223  -1.286  18.833  0.00  0.00    +0.000 N 
ATOM     19  H   UNL     1      52.245  -1.059  18.694  0.00  0.00    +0.000 HD
ENDBRANCH  11  14
ENDBRANCH   9  10
ENDBRANCH   3   9
BRANCH   6  20
ATOM     20  C   UNL     1      47.063   3.473  16.880  0.00  0.00    +0.000 C 
BRANCH  20  21
ATOM     21  N   UNL     1      46.802   4.466  15.861  0.00  0.00    +0.000 N 
ATOM     22  C   UNL     1      46.926   4.222  14.518  0.00  0.00    +0.000 C 
ATOM     23  O   UNL     1      47.244   3.123  14.071  0.00  0.00    +0.000 OA
ATOM     24  H   UNL     1      46.740   5.421  16.192  0.00  0.00    +0.000 HD
BRANCH  22  25
ATOM     25  C   UNL     1      46.566   5.334  13.625  0.00  0.00    +0.000 A 
ATOM     26  C   UNL     1      47.481   6.351  13.378  0.00  0.00    +0.000 A 
ATOM     27  S   UNL     1      46.931   7.504  12.246  0.00  0.00    +0.000 S 
ATOM     28  C   UNL     1      45.432   6.715  12.086  0.00  0.00    +0.000 A 
ATOM     29  N   UNL     1      44.473   7.194  11.248  0.00  0.00    +0.000 NA
ATOM     30  C   UNL     1      43.373   6.517  11.252  0.00  0.00    +0.000 A 
ATOM     31  N   UNL     1      43.144   5.409  12.023  0.00  0.00    +0.000 N 
ATOM     32  C   UNL     1      44.091   4.872  12.861  0.00  0.00    +0.000 A 
ATOM     33  O   UNL     1      43.863   3.851  13.501  0.00  0.00    +0.000 OA
ATOM     34  C   UNL     1      45.350   5.591  12.890  0.00  0.00    +0.000 A 
ATOM     35  H   UNL     1      42.260   4.922  11.981  0.00  0.00    +0.000 HD
ENDBRANCH  22  25
ENDBRANCH  20  21
ENDBRANCH   6  20
TORSDOF 7
ENDMDL
MODEL 5
REMARK VINA RESULT:    -7.475      3.412      5.010
REMARK INTER + INTRA:         -11.616
REMARK INTER:                 -10.499
REMARK INTRA:                  -1.118
REMARK UNBOUND:                -1.082
REMARK  Name = 
REMARK  8 active torsions:
REMARK  status: ('A' for Active; 'I' for Inactive)
REMARK    1  A    between atoms: C_1  and  O_2
REMARK    2  A    between atoms: O_2  and  C_3
REMARK    3  A    between atoms: C_5  and  C_6
REMARK    4  A    between atoms: C_6  and  N_7
REMARK    5  A    between atoms: C_8  and  C_10
REMARK    6  A    between atoms: C_17  and  C_18
REMARK    7  A    between atoms: C_18  and  N_19
REMARK    8  A    between atoms: C_20  and  C_22
REMARK                            x       y       z     vdW  Elec       q    Type
REMARK                         _______ _______ _______ _____ _____    ______ ____
ROOT
ATOM      1  C   UNL     1      45.595   5.743  12.899  0.00  0.00    +0.000 A 
ATOM      2  C   UNL     1      45.224   4.488  12.393  0.00  0.00    +0.000 A 
ATOM      3  C   UNL     1      44.187   4.363  11.455  0.00  0.00    +0.000 A 
ATOM      4  C   UNL     1      43.534   5.516  11.009  0.00  0.00    +0.000 A 
ATOM      5  C   UNL     1      43.899   6.767  11.505  0.00  0.00    +0.000 A 
ATOM      6  C   UNL     1      44.920   6.897  12.461  0.00  0.00    +0.000 A 
ENDROOT
BRANCH   1   8
ATOM      7  C   UNL     1      47.210   4.755  14.340  0.00  0.00    +0.000 C 
ATOM      8  O   UNL     1      46.565   5.926  13.853  0.00  0.00    +0.000 OA
ENDBRANCH   1   8
BRANCH   3   9
ATOM      9  C   UNL     1      43.817   3.011  10.899  0.00  0.00    +0.000 C 
BRANCH   9  10
ATOM     10  N   UNL     1      44.804   2.559   9.953  0.00  0.00    +0.000 N 
ATOM     11  C   UNL     1      44.919   3.122   8.706  0.00  0.00    +0.000 C 
ATOM     12  O   UNL     1      44.168   4.013   8.315  0.00  0.00    +0.000 OA
ATOM     13  H   UNL     1      45.494   1.890  10.263  0.00  0.00    +0.000 HD
BRANCH  11  14
ATOM     14  C   UNL     1      45.991   2.597   7.888  0.00  0.00    +0.000 A 
ATOM     15  C   UNL     1      46.750   3.163   6.873  0.00  0.00    +0.000 A 
ATOM     16  C   UNL     1      47.676   2.193   6.416  0.00  0.00    +0.000 A 
ATOM     17  C   UNL     1      47.469   1.053   7.156  0.00  0.00    +0.000 A 
ATOM     18  N   UNL     1      46.453   1.304   8.038  0.00  0.00    +0.000 N 
ATOM     19  H   UNL     1      46.077   0.651   8.716  0.00  0.00    +0.000 HD
ENDBRANCH  11  14
ENDBRANCH   9  10
ENDBRANCH   3   9
BRANCH   6  20
ATOM     20  C   UNL     1      45.283   8.279  12.947  0.00  0.00    +0.000 C 
BRANCH  20  21
ATOM     21  N   UNL     1      46.470   8.787  12.297  0.00  0.00    +0.000 N 
ATOM     22  C   UNL     1      47.583   9.209  12.978  0.00  0.00    +0.000 C 
ATOM     23  O   UNL     1      47.667   9.163  14.202  0.00  0.00    +0.000 OA
ATOM     24  H   UNL     1      46.360   9.028  11.320  0.00  0.00    +0.000 HD
BRANCH  22  25
ATOM     25  C   UNL     1      48.718   9.644  12.149  0.00  0.00    +0.000 A 
ATOM     26  C   UNL     1      48.794  10.960  11.709  0.00  0.00    +0.000 A 
ATOM     27  S   UNL     1      50.224  11.310  10.845  0.00  0.00    +0.000 S 
ATOM     28  C   UNL     1      50.766   9.703  10.982  0.00  0.00    +0.000 A 
ATOM     29  N   UNL     1      51.957   9.317  10.447  0.00  0.00    +0.000 NA
ATOM     30  C   UNL     1      52.227   8.063  10.596  0.00  0.00    +0.000 A 
ATOM     31  N   UNL     1      51.411   7.159  11.225  0.00  0.00    +0.000 N 
ATOM     32  C   UNL     1      50.216   7.508  11.805  0.00  0.00    +0.000 A 
ATOM     33  O   UNL     1      49.536   6.679  12.399  0.00  0.00    +0.000 OA
ATOM     34  C   UNL     1      49.867   8.909  11.673  0.00  0.00    +0.000 A 
ATOM     35  H   UNL     1      51.680   6.190  11.309  0.00  0.00    +0.000 HD
ENDBRANCH  22  25
ENDBRANCH  20  21
ENDBRANCH   6  20
TORSDOF 7
ENDMDL
MODEL 6
REMARK VINA RESULT:    -7.312      2.376      3.504
REMARK INTER + INTRA:         -11.386
REMARK INTER:                 -10.284
REMARK INTRA:                  -1.102
REMARK UNBOUND:                -1.082
REMARK  Name = 
REMARK  8 active torsions:
REMARK  status: ('A' for Active; 'I' for Inactive)
REMARK    1  A    between atoms: C_1  and  O_2
REMARK    2  A    between atoms: O_2  and  C_3
REMARK    3  A    between atoms: C_5  and  C_6
REMARK    4  A    between atoms: C_6  and  N_7
REMARK    5  A    between atoms: C_8  and  C_10
REMARK    6  A    between atoms: C_17  and  C_18
REMARK    7  A    between atoms: C_18  and  N_19
REMARK    8  A    between atoms: C_20  and  C_22
REMARK                            x       y       z     vdW  Elec       q    Type
REMARK                         _______ _______ _______ _____ _____    ______ ____
ROOT
ATOM      1  C   UNL     1      46.309   5.506  13.293  0.00  0.00    +0.000 A 
ATOM      2  C   UNL     1      45.717   4.379  12.705  0.00  0.00    +0.000 A 
ATOM      3  C   UNL     1      44.717   4.511  11.728  0.00  0.00    +0.000 A 
ATOM      4  C   UNL     1      44.329   5.792  11.326  0.00  0.00    +0.000 A 
ATOM      5  C   UNL     1      44.915   6.918  11.902  0.00  0.00    +0.000 A 
ATOM      6  C   UNL     1      45.899   6.793  12.897  0.00  0.00    +0.000 A 
ENDROOT
BRANCH   1   8
ATOM      7  C   UNL     1      47.077   4.431  15.272  0.00  0.00    +0.000 C 
ATOM      8  O   UNL     1      47.253   5.444  14.287  0.00  0.00    +0.000 OA
ENDBRANCH   1   8
BRANCH   3   9
ATOM      9  C   UNL     1      44.109   3.290  11.086  0.00  0.00    +0.000 C 
BRANCH   9  10
ATOM     10  N   UNL     1      44.991   2.742  10.088  0.00  0.00    +0.000 N 
ATOM     11  C   UNL     1      45.000   3.213   8.797  0.00  0.00    +0.000 C 
ATOM     12  O   UNL     1      44.236   4.096   8.414  0.00  0.00    +0.000 OA
ATOM     13  H   UNL     1      45.691   2.077  10.380  0.00  0.00    +0.000 HD
BRANCH  11  14
ATOM     14  C   UNL     1      45.976   2.599   7.923  0.00  0.00    +0.000 A 
ATOM     15  C   UNL     1      46.678   3.082   6.828  0.00  0.00    +0.000 A 
ATOM     16  C   UNL     1      47.518   2.048   6.346  0.00  0.00    +0.000 A 
ATOM     17  C   UNL     1      47.316   0.952   7.152  0.00  0.00    +0.000 A 
ATOM     18  N   UNL     1      46.387   1.292   8.098  0.00  0.00    +0.000 N 
ATOM     19  H   UNL     1      46.037   0.689   8.833  0.00  0.00    +0.000 HD
ENDBRANCH  11  14
ENDBRANCH   9  10
ENDBRANCH   3   9
BRANCH   6  20
ATOM     20  C   UNL     1      46.509   8.047  13.472  0.00  0.00    +0.000 C 
BRANCH  20  21
ATOM     21  N   UNL     1      47.951   7.961  13.550  0.00  0.00    +0.000 N 
ATOM     22  C   UNL     1      48.693   8.569  14.530  0.00  0.00    +0.000 C 
ATOM     23  O   UNL     1      48.183   9.218  15.440  0.00  0.00    +0.000 OA
ATOM     24  H   UNL     1      48.411   7.615  12.717  0.00  0.00    +0.000 HD
BRANCH  22  25
ATOM     25  C   UNL     1      50.143   8.327  14.483  0.00  0.00    +0.000 A 
ATOM     26  C   UNL     1      50.925   8.970  13.530  0.00  0.00    +0.000 A 
ATOM     27  S   UNL     1      52.593   8.647  13.686  0.00  0.00    +0.000 S 
ATOM     28  C   UNL     1      52.325   7.595  14.996  0.00  0.00    +0.000 A 
ATOM     29  N   UNL     1      53.362   6.967  15.615  0.00  0.00    +0.000 NA
ATOM     30  C   UNL     1      53.011   6.172  16.570  0.00  0.00    +0.000 A 
ATOM     31  N   UNL     1      51.717   5.944  16.958  0.00  0.00    +0.000 N 
ATOM     32  C   UNL     1      50.641   6.576  16.383  0.00  0.00    +0.000 A 
ATOM     33  O   UNL     1      49.501   6.380  16.789  0.00  0.00    +0.000 OA
ATOM     34  C   UNL     1      50.981   7.487  15.307  0.00  0.00    +0.000 A 
ATOM     35  H   UNL     1      51.507   5.309  17.714  0.00  0.00    +0.000 HD
ENDBRANCH  22  25
ENDBRANCH  20  21
ENDBRANCH   6  20
TORSDOF 7
ENDMDL
MODEL 7
REMARK VINA RESULT:    -6.989      3.029      4.762
REMARK INTER + INTRA:         -10.932
REMARK INTER:                  -9.526
REMARK INTRA:                  -1.406
REMARK UNBOUND:                -1.082
REMARK  Name = 
REMARK  8 active torsions:
REMARK  status: ('A' for Active; 'I' for Inactive)
REMARK    1  A    between atoms: C_1  and  O_2
REMARK    2  A    between atoms: O_2  and  C_3
REMARK    3  A    between atoms: C_5  and  C_6
REMARK    4  A    between atoms: C_6  and  N_7
REMARK    5  A    between atoms: C_8  and  C_10
REMARK    6  A    between atoms: C_17  and  C_18
REMARK    7  A    between atoms: C_18  and  N_19
REMARK    8  A    between atoms: C_20  and  C_22
REMARK                            x       y       z     vdW  Elec       q    Type
REMARK                         _______ _______ _______ _____ _____    ______ ____
ROOT
ATOM      1  C   UNL     1      46.200   6.173  13.048  0.00  0.00    +0.000 A 
ATOM      2  C   UNL     1      45.369   5.391  12.231  0.00  0.00    +0.000 A 
ATOM      3  C   UNL     1      45.420   3.989  12.276  0.00  0.00    +0.000 A 
ATOM      4  C   UNL     1      46.301   3.372  13.168  0.00  0.00    +0.000 A 
ATOM      5  C   UNL     1      47.128   4.141  13.986  0.00  0.00    +0.000 A 
ATOM      6  C   UNL     1      47.099   5.544  13.930  0.00  0.00    +0.000 A 
ENDROOT
BRANCH   1   8
ATOM      7  C   UNL     1      45.263   8.187  12.196  0.00  0.00    +0.000 C 
ATOM      8  O   UNL     1      46.234   7.544  13.015  0.00  0.00    +0.000 OA
ENDBRANCH   1   8
BRANCH   3   9
ATOM      9  C   UNL     1      44.502   3.162  11.412  0.00  0.00    +0.000 C 
BRANCH   9  10
ATOM     10  N   UNL     1      45.195   2.675  10.248  0.00  0.00    +0.000 N 
ATOM     11  C   UNL     1      45.062   3.282   9.023  0.00  0.00    +0.000 C 
ATOM     12  O   UNL     1      44.320   4.245   8.843  0.00  0.00    +0.000 OA
ATOM     13  H   UNL     1      45.878   1.942  10.368  0.00  0.00    +0.000 HD
BRANCH  11  14
ATOM     14  C   UNL     1      45.861   2.710   7.960  0.00  0.00    +0.000 A 
ATOM     15  C   UNL     1      46.260   3.205   6.727  0.00  0.00    +0.000 A 
ATOM     16  C   UNL     1      47.046   2.217   6.084  0.00  0.00    +0.000 A 
ATOM     17  C   UNL     1      47.114   1.137   6.932  0.00  0.00    +0.000 A 
ATOM     18  N   UNL     1      46.398   1.441   8.058  0.00  0.00    +0.000 N 
ATOM     19  H   UNL     1      46.268   0.839   8.862  0.00  0.00    +0.000 HD
ENDBRANCH  11  14
ENDBRANCH   9  10
ENDBRANCH   3   9
BRANCH   6  20
ATOM     20  C   UNL     1      48.004   6.323  14.851  0.00  0.00    +0.000 C 
BRANCH  20  21
ATOM     21  N   UNL     1      49.039   7.026  14.126  0.00  0.00    +0.000 N 
ATOM     22  C   UNL     1      49.957   7.850  14.726  0.00  0.00    +0.000 C 
ATOM     23  O   UNL     1      49.987   8.035  15.940  0.00  0.00    +0.000 OA
ATOM     24  H   UNL     1      48.919   7.059  13.121  0.00  0.00    +0.000 HD
BRANCH  22  25
ATOM     25  C   UNL     1      50.972   8.438  13.838  0.00  0.00    +0.000 A 
ATOM     26  C   UNL     1      52.321   8.189  14.063  0.00  0.00    +0.000 A 
ATOM     27  S   UNL     1      53.347   8.869  12.881  0.00  0.00    +0.000 S 
ATOM     28  C   UNL     1      52.031   9.565  12.058  0.00  0.00    +0.000 A 
ATOM     29  N   UNL     1      52.220  10.299  10.927  0.00  0.00    +0.000 NA
ATOM     30  C   UNL     1      51.138  10.796  10.427  0.00  0.00    +0.000 A 
ATOM     31  N   UNL     1      49.886  10.631  10.958  0.00  0.00    +0.000 N 
ATOM     32  C   UNL     1      49.643   9.875  12.079  0.00  0.00    +0.000 A 
ATOM     33  O   UNL     1      48.502   9.713  12.497  0.00  0.00    +0.000 OA
ATOM     34  C   UNL     1      50.825   9.287  12.679  0.00  0.00    +0.000 A 
ATOM     35  H   UNL     1      49.077  11.046  10.518  0.00  0.00    +0.000 HD
ENDBRANCH  22  25
ENDBRANCH  20  21
ENDBRANCH   6  20
TORSDOF 7
ENDMDL
MODEL 8
REMARK VINA RESULT:    -6.899      3.663      8.285
REMARK INTER + INTRA:         -10.805
REMARK INTER:                  -9.627
REMARK INTRA:                  -1.179
REMARK UNBOUND:                -1.082
REMARK  Name = 
REMARK  8 active torsions:
REMARK  status: ('A' for Active; 'I' for Inactive)
REMARK    1  A    between atoms: C_1  and  O_2
REMARK    2  A    between atoms: O_2  and  C_3
REMARK    3  A    between atoms: C_5  and  C_6
REMARK    4  A    between atoms: C_6  and  N_7
REMARK    5  A    between atoms: C_8  and  C_10
REMARK    6  A    between atoms: C_17  and  C_18
REMARK    7  A    between atoms: C_18  and  N_19
REMARK    8  A    between atoms: C_20  and  C_22
REMARK                            x       y       z     vdW  Elec       q    Type
REMARK                         _______ _______ _______ _____ _____    ______ ____
ROOT
ATOM      1  C   UNL     1      49.816   6.558  16.363  0.00  0.00    +0.000 A 
ATOM      2  C   UNL     1      50.163   5.667  17.390  0.00  0.00    +0.000 A 
ATOM      3  C   UNL     1      49.400   4.516  17.640  0.00  0.00    +0.000 A 
ATOM      4  C   UNL     1      48.290   4.251  16.832  0.00  0.00    +0.000 A 
ATOM      5  C   UNL     1      47.940   5.129  15.807  0.00  0.00    +0.000 A 
ATOM      6  C   UNL     1      48.686   6.295  15.567  0.00  0.00    +0.000 A 
ENDROOT
BRANCH   1   8
ATOM      7  C   UNL     1      51.730   7.603  15.411  0.00  0.00    +0.000 C 
ATOM      8  O   UNL     1      50.491   7.724  16.101  0.00  0.00    +0.000 OA
ENDBRANCH   1   8
BRANCH   3   9
ATOM      9  C   UNL     1      49.801   3.554  18.730  0.00  0.00    +0.000 C 
BRANCH   9  10
ATOM     10  N   UNL     1      51.127   3.043  18.499  0.00  0.00    +0.000 N 
ATOM     11  C   UNL     1      51.360   2.009  17.626  0.00  0.00    +0.000 C 
ATOM     12  O   UNL     1      50.452   1.441  17.022  0.00  0.00    +0.000 OA
ATOM     13  H   UNL     1      51.907   3.534  18.908  0.00  0.00    +0.000 HD
BRANCH  11  14
ATOM     14  C   UNL     1      52.749   1.640  17.461  0.00  0.00    +0.000 A 
ATOM     15  C   UNL     1      53.923   2.375  17.552  0.00  0.00    +0.000 A 
ATOM     16  C   UNL     1      55.013   1.504  17.303  0.00  0.00    +0.000 A 
ATOM     17  C   UNL     1      54.490   0.256  17.066  0.00  0.00    +0.000 A 
ATOM     18  N   UNL     1      53.127   0.346  17.162  0.00  0.00    +0.000 N 
ATOM     19  H   UNL     1      52.469  -0.414  17.037  0.00  0.00    +0.000 HD
ENDBRANCH  11  14
ENDBRANCH   9  10
ENDBRANCH   3   9
BRANCH   6  20
ATOM     20  C   UNL     1      48.270   7.198  14.432  0.00  0.00    +0.000 C 
BRANCH  20  21
ATOM     21  N   UNL     1      47.014   6.785  13.845  0.00  0.00    +0.000 N 
ATOM     22  C   UNL     1      46.788   6.746  12.493  0.00  0.00    +0.000 C 
ATOM     23  O   UNL     1      47.651   7.037  11.669  0.00  0.00    +0.000 OA
ATOM     24  H   UNL     1      46.230   6.738  14.485  0.00  0.00    +0.000 HD
BRANCH  22  25
ATOM     25  C   UNL     1      45.469   6.248  12.075  0.00  0.00    +0.000 A 
ATOM     26  C   UNL     1      44.526   7.127  11.555  0.00  0.00    +0.000 A 
ATOM     27  S   UNL     1      43.093   6.362  11.033  0.00  0.00    +0.000 S 
ATOM     28  C   UNL     1      43.659   4.837  11.532  0.00  0.00    +0.000 A 
ATOM     29  N   UNL     1      42.901   3.718  11.367  0.00  0.00    +0.000 NA
ATOM     30  C   UNL     1      43.439   2.636  11.822  0.00  0.00    +0.000 A 
ATOM     31  N   UNL     1      44.664   2.573  12.432  0.00  0.00    +0.000 N 
ATOM     32  C   UNL     1      45.477   3.668  12.595  0.00  0.00    +0.000 A 
ATOM     33  O   UNL     1      46.586   3.563  13.105  0.00  0.00    +0.000 OA
ATOM     34  C   UNL     1      44.922   4.911  12.094  0.00  0.00    +0.000 A 
ATOM     35  H   UNL     1      45.031   1.693  12.767  0.00  0.00    +0.000 HD
ENDBRANCH  22  25
ENDBRANCH  20  21
ENDBRANCH   6  20
TORSDOF 7
ENDMDL
MODEL 9
REMARK VINA RESULT:    -6.663      3.203      4.781
REMARK INTER + INTRA:         -10.471
REMARK INTER:                  -9.044
REMARK INTRA:                  -1.427
REMARK UNBOUND:                -1.082
REMARK  Name = 
REMARK  8 active torsions:
REMARK  status: ('A' for Active; 'I' for Inactive)
REMARK    1  A    between atoms: C_1  and  O_2
REMARK    2  A    between atoms: O_2  and  C_3
REMARK    3  A    between atoms: C_5  and  C_6
REMARK    4  A    between atoms: C_6  and  N_7
REMARK    5  A    between atoms: C_8  and  C_10
REMARK    6  A    between atoms: C_17  and  C_18
REMARK    7  A    between atoms: C_18  and  N_19
REMARK    8  A    between atoms: C_20  and  C_22
REMARK                            x       y       z     vdW  Elec       q    Type
REMARK                         _______ _______ _______ _____ _____    ______ ____
ROOT
ATOM      1  C   UNL     1      46.842   5.616  13.074  0.00  0.00    +0.000 A 
ATOM      2  C   UNL     1      46.003   4.931  12.182  0.00  0.00    +0.000 A 
ATOM      3  C   UNL     1      45.136   5.627  11.323  0.00  0.00    +0.000 A 
ATOM      4  C   UNL     1      45.134   7.024  11.351  0.00  0.00    +0.000 A 
ATOM      5  C   UNL     1      45.967   7.712  12.232  0.00  0.00    +0.000 A 
ATOM      6  C   UNL     1      46.820   7.022  13.110  0.00  0.00    +0.000 A 
ENDROOT
BRANCH   1   8
ATOM      7  C   UNL     1      47.057   4.416  15.117  0.00  0.00    +0.000 C 
ATOM      8  O   UNL     1      47.673   4.994  13.972  0.00  0.00    +0.000 OA
ENDBRANCH   1   8
BRANCH   3   9
ATOM      9  C   UNL     1      44.259   4.878  10.352  0.00  0.00    +0.000 C 
BRANCH   9  10
ATOM     10  N   UNL     1      45.036   4.360   9.256  0.00  0.00    +0.000 N 
ATOM     11  C   UNL     1      45.250   3.012   9.098  0.00  0.00    +0.000 C 
ATOM     12  O   UNL     1      44.825   2.181   9.897  0.00  0.00    +0.000 OA
ATOM     13  H   UNL     1      45.330   4.999   8.532  0.00  0.00    +0.000 HD
BRANCH  11  14
ATOM     14  C   UNL     1      46.006   2.641   7.921  0.00  0.00    +0.000 A 
ATOM     15  C   UNL     1      46.760   1.517   7.616  0.00  0.00    +0.000 A 
ATOM     16  C   UNL     1      47.282   1.673   6.308  0.00  0.00    +0.000 A 
ATOM     17  C   UNL     1      46.841   2.886   5.836  0.00  0.00    +0.000 A 
ATOM     18  N   UNL     1      46.074   3.463   6.813  0.00  0.00    +0.000 N 
ATOM     19  H   UNL     1      45.611   4.362   6.754  0.00  0.00    +0.000 HD
ENDBRANCH  11  14
ENDBRANCH   9  10
ENDBRANCH   3   9
BRANCH   6  20
ATOM     20  C   UNL     1      47.711   7.821  14.028  0.00  0.00    +0.000 C 
BRANCH  20  21
ATOM     21  N   UNL     1      49.095   7.777  13.611  0.00  0.00    +0.000 N 
ATOM     22  C   UNL     1      49.656   8.685  12.750  0.00  0.00    +0.000 C 
ATOM     23  O   UNL     1      49.026   9.631  12.283  0.00  0.00    +0.000 OA
ATOM     24  H   UNL     1      49.580   6.910  13.809  0.00  0.00    +0.000 HD
BRANCH  22  25
ATOM     25  C   UNL     1      51.092   8.516  12.482  0.00  0.00    +0.000 A 
ATOM     26  C   UNL     1      51.533   8.279  11.185  0.00  0.00    +0.000 A 
ATOM     27  S   UNL     1      53.233   8.207  11.045  0.00  0.00    +0.000 S 
ATOM     28  C   UNL     1      53.437   8.436  12.718  0.00  0.00    +0.000 A 
ATOM     29  N   UNL     1      54.679   8.480  13.274  0.00  0.00    +0.000 NA
ATOM     30  C   UNL     1      54.684   8.625  14.557  0.00  0.00    +0.000 A 
ATOM     31  N   UNL     1      53.561   8.724  15.335  0.00  0.00    +0.000 N 
ATOM     32  C   UNL     1      52.289   8.715  14.816  0.00  0.00    +0.000 A 
ATOM     33  O   UNL     1      51.310   8.852  15.541  0.00  0.00    +0.000 OA
ATOM     34  C   UNL     1      52.225   8.561  13.376  0.00  0.00    +0.000 A 
ATOM     35  H   UNL     1      53.632   8.836  16.336  0.00  0.00    +0.000 HD
ENDBRANCH  22  25
ENDBRANCH  20  21
ENDBRANCH   6  20
TORSDOF 7
ENDMDL
