MODEL 1
REMARK VINA RESULT:    -8.711      0.000      0.000
REMARK INTER + INTRA:         -12.029
REMARK INTER:                 -11.767
REMARK INTRA:                  -0.262
REMARK UNBOUND:                -0.262
REMARK  Name = 
REMARK  7 active torsions:
REMARK  status: ('A' for Active; 'I' for Inactive)
REMARK    1  A    between atoms: C_1  and  C_2
REMARK    2  A    between atoms: C_2  and  N_3
REMARK    3  A    between atoms: C_2  and  C_16
REMARK    4  A    between atoms: C_4  and  C_6
REMARK    5  A    between atoms: C_19  and  C_20
REMARK    6  A    between atoms: C_20  and  N_21
REMARK    7  A    between atoms: C_22  and  C_24
REMARK                            x       y       z     vdW  Elec       q    Type
REMARK                         _______ _______ _______ _____ _____    ______ ____
ROOT
ATOM      1  C   UNL     1      47.520   8.890  12.276  0.00  0.00    +0.000 C 
ATOM      2  C   UNL     1      46.533   8.114  13.159  0.00  0.00    +0.000 C 
ENDROOT
BRANCH   2   3
ATOM      3  C   UNL     1      45.890   6.925  12.460  0.00  0.00    +0.000 A 
ATOM      4  C   UNL     1      46.239   6.632  11.132  0.00  0.00    +0.000 A 
ATOM      5  C   UNL     1      45.683   5.532  10.465  0.00  0.00    +0.000 A 
ATOM      6  C   UNL     1      44.750   4.708  11.107  0.00  0.00    +0.000 A 
ATOM      7  C   UNL     1      44.382   5.010  12.422  0.00  0.00    +0.000 A 
ATOM      8  C   UNL     1      44.931   6.114  13.083  0.00  0.00    +0.000 A 
BRANCH   6   9
ATOM      9  C   UNL     1      44.178   3.497  10.419  0.00  0.00    +0.000 C 
BRANCH   9  10
ATOM     10  N   UNL     1      45.160   2.866   9.569  0.00  0.00    +0.000 N 
ATOM     11  C   UNL     1      45.275   3.204   8.243  0.00  0.00    +0.000 C 
ATOM     12  O   UNL     1      44.540   4.028   7.706  0.00  0.00    +0.000 OA
ATOM     13  H   UNL     1      45.821   2.235   9.996  0.00  0.00    +0.000 HD
BRANCH  11  14
ATOM     14  C   UNL     1      46.322   2.530   7.521  0.00  0.00    +0.000 A 
ATOM     15  C   UNL     1      46.835   1.247   7.567  0.00  0.00    +0.000 A 
ATOM     16  N   UNL     1      47.853   1.079   6.665  0.00  0.00    +0.000 NA
ATOM     17  C   UNL     1      47.972   2.238   6.062  0.00  0.00    +0.000 A 
ATOM     18  N   UNL     1      47.070   3.142   6.539  0.00  0.00    +0.000 N 
ATOM     19  H   UNL     1      46.956   4.102   6.239  0.00  0.00    +0.000 HD
ENDBRANCH  11  14
ENDBRANCH   9  10
ENDBRANCH   6   9
ENDBRANCH   2   3
BRANCH   2  20
ATOM     20  N   UNL     1      47.188   7.667  14.372  0.00  0.00    +0.000 N 
ATOM     21  C   UNL     1      48.193   6.732  14.360  0.00  0.00    +0.000 C 
ATOM     22  O   UNL     1      48.703   6.325  13.320  0.00  0.00    +0.000 OA
ATOM     23  H   UNL     1      46.694   7.847  15.239  0.00  0.00    +0.000 HD
BRANCH  21  24
ATOM     24  C   UNL     1      48.658   6.264  15.670  0.00  0.00    +0.000 A 
ATOM     25  C   UNL     1      49.613   6.990  16.369  0.00  0.00    +0.000 A 
ATOM     26  S   UNL     1      50.055   6.280  17.856  0.00  0.00    +0.000 S 
ATOM     27  C   UNL     1      49.026   4.951  17.590  0.00  0.00    +0.000 A 
ATOM     28  N   UNL     1      48.970   3.920  18.476  0.00  0.00    +0.000 NA
ATOM     29  C   UNL     1      48.180   2.960  18.126  0.00  0.00    +0.000 A 
ATOM     30  N   UNL     1      47.423   2.947  16.982  0.00  0.00    +0.000 N 
ATOM     31  C   UNL     1      47.396   3.996  16.095  0.00  0.00    +0.000 A 
ATOM     32  O   UNL     1      46.624   4.005  15.142  0.00  0.00    +0.000 OA
ATOM     33  C   UNL     1      48.314   5.074  16.411  0.00  0.00    +0.000 A 
ATOM     34  H   UNL     1      46.797   2.181  16.788  0.00  0.00    +0.000 HD
ENDBRANCH  21  24
ENDBRANCH   2  20
TORSDOF 6
ENDMDL
MODEL 2
REMARK VINA RESULT:    -8.163      2.669      3.571
REMARK INTER + INTRA:         -11.287
REMARK INTER:                 -10.091
REMARK INTRA:                  -1.196
REMARK UNBOUND:                -0.262
REMARK  Name = 
REMARK  7 active torsions:
REMARK  status: ('A' for Active; 'I' for Inactive)
REMARK    1  A    between atoms: C_1  and  C_2
REMARK    2  A    between atoms: C_2  and  N_3
REMARK    3  A    between atoms: C_2  and  C_16
REMARK    4  A    between atoms: C_4  and  C_6
REMARK    5  A    between atoms: C_19  and  C_20
REMARK    6  A    between atoms: C_20  and  N_21
REMARK    7  A    between atoms: C_22  and  C_24
REMARK                            x       y       z     vdW  Elec       q    Type
REMARK                         _______ _______ _______ _____ _____    ______ ____
ROOT
ATOM      1  C   UNL     1      47.465   4.122  16.233  0.00  0.00    +0.000 C 
ATOM      2  C   UNL     1      47.823   4.969  15.005  0.00  0.00    +0.000 C 
ENDROOT
BRANCH   2   3
ATOM      3  C   UNL     1      46.892   4.756  13.821  0.00  0.00    +0.000 A 
ATOM      4  C   UNL     1      46.484   5.860  13.054  0.00  0.00    +0.000 A 
ATOM      5  C   UNL     1      45.645   5.698  11.944  0.00  0.00    +0.000 A 
ATOM      6  C   UNL     1      45.179   4.428  11.584  0.00  0.00    +0.000 A 
ATOM      7  C   UNL     1      45.563   3.328  12.359  0.00  0.00    +0.000 A 
ATOM      8  C   UNL     1      46.393   3.493  13.472  0.00  0.00    +0.000 A 
BRANCH   6   9
ATOM      9  C   UNL     1      44.313   4.231  10.368  0.00  0.00    +0.000 C 
BRANCH   9  10
ATOM     10  N   UNL     1      44.991   3.445   9.365  0.00  0.00    +0.000 N 
ATOM     11  C   UNL     1      45.799   4.035   8.424  0.00  0.00    +0.000 C 
ATOM     12  O   UNL     1      45.963   5.250   8.364  0.00  0.00    +0.000 OA
ATOM     13  H   UNL     1      44.929   2.440   9.429  0.00  0.00    +0.000 HD
BRANCH  11  14
ATOM     14  C   UNL     1      46.447   3.131   7.510  0.00  0.00    +0.000 A 
ATOM     15  C   UNL     1      46.746   1.782   7.559  0.00  0.00    +0.000 A 
ATOM     16  N   UNL     1      47.388   1.368   6.421  0.00  0.00    +0.000 NA
ATOM     17  C   UNL     1      47.485   2.440   5.671  0.00  0.00    +0.000 A 
ATOM     18  N   UNL     1      46.930   3.526   6.282  0.00  0.00    +0.000 N 
ATOM     19  H   UNL     1      46.875   4.467   5.913  0.00  0.00    +0.000 HD
ENDBRANCH  11  14
ENDBRANCH   9  10
ENDBRANCH   6   9
ENDBRANCH   2   3
BRANCH   2  20
ATOM     20  N   UNL     1      47.849   6.375  15.355  0.00  0.00    +0.000 N 
ATOM     21  C   UNL     1      49.016   7.036  15.648  0.00  0.00    +0.000 C 
ATOM     22  O   UNL     1      50.121   6.524  15.491  0.00  0.00    +0.000 OA
ATOM     23  H   UNL     1      46.968   6.777  15.654  0.00  0.00    +0.000 HD
BRANCH  21  24
ATOM     24  C   UNL     1      48.877   8.414  16.132  0.00  0.00    +0.000 A 
ATOM     25  C   UNL     1      49.315   9.473  15.349  0.00  0.00    +0.000 A 
ATOM     26  S   UNL     1      49.102  10.998  16.083  0.00  0.00    +0.000 S 
ATOM     27  C   UNL     1      48.466  10.290  17.494  0.00  0.00    +0.000 A 
ATOM     28  N   UNL     1      48.126  11.052  18.568  0.00  0.00    +0.000 NA
ATOM     29  C   UNL     1      47.698  10.380  19.584  0.00  0.00    +0.000 A 
ATOM     30  N   UNL     1      47.558   9.016  19.616  0.00  0.00    +0.000 N 
ATOM     31  C   UNL     1      47.823   8.213  18.533  0.00  0.00    +0.000 A 
ATOM     32  O   UNL     1      47.580   7.011  18.555  0.00  0.00    +0.000 OA
ATOM     33  C   UNL     1      48.367   8.914  17.386  0.00  0.00    +0.000 A 
ATOM     34  H   UNL     1      47.181   8.555  20.432  0.00  0.00    +0.000 HD
ENDBRANCH  21  24
ENDBRANCH   2  20
TORSDOF 6
ENDMDL
MODEL 3
REMARK VINA RESULT:    -8.103      1.999      2.645
REMARK INTER + INTRA:         -11.207
REMARK INTER:                 -10.234
REMARK INTRA:                  -0.973
REMARK UNBOUND:                -0.262
REMARK  Name = 
REMARK  7 active torsions:
REMARK  status: ('A' for Active; 'I' for Inactive)
REMARK    1  A    between atoms: C_1  and  C_2
REMARK    2  A    between atoms: C_2  and  N_3
REMARK    3  A    between atoms: C_2  and  C_16
REMARK    4  A    between atoms: C_4  and  C_6
REMARK    5  A    between atoms: C_19  and  C_20
REMARK    6  A    between atoms: C_20  and  N_21
REMARK    7  A    between atoms: C_22  and  C_24
REMARK                            x       y       z     vdW  Elec       q    Type
REMARK                         _______ _______ _______ _____ _____    ______ ____
ROOT
ATOM      1  C   UNL     1      49.243   7.683  13.084  0.00  0.00    +0.000 C 
ATOM      2  C   UNL     1      47.977   7.243  13.831  0.00  0.00    +0.000 C 
ENDROOT
BRANCH   2   3
ATOM      3  C   UNL     1      46.987   6.480  12.963  0.00  0.00    +0.000 A 
ATOM      4  C   UNL     1      46.390   7.124  11.866  0.00  0.00    +0.000 A 
ATOM      5  C   UNL     1      45.491   6.446  11.033  0.00  0.00    +0.000 A 
ATOM      6  C   UNL     1      45.154   5.111  11.287  0.00  0.00    +0.000 A 
ATOM      7  C   UNL     1      45.729   4.473  12.391  0.00  0.00    +0.000 A 
ATOM      8  C   UNL     1      46.619   5.154  13.228  0.00  0.00    +0.000 A 
BRANCH   6   9
ATOM      9  C   UNL     1      44.224   4.355  10.375  0.00  0.00    +0.000 C 
BRANCH   9  10
ATOM     10  N   UNL     1      44.923   3.308   9.668  0.00  0.00    +0.000 N 
ATOM     11  C   UNL     1      45.625   3.571   8.518  0.00  0.00    +0.000 C 
ATOM     12  O   UNL     1      45.673   4.690   8.015  0.00  0.00    +0.000 OA
ATOM     13  H   UNL     1      44.958   2.392  10.091  0.00  0.00    +0.000 HD
BRANCH  11  14
ATOM     14  C   UNL     1      46.309   2.445   7.938  0.00  0.00    +0.000 A 
ATOM     15  C   UNL     1      47.331   2.326   7.015  0.00  0.00    +0.000 A 
ATOM     16  N   UNL     1      47.642   1.013   6.776  0.00  0.00    +0.000 NA
ATOM     17  C   UNL     1      46.830   0.322   7.541  0.00  0.00    +0.000 A 
ATOM     18  N   UNL     1      46.012   1.139   8.263  0.00  0.00    +0.000 N 
ATOM     19  H   UNL     1      45.301   0.854   8.925  0.00  0.00    +0.000 HD
ENDBRANCH  11  14
ENDBRANCH   9  10
ENDBRANCH   6   9
ENDBRANCH   2   3
BRANCH   2  20
ATOM     20  N   UNL     1      48.329   6.440  14.985  0.00  0.00    +0.000 N 
ATOM     21  C   UNL     1      48.663   7.000  16.193  0.00  0.00    +0.000 C 
ATOM     22  O   UNL     1      48.544   8.201  16.418  0.00  0.00    +0.000 OA
ATOM     23  H   UNL     1      48.597   5.481  14.796  0.00  0.00    +0.000 HD
BRANCH  21  24
ATOM     24  C   UNL     1      49.142   6.075  17.226  0.00  0.00    +0.000 A 
ATOM     25  C   UNL     1      48.248   5.522  18.133  0.00  0.00    +0.000 A 
ATOM     26  S   UNL     1      48.987   4.496  19.279  0.00  0.00    +0.000 S 
ATOM     27  C   UNL     1      50.533   4.799  18.634  0.00  0.00    +0.000 A 
ATOM     28  N   UNL     1      51.646   4.261  19.201  0.00  0.00    +0.000 NA
ATOM     29  C   UNL     1      52.753   4.610  18.636  0.00  0.00    +0.000 A 
ATOM     30  N   UNL     1      52.847   5.429  17.540  0.00  0.00    +0.000 N 
ATOM     31  C   UNL     1      51.747   5.938  16.893  0.00  0.00    +0.000 A 
ATOM     32  O   UNL     1      51.858   6.573  15.850  0.00  0.00    +0.000 OA
ATOM     33  C   UNL     1      50.481   5.627  17.527  0.00  0.00    +0.000 A 
ATOM     34  H   UNL     1      53.744   5.631  17.124  0.00  0.00    +0.000 HD
ENDBRANCH  21  24
ENDBRANCH   2  20
TORSDOF 6
ENDMDL
MODEL 4
REMARK VINA RESULT:    -8.082      1.969      2.294
REMARK INTER + INTRA:         -11.179
REMARK INTER:                 -10.492
REMARK INTRA:                  -0.687
REMARK UNBOUND:                -0.262
REMARK  Name = 
REMARK  7 active torsions:
REMARK  status: ('A' for Active; 'I' for Inactive)
REMARK    1  A    between atoms: C_1  and  C_2
REMARK    2  A    between atoms: C_2  and  N_3
REMARK    3  A    between atoms: C_2  and  C_16
REMARK    4  A    between atoms: C_4  and  C_6
REMARK    5  A    between atoms: C_19  and  C_20
REMARK    6  A    between atoms: C_20  and  N_21
REMARK    7  A    between atoms: C_22  and  C_24
REMARK                            x       y       z     vdW  Elec       q    Type
REMARK                         _______ _______ _______ _____ _____    ______ ____
ROOT
ATOM      1  C   UNL     1      49.014   7.866  13.047  0.00  0.00    +0.000 C 
ATOM      2  C   UNL     1      47.759   7.403  13.798  0.00  0.00    +0.000 C 
ENDROOT
BRANCH   2   3
ATOM      3  C   UNL     1      46.806   6.575  12.948  0.00  0.00    +0.000 A 
ATOM      4  C   UNL     1      46.137   7.178  11.870  0.00  0.00    +0.000 A 
ATOM      5  C   UNL     1      45.271   6.440  11.054  0.00  0.00    +0.000 A 
ATOM      6  C   UNL     1      45.039   5.083  11.306  0.00  0.00    +0.000 A 
ATOM      7  C   UNL     1      45.685   4.483  12.392  0.00  0.00    +0.000 A 
ATOM      8  C   UNL     1      46.543   5.223  13.212  0.00  0.00    +0.000 A 
BRANCH   6   9
ATOM      9  C   UNL     1      44.146   4.266  10.410  0.00  0.00    +0.000 C 
BRANCH   9  10
ATOM     10  N   UNL     1      44.903   3.283   9.673  0.00  0.00    +0.000 N 
ATOM     11  C   UNL     1      45.597   3.624   8.538  0.00  0.00    +0.000 C 
ATOM     12  O   UNL     1      45.587   4.762   8.075  0.00  0.00    +0.000 OA
ATOM     13  H   UNL     1      44.985   2.356  10.063  0.00  0.00    +0.000 HD
BRANCH  11  14
ATOM     14  C   UNL     1      46.344   2.557   7.924  0.00  0.00    +0.000 A 
ATOM     15  C   UNL     1      47.381   2.526   7.011  0.00  0.00    +0.000 A 
ATOM     16  N   UNL     1      47.762   1.241   6.725  0.00  0.00    +0.000 NA
ATOM     17  C   UNL     1      46.976   0.481   7.451  0.00  0.00    +0.000 A 
ATOM     18  N   UNL     1      46.109   1.227   8.193  0.00  0.00    +0.000 N 
ATOM     19  H   UNL     1      45.406   0.881   8.834  0.00  0.00    +0.000 HD
ENDBRANCH  11  14
ENDBRANCH   9  10
ENDBRANCH   6   9
ENDBRANCH   2   3
BRANCH   2  20
ATOM     20  N   UNL     1      48.129   6.653  14.981  0.00  0.00    +0.000 N 
ATOM     21  C   UNL     1      48.781   7.232  16.041  0.00  0.00    +0.000 C 
ATOM     22  O   UNL     1      48.961   8.444  16.123  0.00  0.00    +0.000 OA
ATOM     23  H   UNL     1      48.151   5.645  14.882  0.00  0.00    +0.000 HD
BRANCH  21  24
ATOM     24  C   UNL     1      49.228   6.324  17.103  0.00  0.00    +0.000 A 
ATOM     25  C   UNL     1      50.229   5.397  16.848  0.00  0.00    +0.000 A 
ATOM     26  S   UNL     1      50.597   4.405  18.187  0.00  0.00    +0.000 S 
ATOM     27  C   UNL     1      49.393   5.146  19.135  0.00  0.00    +0.000 A 
ATOM     28  N   UNL     1      49.135   4.718  20.400  0.00  0.00    +0.000 NA
ATOM     29  C   UNL     1      48.167   5.340  20.986  0.00  0.00    +0.000 A 
ATOM     30  N   UNL     1      47.448   6.367  20.431  0.00  0.00    +0.000 N 
ATOM     31  C   UNL     1      47.718   6.877  19.184  0.00  0.00    +0.000 A 
ATOM     32  O   UNL     1      47.134   7.869  18.760  0.00  0.00    +0.000 OA
ATOM     33  C   UNL     1      48.756   6.171  18.458  0.00  0.00    +0.000 A 
ATOM     34  H   UNL     1      46.727   6.837  20.959  0.00  0.00    +0.000 HD
ENDBRANCH  21  24
ENDBRANCH   2  20
TORSDOF 6
ENDMDL
MODEL 5
REMARK VINA RESULT:    -7.707      2.460      3.338
REMARK INTER + INTRA:         -10.672
REMARK INTER:                  -9.489
REMARK INTRA:                  -1.183
REMARK UNBOUND:                -0.262
REMARK  Name = 
REMARK  7 active torsions:
REMARK  status: ('A' for Active; 'I' for Inactive)
REMARK    1  A    between atoms: C_1  and  C_2
REMARK    2  A    between atoms: C_2  and  N_3
REMARK    3  A    between atoms: C_2  and  C_16
REMARK    4  A    between atoms: C_4  and  C_6
REMARK    5  A    between atoms: C_19  and  C_20
REMARK    6  A    between atoms: C_20  and  N_21
REMARK    7  A    between atoms: C_22  and  C_24
REMARK                            x       y       z     vdW  Elec       q    Type
REMARK                         _______ _______ _______ _____ _____    ______ ____
ROOT
ATOM      1  C   UNL     1      48.135   8.660  12.706  0.00  0.00    +0.000 C 
ATOM      2  C   UNL     1      47.652   7.594  13.698  0.00  0.00    +0.000 C 
ENDROOT
BRANCH   2   3
ATOM      3  C   UNL     1      46.782   6.518  13.064  0.00  0.00    +0.000 A 
ATOM      4  C   UNL     1      46.012   6.829  11.931  0.00  0.00    +0.000 A 
ATOM      5  C   UNL     1      45.217   5.858  11.310  0.00  0.00    +0.000 A 
ATOM      6  C   UNL     1      45.159   4.554  11.818  0.00  0.00    +0.000 A 
ATOM      7  C   UNL     1      45.906   4.246  12.960  0.00  0.00    +0.000 A 
ATOM      8  C   UNL     1      46.692   5.219  13.585  0.00  0.00    +0.000 A 
BRANCH   6   9
ATOM      9  C   UNL     1      44.344   3.488  11.136  0.00  0.00    +0.000 C 
BRANCH   9  10
ATOM     10  N   UNL     1      45.135   2.765  10.168  0.00  0.00    +0.000 N 
ATOM     11  C   UNL     1      45.156   3.137   8.846  0.00  0.00    +0.000 C 
ATOM     12  O   UNL     1      44.488   4.072   8.413  0.00  0.00    +0.000 OA
ATOM     13  H   UNL     1      45.745   2.035  10.503  0.00  0.00    +0.000 HD
BRANCH  11  14
ATOM     14  C   UNL     1      46.018   2.358   7.996  0.00  0.00    +0.000 A 
ATOM     15  C   UNL     1      46.368   1.021   7.967  0.00  0.00    +0.000 A 
ATOM     16  N   UNL     1      47.244   0.753   6.948  0.00  0.00    +0.000 NA
ATOM     17  C   UNL     1      47.437   1.904   6.348  0.00  0.00    +0.000 A 
ATOM     18  N   UNL     1      46.718   2.899   6.940  0.00  0.00    +0.000 N 
ATOM     19  H   UNL     1      46.691   3.874   6.666  0.00  0.00    +0.000 HD
ENDBRANCH  11  14
ENDBRANCH   9  10
ENDBRANCH   6   9
ENDBRANCH   2   3
BRANCH   2  20
ATOM     20  N   UNL     1      48.782   6.975  14.361  0.00  0.00    +0.000 N 
ATOM     21  C   UNL     1      49.127   7.276  15.655  0.00  0.00    +0.000 C 
ATOM     22  O   UNL     1      48.421   7.971  16.381  0.00  0.00    +0.000 OA
ATOM     23  H   UNL     1      49.470   6.539  13.757  0.00  0.00    +0.000 HD
BRANCH  21  24
ATOM     24  C   UNL     1      50.379   6.690  16.146  0.00  0.00    +0.000 A 
ATOM     25  C   UNL     1      50.351   5.730  17.147  0.00  0.00    +0.000 A 
ATOM     26  S   UNL     1      51.900   5.185  17.612  0.00  0.00    +0.000 S 
ATOM     27  C   UNL     1      52.661   6.254  16.529  0.00  0.00    +0.000 A 
ATOM     28  N   UNL     1      54.017   6.339  16.465  0.00  0.00    +0.000 NA
ATOM     29  C   UNL     1      54.456   7.221  15.631  0.00  0.00    +0.000 A 
ATOM     30  N   UNL     1      53.663   8.011  14.837  0.00  0.00    +0.000 N 
ATOM     31  C   UNL     1      52.293   7.910  14.818  0.00  0.00    +0.000 A 
ATOM     32  O   UNL     1      51.618   8.548  14.016  0.00  0.00    +0.000 OA
ATOM     33  C   UNL     1      51.746   6.977  15.784  0.00  0.00    +0.000 A 
ATOM     34  H   UNL     1      54.074   8.655  14.178  0.00  0.00    +0.000 HD
ENDBRANCH  21  24
ENDBRANCH   2  20
TORSDOF 6
ENDMDL
MODEL 6
REMARK VINA RESULT:    -7.513      4.135      6.544
REMARK INTER + INTRA:         -10.410
REMARK INTER:                  -9.638
REMARK INTRA:                  -0.772
REMARK UNBOUND:                -0.262
REMARK  Name = 
REMARK  7 active torsions:
REMARK  status: ('A' for Active; 'I' for Inactive)
REMARK    1  A    between atoms: C_1  and  C_2
REMARK    2  A    between atoms: C_2  and  N_3
REMARK    3  A    between atoms: C_2  and  C_16
REMARK    4  A    between atoms: C_4  and  C_6
REMARK    5  A    between atoms: C_19  and  C_20
REMARK    6  A    between atoms: C_20  and  N_21
REMARK    7  A    between atoms: C_22  and  C_24
REMARK                            x       y       z     vdW  Elec       q    Type
REMARK                         _______ _______ _______ _____ _____    ______ ____
ROOT
ATOM      1  C   UNL     1      44.971   4.091  13.172  0.00  0.00    +0.000 C 
ATOM      2  C   UNL     1      46.138   5.086  13.120  0.00  0.00    +0.000 C 
ENDROOT
BRANCH   2   3
ATOM      3  C   UNL     1      45.727   6.490  12.699  0.00  0.00    +0.000 A 
ATOM      4  C   UNL     1      44.691   6.657  11.765  0.00  0.00    +0.000 A 
ATOM      5  C   UNL     1      44.272   7.935  11.372  0.00  0.00    +0.000 A 
ATOM      6  C   UNL     1      44.892   9.078  11.892  0.00  0.00    +0.000 A 
ATOM      7  C   UNL     1      45.940   8.916  12.804  0.00  0.00    +0.000 A 
ATOM      8  C   UNL     1      46.363   7.640  13.189  0.00  0.00    +0.000 A 
BRANCH   6   9
ATOM      9  C   UNL     1      44.424  10.458  11.514  0.00  0.00    +0.000 C 
BRANCH   9  10
ATOM     10  N   UNL     1      43.032  10.647  11.845  0.00  0.00    +0.000 N 
ATOM     11  C   UNL     1      42.052  10.544  10.889  0.00  0.00    +0.000 C 
ATOM     12  O   UNL     1      42.303  10.319   9.708  0.00  0.00    +0.000 OA
ATOM     13  H   UNL     1      42.788  10.766  12.817  0.00  0.00    +0.000 HD
BRANCH  11  14
ATOM     14  C   UNL     1      40.703  10.713  11.363  0.00  0.00    +0.000 A 
ATOM     15  C   UNL     1      40.129  11.516  12.331  0.00  0.00    +0.000 A 
ATOM     16  N   UNL     1      38.777  11.311  12.418  0.00  0.00    +0.000 NA
ATOM     17  C   UNL     1      38.510  10.395  11.517  0.00  0.00    +0.000 A 
ATOM     18  N   UNL     1      39.635  10.007  10.853  0.00  0.00    +0.000 N 
ATOM     19  H   UNL     1      39.696   9.319  10.112  0.00  0.00    +0.000 HD
ENDBRANCH  11  14
ENDBRANCH   9  10
ENDBRANCH   6   9
ENDBRANCH   2   3
BRANCH   2  20
ATOM     20  N   UNL     1      46.809   5.142  14.403  0.00  0.00    +0.000 N 
ATOM     21  C   UNL     1      47.398   4.039  14.969  0.00  0.00    +0.000 C 
ATOM     22  O   UNL     1      47.525   2.976  14.367  0.00  0.00    +0.000 OA
ATOM     23  H   UNL     1      46.582   5.935  14.991  0.00  0.00    +0.000 HD
BRANCH  21  24
ATOM     24  C   UNL     1      47.906   4.205  16.335  0.00  0.00    +0.000 A 
ATOM     25  C   UNL     1      47.540   3.306  17.327  0.00  0.00    +0.000 A 
ATOM     26  S   UNL     1      48.200   3.674  18.857  0.00  0.00    +0.000 S 
ATOM     27  C   UNL     1      48.953   5.076  18.256  0.00  0.00    +0.000 A 
ATOM     28  N   UNL     1      49.650   5.905  19.080  0.00  0.00    +0.000 NA
ATOM     29  C   UNL     1      50.130   6.953  18.498  0.00  0.00    +0.000 A 
ATOM     30  N   UNL     1      49.998   7.236  17.163  0.00  0.00    +0.000 N 
ATOM     31  C   UNL     1      49.362   6.395  16.282  0.00  0.00    +0.000 A 
ATOM     32  O   UNL     1      49.359   6.619  15.076  0.00  0.00    +0.000 OA
ATOM     33  C   UNL     1      48.750   5.233  16.897  0.00  0.00    +0.000 A 
ATOM     34  H   UNL     1      50.432   8.056  16.764  0.00  0.00    +0.000 HD
ENDBRANCH  21  24
ENDBRANCH   2  20
TORSDOF 6
ENDMDL
MODEL 7
REMARK VINA RESULT:    -7.432      4.240      6.393
REMARK INTER + INTRA:         -10.300
REMARK INTER:                  -9.287
REMARK INTRA:                  -1.013
REMARK UNBOUND:                -0.262
REMARK  Name = 
REMARK  7 active torsions:
REMARK  status: ('A' for Active; 'I' for Inactive)
REMARK    1  A    between atoms: C_1  and  C_2
REMARK    2  A    between atoms: C_2  and  N_3
REMARK    3  A    between atoms: C_2  and  C_16
REMARK    4  A    between atoms: C_4  and  C_6
REMARK    5  A    between atoms: C_19  and  C_20
REMARK    6  A    between atoms: C_20  and  N_21
REMARK    7  A    between atoms: C_22  and  C_24
REMARK                            x       y       z     vdW  Elec       q    Type
REMARK                         _______ _______ _______ _____ _____    ______ ____
ROOT
ATOM      1  C   UNL     1      45.488   4.611  12.902  0.00  0.00    +0.000 C 
ATOM      2  C   UNL     1      46.430   5.819  12.979  0.00  0.00    +0.000 C 
ENDROOT
BRANCH   2   3
ATOM      3  C   UNL     1      45.787   7.127  12.541  0.00  0.00    +0.000 A 
ATOM      4  C   UNL     1      44.735   7.103  11.610  0.00  0.00    +0.000 A 
ATOM      5  C   UNL     1      44.105   8.285  11.201  0.00  0.00    +0.000 A 
ATOM      6  C   UNL     1      44.524   9.524  11.702  0.00  0.00    +0.000 A 
ATOM      7  C   UNL     1      45.586   9.555  12.612  0.00  0.00    +0.000 A 
ATOM      8  C   UNL     1      46.220   8.375  13.012  0.00  0.00    +0.000 A 
BRANCH   6   9
ATOM      9  C   UNL     1      43.828  10.799  11.307  0.00  0.00    +0.000 C 
BRANCH   9  10
ATOM     10  N   UNL     1      42.450  10.797  11.736  0.00  0.00    +0.000 N 
ATOM     11  C   UNL     1      41.421  10.809  10.827  0.00  0.00    +0.000 C 
ATOM     12  O   UNL     1      41.611  10.854   9.615  0.00  0.00    +0.000 OA
ATOM     13  H   UNL     1      42.260  10.694  12.722  0.00  0.00    +0.000 HD
BRANCH  11  14
ATOM     14  C   UNL     1      40.096  10.763  11.390  0.00  0.00    +0.000 A 
ATOM     15  C   UNL     1      39.443  11.516  12.346  0.00  0.00    +0.000 A 
ATOM     16  N   UNL     1      38.161  11.073  12.547  0.00  0.00    +0.000 NA
ATOM     17  C   UNL     1      38.015  10.060  11.726  0.00  0.00    +0.000 A 
ATOM     18  N   UNL     1      39.151   9.837  11.004  0.00  0.00    +0.000 N 
ATOM     19  H   UNL     1      39.294   9.120  10.304  0.00  0.00    +0.000 HD
ENDBRANCH  11  14
ENDBRANCH   9  10
ENDBRANCH   6   9
ENDBRANCH   2   3
BRANCH   2  20
ATOM     20  N   UNL     1      46.954   5.963  14.323  0.00  0.00    +0.000 N 
ATOM     21  C   UNL     1      48.287   6.177  14.570  0.00  0.00    +0.000 C 
ATOM     22  O   UNL     1      49.096   6.407  13.675  0.00  0.00    +0.000 OA
ATOM     23  H   UNL     1      46.364   5.619  15.071  0.00  0.00    +0.000 HD
BRANCH  21  24
ATOM     24  C   UNL     1      48.697   6.151  15.978  0.00  0.00    +0.000 A 
ATOM     25  C   UNL     1      49.510   7.156  16.484  0.00  0.00    +0.000 A 
ATOM     26  S   UNL     1      49.911   6.946  18.129  0.00  0.00    +0.000 S 
ATOM     27  C   UNL     1      49.055   5.477  18.206  0.00  0.00    +0.000 A 
ATOM     28  N   UNL     1      49.042   4.732  19.344  0.00  0.00    +0.000 NA
ATOM     29  C   UNL     1      48.391   3.622  19.247  0.00  0.00    +0.000 A 
ATOM     30  N   UNL     1      47.731   3.199  18.122  0.00  0.00    +0.000 N 
ATOM     31  C   UNL     1      47.659   3.949  16.973  0.00  0.00    +0.000 A 
ATOM     32  O   UNL     1      46.967   3.597  16.024  0.00  0.00    +0.000 OA
ATOM     33  C   UNL     1      48.428   5.178  17.010  0.00  0.00    +0.000 A 
ATOM     34  H   UNL     1      47.208   2.335  18.125  0.00  0.00    +0.000 HD
ENDBRANCH  21  24
ENDBRANCH   2  20
TORSDOF 6
ENDMDL
MODEL 8
REMARK VINA RESULT:    -7.421      3.747      8.129
REMARK INTER + INTRA:         -10.286
REMARK INTER:                  -9.312
REMARK INTRA:                  -0.973
REMARK UNBOUND:                -0.262
REMARK  Name = 
REMARK  7 active torsions:
REMARK  status: ('A' for Active; 'I' for Inactive)
REMARK    1  A    between atoms: C_1  and  C_2
REMARK    2  A    between atoms: C_2  and  N_3
REMARK    3  A    between atoms: C_2  and  C_16
REMARK    4  A    between atoms: C_4  and  C_6
REMARK    5  A    between atoms: C_19  and  C_20
REMARK    6  A    between atoms: C_20  and  N_21
REMARK    7  A    between atoms: C_22  and  C_24
REMARK                            x       y       z     vdW  Elec       q    Type
REMARK                         _______ _______ _______ _____ _____    ______ ____
ROOT
ATOM      1  C   UNL     1      48.511   9.022  15.416  0.00  0.00    +0.000 C 
ATOM      2  C   UNL     1      48.694   7.617  14.827  0.00  0.00    +0.000 C 
ENDROOT
BRANCH   2   3
ATOM      3  C   UNL     1      49.144   6.580  15.845  0.00  0.00    +0.000 A 
ATOM      4  C   UNL     1      50.464   6.608  16.325  0.00  0.00    +0.000 A 
ATOM      5  C   UNL     1      50.906   5.682  17.279  0.00  0.00    +0.000 A 
ATOM      6  C   UNL     1      50.041   4.693  17.763  0.00  0.00    +0.000 A 
ATOM      7  C   UNL     1      48.733   4.646  17.271  0.00  0.00    +0.000 A 
ATOM      8  C   UNL     1      48.296   5.565  16.312  0.00  0.00    +0.000 A 
BRANCH   6   9
ATOM      9  C   UNL     1      50.488   3.719  18.821  0.00  0.00    +0.000 C 
BRANCH   9  10
ATOM     10  N   UNL     1      51.729   3.080  18.453  0.00  0.00    +0.000 N 
ATOM     11  C   UNL     1      51.743   1.925  17.712  0.00  0.00    +0.000 C 
ATOM     12  O   UNL     1      50.714   1.360  17.350  0.00  0.00    +0.000 OA
ATOM     13  H   UNL     1      52.591   3.554  18.678  0.00  0.00    +0.000 HD
BRANCH  11  14
ATOM     14  C   UNL     1      53.048   1.417  17.379  0.00  0.00    +0.000 A 
ATOM     15  C   UNL     1      54.311   1.979  17.364  0.00  0.00    +0.000 A 
ATOM     16  N   UNL     1      55.259   1.074  16.963  0.00  0.00    +0.000 NA
ATOM     17  C   UNL     1      54.600  -0.036  16.734  0.00  0.00    +0.000 A 
ATOM     18  N   UNL     1      53.267   0.118  16.975  0.00  0.00    +0.000 N 
ATOM     19  H   UNL     1      52.547  -0.586  16.876  0.00  0.00    +0.000 HD
ENDBRANCH  11  14
ENDBRANCH   9  10
ENDBRANCH   6   9
ENDBRANCH   2   3
BRANCH   2  20
ATOM     20  N   UNL     1      47.469   7.174  14.192  0.00  0.00    +0.000 N 
ATOM     21  C   UNL     1      47.469   6.384  13.070  0.00  0.00    +0.000 C 
ATOM     22  O   UNL     1      48.494   5.881  12.618  0.00  0.00    +0.000 OA
ATOM     23  H   UNL     1      46.631   7.695  14.428  0.00  0.00    +0.000 HD
BRANCH  21  24
ATOM     24  C   UNL     1      46.163   6.139  12.449  0.00  0.00    +0.000 A 
ATOM     25  C   UNL     1      45.466   7.186  11.860  0.00  0.00    +0.000 A 
ATOM     26  S   UNL     1      43.955   6.722  11.218  0.00  0.00    +0.000 S 
ATOM     27  C   UNL     1      44.159   5.119  11.752  0.00  0.00    +0.000 A 
ATOM     28  N   UNL     1      43.181   4.191  11.573  0.00  0.00    +0.000 NA
ATOM     29  C   UNL     1      43.451   3.029  12.066  0.00  0.00    +0.000 A 
ATOM     30  N   UNL     1      44.622   2.704  12.703  0.00  0.00    +0.000 N 
ATOM     31  C   UNL     1      45.663   3.588  12.846  0.00  0.00    +0.000 A 
ATOM     32  O   UNL     1      46.739   3.235  13.318  0.00  0.00    +0.000 OA
ATOM     33  C   UNL     1      45.384   4.927  12.364  0.00  0.00    +0.000 A 
ATOM     34  H   UNL     1      44.785   1.764  13.032  0.00  0.00    +0.000 HD
ENDBRANCH  21  24
ENDBRANCH   2  20
TORSDOF 6
ENDMDL
MODEL 9
REMARK VINA RESULT:    -7.380      2.083      2.543
REMARK INTER + INTRA:         -10.231
REMARK INTER:                  -9.332
REMARK INTRA:                  -0.899
REMARK UNBOUND:                -0.262
REMARK  Name = 
REMARK  7 active torsions:
REMARK  status: ('A' for Active; 'I' for Inactive)
REMARK    1  A    between atoms: C_1  and  C_2
REMARK    2  A    between atoms: C_2  and  N_3
REMARK    3  A    between atoms: C_2  and  C_16
REMARK    4  A    between atoms: C_4  and  C_6
REMARK    5  A    between atoms: C_19  and  C_20
REMARK    6  A    between atoms: C_20  and  N_21
REMARK    7  A    between atoms: C_22  and  C_24
REMARK                            x       y       z     vdW  Elec       q    Type
REMARK                         _______ _______ _______ _____ _____    ______ ____
ROOT
ATOM      1  C   UNL     1      49.404   8.933  13.705  0.00  0.00    +0.000 C 
ATOM      2  C   UNL     1      47.955   8.860  14.204  0.00  0.00    +0.000 C 
ENDROOT
BRANCH   2   3
ATOM      3  C   UNL     1      47.024   8.096  13.274  0.00  0.00    +0.000 A 
ATOM      4  C   UNL     1      47.419   6.843  12.776  0.00  0.00    +0.000 A 
ATOM      5  C   UNL     1      46.578   6.103  11.935  0.00  0.00    +0.000 A 
ATOM      6  C   UNL     1      45.328   6.606  11.558  0.00  0.00    +0.000 A 
ATOM      7  C   UNL     1      44.940   7.863  12.033  0.00  0.00    +0.000 A 
ATOM      8  C   UNL     1      45.784   8.605  12.864  0.00  0.00    +0.000 A 
BRANCH   6   9
ATOM      9  C   UNL     1      44.394   5.802  10.692  0.00  0.00    +0.000 C 
BRANCH   9  10
ATOM     10  N   UNL     1      45.126   4.967   9.769  0.00  0.00    +0.000 N 
ATOM     11  C   UNL     1      44.738   3.674   9.519  0.00  0.00    +0.000 C 
ATOM     12  O   UNL     1      43.780   3.152  10.081  0.00  0.00    +0.000 OA
ATOM     13  H   UNL     1      45.877   5.387   9.242  0.00  0.00    +0.000 HD
BRANCH  11  14
ATOM     14  C   UNL     1      45.530   2.967   8.546  0.00  0.00    +0.000 A 
ATOM     15  C   UNL     1      45.963   1.658   8.443  0.00  0.00    +0.000 A 
ATOM     16  N   UNL     1      46.710   1.463   7.311  0.00  0.00    +0.000 NA
ATOM     17  C   UNL     1      46.742   2.631   6.715  0.00  0.00    +0.000 A 
ATOM     18  N   UNL     1      46.042   3.567   7.417  0.00  0.00    +0.000 N 
ATOM     19  H   UNL     1      45.912   4.540   7.169  0.00  0.00    +0.000 HD
ENDBRANCH  11  14
ENDBRANCH   9  10
ENDBRANCH   6   9
ENDBRANCH   2   3
BRANCH   2  20
ATOM     20  N   UNL     1      47.909   8.271  15.527  0.00  0.00    +0.000 N 
ATOM     21  C   UNL     1      48.329   8.947  16.646  0.00  0.00    +0.000 C 
ATOM     22  O   UNL     1      48.630  10.138  16.622  0.00  0.00    +0.000 OA
ATOM     23  H   UNL     1      47.830   7.261  15.564  0.00  0.00    +0.000 HD
BRANCH  21  24
ATOM     24  C   UNL     1      48.367   8.177  17.893  0.00  0.00    +0.000 A 
ATOM     25  C   UNL     1      47.952   8.760  19.083  0.00  0.00    +0.000 A 
ATOM     26  S   UNL     1      48.095   7.727  20.434  0.00  0.00    +0.000 S 
ATOM     27  C   UNL     1      48.766   6.486  19.482  0.00  0.00    +0.000 A 
ATOM     28  N   UNL     1      49.179   5.318  20.044  0.00  0.00    +0.000 NA
ATOM     29  C   UNL     1      49.708   4.484  19.212  0.00  0.00    +0.000 A 
ATOM     30  N   UNL     1      49.841   4.703  17.864  0.00  0.00    +0.000 N 
ATOM     31  C   UNL     1      49.377   5.837  17.244  0.00  0.00    +0.000 A 
ATOM     32  O   UNL     1      49.407   5.954  16.023  0.00  0.00    +0.000 OA
ATOM     33  C   UNL     1      48.830   6.833  18.145  0.00  0.00    +0.000 A 
ATOM     34  H   UNL     1      50.230   3.991  17.263  0.00  0.00    +0.000 HD
ENDBRANCH  21  24
ENDBRANCH   2  20
TORSDOF 6
ENDMDL
