MODEL 1
REMARK VINA RESULT:    -8.136      0.000      0.000
REMARK INTER + INTRA:         -11.358
REMARK INTER:                 -10.752
REMARK INTRA:                  -0.607
REMARK UNBOUND:                -0.607
REMARK  Name = 
REMARK  6 active torsions:
REMARK  status: ('A' for Active; 'I' for Inactive)
REMARK    1  A    between atoms: C_2  and  C_18
REMARK    2  A    between atoms: N_3  and  C_4
REMARK    3  A    between atoms: C_4  and  C_5
REMARK    4  A    between atoms: C_8  and  C_9
REMARK    5  A    between atoms: C_9  and  C_10
REMARK    6  A    between atoms: C_13  and  O_14
REMARK                            x       y       z     vdW  Elec       q    Type
REMARK                         _______ _______ _______ _____ _____    ______ ____
ROOT
ATOM      1  O   UNL     1      46.790   3.260  13.996  0.00  0.00    +0.000 OA
ATOM      2  C   UNL     1      46.603   4.430  14.307  0.00  0.00    +0.000 C 
ATOM      3  N   UNL     1      45.490   5.134  13.934  0.00  0.00    +0.000 N 
ATOM      4  H   UNL     1      45.469   6.137  14.066  0.00  0.00    +0.000 HD
ENDROOT
BRANCH   2   5
ATOM      5  C   UNL     1      47.544   5.166  15.161  0.00  0.00    +0.000 A 
ATOM      6  C   UNL     1      48.298   6.214  14.656  0.00  0.00    +0.000 A 
ATOM      7  S   UNL     1      49.313   6.945  15.819  0.00  0.00    +0.000 S 
ATOM      8  C   UNL     1      48.755   5.901  17.043  0.00  0.00    +0.000 A 
ATOM      9  N   UNL     1      49.202   6.010  18.324  0.00  0.00    +0.000 NA
ATOM     10  C   UNL     1      48.670   5.171  19.149  0.00  0.00    +0.000 A 
ATOM     11  N   UNL     1      47.743   4.223  18.812  0.00  0.00    +0.000 N 
ATOM     12  C   UNL     1      47.328   4.021  17.520  0.00  0.00    +0.000 A 
ATOM     13  O   UNL     1      46.632   3.053  17.241  0.00  0.00    +0.000 OA
ATOM     14  C   UNL     1      47.842   4.982  16.563  0.00  0.00    +0.000 A 
ATOM     15  H   UNL     1      47.399   3.557  19.489  0.00  0.00    +0.000 HD
ENDBRANCH   2   5
BRANCH   3  16
ATOM     16  C   UNL     1      44.450   4.623  13.087  0.00  0.00    +0.000 C 
BRANCH  16  17
ATOM     17  C   UNL     1      44.853   4.596  11.635  0.00  0.00    +0.000 A 
ATOM     18  C   UNL     1      45.642   5.627  11.110  0.00  0.00    +0.000 A 
ATOM     19  C   UNL     1      46.045   5.605   9.773  0.00  0.00    +0.000 A 
ATOM     20  C   UNL     1      45.691   4.543   8.933  0.00  0.00    +0.000 A 
ATOM     21  C   UNL     1      44.876   3.524   9.449  0.00  0.00    +0.000 A 
ATOM     22  C   UNL     1      44.451   3.558  10.784  0.00  0.00    +0.000 A 
BRANCH  20  23
ATOM     23  C   UNL     1      46.165   4.506   7.496  0.00  0.00    +0.000 C 
BRANCH  23  24
ATOM     24  C   UNL     1      46.066   3.114   6.833  0.00  0.00    +0.000 C 
ATOM     25  C   UNL     1      46.420   3.123   5.333  0.00  0.00    +0.000 C 
ATOM     26  C   UNL     1      47.514   2.074   5.135  0.00  0.00    +0.000 C 
ATOM     27  C   UNL     1      48.195   1.979   6.491  0.00  0.00    +0.000 C 
ATOM     28  C   UNL     1      47.035   2.099   7.471  0.00  0.00    +0.000 C 
BRANCH  27  29
ATOM     29  O   UNL     1      49.121   3.040   6.681  0.00  0.00    +0.000 OA
ATOM     30  H   UNL     1      48.898   3.508   7.502  0.00  0.00    +0.000 HD
ENDBRANCH  27  29
ENDBRANCH  23  24
ENDBRANCH  20  23
ENDBRANCH  16  17
ENDBRANCH   3  16
TORSDOF 6
ENDMDL
MODEL 2
REMARK VINA RESULT:    -7.225      4.211      9.514
REMARK INTER + INTRA:         -10.155
REMARK INTER:                  -9.261
REMARK INTRA:                  -0.894
REMARK UNBOUND:                -0.607
REMARK  Name = 
REMARK  6 active torsions:
REMARK  status: ('A' for Active; 'I' for Inactive)
REMARK    1  A    between atoms: C_2  and  C_18
REMARK    2  A    between atoms: N_3  and  C_4
REMARK    3  A    between atoms: C_4  and  C_5
REMARK    4  A    between atoms: C_8  and  C_9
REMARK    5  A    between atoms: C_9  and  C_10
REMARK    6  A    between atoms: C_13  and  O_14
REMARK                            x       y       z     vdW  Elec       q    Type
REMARK                         _______ _______ _______ _____ _____    ______ ____
ROOT
ATOM      1  O   UNL     1      47.268   3.119  13.991  0.00  0.00    +0.000 OA
ATOM      2  C   UNL     1      46.814   4.158  14.455  0.00  0.00    +0.000 C 
ATOM      3  N   UNL     1      46.739   4.407  15.799  0.00  0.00    +0.000 N 
ATOM      4  H   UNL     1      46.198   5.196  16.130  0.00  0.00    +0.000 HD
ENDROOT
BRANCH   2   5
ATOM      5  C   UNL     1      46.357   5.258  13.596  0.00  0.00    +0.000 A 
ATOM      6  C   UNL     1      47.162   6.361  13.358  0.00  0.00    +0.000 A 
ATOM      7  S   UNL     1      46.448   7.512  12.317  0.00  0.00    +0.000 S 
ATOM      8  C   UNL     1      45.050   6.560  12.131  0.00  0.00    +0.000 A 
ATOM      9  N   UNL     1      44.027   6.953  11.323  0.00  0.00    +0.000 NA
ATOM     10  C   UNL     1      43.046   6.117  11.257  0.00  0.00    +0.000 A 
ATOM     11  N   UNL     1      42.982   4.929  11.933  0.00  0.00    +0.000 N 
ATOM     12  C   UNL     1      43.948   4.533  12.823  0.00  0.00    +0.000 A 
ATOM     13  O   UNL     1      43.767   3.551  13.532  0.00  0.00    +0.000 OA
ATOM     14  C   UNL     1      45.108   5.402  12.883  0.00  0.00    +0.000 A 
ATOM     15  H   UNL     1      42.165   4.338  11.885  0.00  0.00    +0.000 HD
ENDBRANCH   2   5
BRANCH   3  16
ATOM     16  C   UNL     1      47.111   3.470  16.822  0.00  0.00    +0.000 C 
BRANCH  16  17
ATOM     17  C   UNL     1      48.588   3.502  17.120  0.00  0.00    +0.000 A 
ATOM     18  C   UNL     1      49.342   2.325  17.039  0.00  0.00    +0.000 A 
ATOM     19  C   UNL     1      50.716   2.341  17.287  0.00  0.00    +0.000 A 
ATOM     20  C   UNL     1      51.377   3.535  17.598  0.00  0.00    +0.000 A 
ATOM     21  C   UNL     1      50.618   4.711  17.708  0.00  0.00    +0.000 A 
ATOM     22  C   UNL     1      49.235   4.691  17.484  0.00  0.00    +0.000 A 
BRANCH  20  23
ATOM     23  C   UNL     1      52.872   3.552  17.827  0.00  0.00    +0.000 C 
BRANCH  23  24
ATOM     24  C   UNL     1      53.333   2.748  19.063  0.00  0.00    +0.000 C 
ATOM     25  C   UNL     1      54.678   2.023  18.857  0.00  0.00    +0.000 C 
ATOM     26  C   UNL     1      55.591   2.461  20.002  0.00  0.00    +0.000 C 
ATOM     27  C   UNL     1      55.053   3.822  20.413  0.00  0.00    +0.000 C 
ATOM     28  C   UNL     1      53.544   3.649  20.295  0.00  0.00    +0.000 C 
BRANCH  27  29
ATOM     29  O   UNL     1      55.508   4.846  19.539  0.00  0.00    +0.000 OA
ATOM     30  H   UNL     1      55.415   4.540  18.622  0.00  0.00    +0.000 HD
ENDBRANCH  27  29
ENDBRANCH  23  24
ENDBRANCH  20  23
ENDBRANCH  16  17
ENDBRANCH   3  16
TORSDOF 6
ENDMDL
MODEL 3
REMARK VINA RESULT:    -7.029      3.877      6.074
REMARK INTER + INTRA:          -9.896
REMARK INTER:                  -8.756
REMARK INTRA:                  -1.140
REMARK UNBOUND:                -0.607
REMARK  Name = 
REMARK  6 active torsions:
REMARK  status: ('A' for Active; 'I' for Inactive)
REMARK    1  A    between atoms: C_2  and  C_18
REMARK    2  A    between atoms: N_3  and  C_4
REMARK    3  A    between atoms: C_4  and  C_5
REMARK    4  A    between atoms: C_8  and  C_9
REMARK    5  A    between atoms: C_9  and  C_10
REMARK    6  A    between atoms: C_13  and  O_14
REMARK                            x       y       z     vdW  Elec       q    Type
REMARK                         _______ _______ _______ _____ _____    ______ ____
ROOT
ATOM      1  O   UNL     1      51.796   6.220  16.498  0.00  0.00    +0.000 OA
ATOM      2  C   UNL     1      51.485   5.365  17.319  0.00  0.00    +0.000 C 
ATOM      3  N   UNL     1      50.232   5.271  17.860  0.00  0.00    +0.000 N 
ATOM      4  H   UNL     1      50.078   4.664  18.656  0.00  0.00    +0.000 HD
ENDROOT
BRANCH   2   5
ATOM      5  C   UNL     1      52.427   4.327  17.754  0.00  0.00    +0.000 A 
ATOM      6  C   UNL     1      53.676   4.659  18.256  0.00  0.00    +0.000 A 
ATOM      7  S   UNL     1      54.606   3.304  18.721  0.00  0.00    +0.000 S 
ATOM      8  C   UNL     1      53.357   2.230  18.290  0.00  0.00    +0.000 A 
ATOM      9  N   UNL     1      53.486   0.886  18.468  0.00  0.00    +0.000 NA
ATOM     10  C   UNL     1      52.449   0.199  18.123  0.00  0.00    +0.000 A 
ATOM     11  N   UNL     1      51.298   0.726  17.604  0.00  0.00    +0.000 N 
ATOM     12  C   UNL     1      51.156   2.063  17.328  0.00  0.00    +0.000 A 
ATOM     13  O   UNL     1      50.180   2.463  16.706  0.00  0.00    +0.000 OA
ATOM     14  C   UNL     1      52.265   2.891  17.760  0.00  0.00    +0.000 A 
ATOM     15  H   UNL     1      50.537   0.136  17.302  0.00  0.00    +0.000 HD
ENDBRANCH   2   5
BRANCH   3  16
ATOM     16  C   UNL     1      49.159   6.186  17.594  0.00  0.00    +0.000 C 
BRANCH  16  17
ATOM     17  C   UNL     1      48.406   5.839  16.335  0.00  0.00    +0.000 A 
ATOM     18  C   UNL     1      48.514   6.663  15.208  0.00  0.00    +0.000 A 
ATOM     19  C   UNL     1      47.843   6.343  14.025  0.00  0.00    +0.000 A 
ATOM     20  C   UNL     1      47.068   5.182  13.930  0.00  0.00    +0.000 A 
ATOM     21  C   UNL     1      46.935   4.370  15.068  0.00  0.00    +0.000 A 
ATOM     22  C   UNL     1      47.588   4.704  16.262  0.00  0.00    +0.000 A 
BRANCH  20  23
ATOM     23  C   UNL     1      46.376   4.820  12.634  0.00  0.00    +0.000 C 
BRANCH  23  24
ATOM     24  C   UNL     1      44.954   4.246  12.814  0.00  0.00    +0.000 C 
ATOM     25  C   UNL     1      43.869   5.331  12.963  0.00  0.00    +0.000 C 
ATOM     26  C   UNL     1      42.809   5.039  11.901  0.00  0.00    +0.000 C 
ATOM     27  C   UNL     1      43.562   4.286  10.815  0.00  0.00    +0.000 C 
ATOM     28  C   UNL     1      44.514   3.397  11.605  0.00  0.00    +0.000 C 
BRANCH  27  29
ATOM     29  O   UNL     1      44.287   5.174   9.976  0.00  0.00    +0.000 OA
ATOM     30  H   UNL     1      44.228   6.071  10.343  0.00  0.00    +0.000 HD
ENDBRANCH  27  29
ENDBRANCH  23  24
ENDBRANCH  20  23
ENDBRANCH  16  17
ENDBRANCH   3  16
TORSDOF 6
ENDMDL
MODEL 4
REMARK VINA RESULT:    -6.900      4.910      7.661
REMARK INTER + INTRA:          -9.725
REMARK INTER:                  -8.708
REMARK INTRA:                  -1.017
REMARK UNBOUND:                -0.607
REMARK  Name = 
REMARK  6 active torsions:
REMARK  status: ('A' for Active; 'I' for Inactive)
REMARK    1  A    between atoms: C_2  and  C_18
REMARK    2  A    between atoms: N_3  and  C_4
REMARK    3  A    between atoms: C_4  and  C_5
REMARK    4  A    between atoms: C_8  and  C_9
REMARK    5  A    between atoms: C_9  and  C_10
REMARK    6  A    between atoms: C_13  and  O_14
REMARK                            x       y       z     vdW  Elec       q    Type
REMARK                         _______ _______ _______ _____ _____    ______ ____
ROOT
ATOM      1  O   UNL     1      43.726   7.479  11.365  0.00  0.00    +0.000 OA
ATOM      2  C   UNL     1      44.613   6.642  11.475  0.00  0.00    +0.000 C 
ATOM      3  N   UNL     1      45.899   6.957  11.824  0.00  0.00    +0.000 N 
ATOM      4  H   UNL     1      46.625   6.258  11.729  0.00  0.00    +0.000 HD
ENDROOT
BRANCH   2   5
ATOM      5  C   UNL     1      44.355   5.208  11.292  0.00  0.00    +0.000 A 
ATOM      6  C   UNL     1      43.611   4.492  12.217  0.00  0.00    +0.000 A 
ATOM      7  S   UNL     1      43.413   2.846  11.804  0.00  0.00    +0.000 S 
ATOM      8  C   UNL     1      44.295   3.045  10.361  0.00  0.00    +0.000 A 
ATOM      9  N   UNL     1      44.479   2.010   9.496  0.00  0.00    +0.000 NA
ATOM     10  C   UNL     1      45.143   2.316   8.431  0.00  0.00    +0.000 A 
ATOM     11  N   UNL     1      45.651   3.555   8.154  0.00  0.00    +0.000 N 
ATOM     12  C   UNL     1      45.564   4.603   9.034  0.00  0.00    +0.000 A 
ATOM     13  O   UNL     1      46.181   5.639   8.822  0.00  0.00    +0.000 OA
ATOM     14  C   UNL     1      44.768   4.335  10.217  0.00  0.00    +0.000 A 
ATOM     15  H   UNL     1      46.208   3.725   7.329  0.00  0.00    +0.000 HD
ENDBRANCH   2   5
BRANCH   3  16
ATOM     16  C   UNL     1      46.381   8.292  12.034  0.00  0.00    +0.000 C 
BRANCH  16  17
ATOM     17  C   UNL     1      47.883   8.381  11.949  0.00  0.00    +0.000 A 
ATOM     18  C   UNL     1      48.665   7.248  12.207  0.00  0.00    +0.000 A 
ATOM     19  C   UNL     1      50.056   7.305  12.108  0.00  0.00    +0.000 A 
ATOM     20  C   UNL     1      50.702   8.487  11.727  0.00  0.00    +0.000 A 
ATOM     21  C   UNL     1      49.922   9.632  11.497  0.00  0.00    +0.000 A 
ATOM     22  C   UNL     1      48.527   9.581  11.620  0.00  0.00    +0.000 A 
BRANCH  20  23
ATOM     23  C   UNL     1      52.207   8.532  11.584  0.00  0.00    +0.000 C 
BRANCH  23  24
ATOM     24  C   UNL     1      52.707   8.448  10.124  0.00  0.00    +0.000 C 
ATOM     25  C   UNL     1      54.243   8.409  10.002  0.00  0.00    +0.000 C 
ATOM     26  C   UNL     1      54.585   7.171   9.174  0.00  0.00    +0.000 C 
ATOM     27  C   UNL     1      53.411   6.232   9.398  0.00  0.00    +0.000 C 
ATOM     28  C   UNL     1      52.212   7.172   9.415  0.00  0.00    +0.000 C 
BRANCH  27  29
ATOM     29  O   UNL     1      53.525   5.545  10.637  0.00  0.00    +0.000 OA
ATOM     30  H   UNL     1      54.136   6.034  11.211  0.00  0.00    +0.000 HD
ENDBRANCH  27  29
ENDBRANCH  23  24
ENDBRANCH  20  23
ENDBRANCH  16  17
ENDBRANCH   3  16
TORSDOF 6
ENDMDL
MODEL 5
REMARK VINA RESULT:    -6.852      3.805      8.999
REMARK INTER + INTRA:          -9.661
REMARK INTER:                  -8.679
REMARK INTRA:                  -0.983
REMARK UNBOUND:                -0.607
REMARK  Name = 
REMARK  6 active torsions:
REMARK  status: ('A' for Active; 'I' for Inactive)
REMARK    1  A    between atoms: C_2  and  C_18
REMARK    2  A    between atoms: N_3  and  C_4
REMARK    3  A    between atoms: C_4  and  C_5
REMARK    4  A    between atoms: C_8  and  C_9
REMARK    5  A    between atoms: C_9  and  C_10
REMARK    6  A    between atoms: C_13  and  O_14
REMARK                            x       y       z     vdW  Elec       q    Type
REMARK                         _______ _______ _______ _____ _____    ______ ____
ROOT
ATOM      1  O   UNL     1      45.835   7.917  11.741  0.00  0.00    +0.000 OA
ATOM      2  C   UNL     1      46.377   6.833  11.564  0.00  0.00    +0.000 C 
ATOM      3  N   UNL     1      47.614   6.526  12.061  0.00  0.00    +0.000 N 
ATOM      4  H   UNL     1      48.086   5.690  11.740  0.00  0.00    +0.000 HD
ENDROOT
BRANCH   2   5
ATOM      5  C   UNL     1      45.712   5.741  10.841  0.00  0.00    +0.000 A 
ATOM      6  C   UNL     1      45.879   5.583   9.475  0.00  0.00    +0.000 A 
ATOM      7  S   UNL     1      45.035   4.241   8.836  0.00  0.00    +0.000 S 
ATOM      8  C   UNL     1      44.441   3.814  10.373  0.00  0.00    +0.000 A 
ATOM      9  N   UNL     1      43.660   2.713  10.548  0.00  0.00    +0.000 NA
ATOM     10  C   UNL     1      43.307   2.497  11.772  0.00  0.00    +0.000 A 
ATOM     11  N   UNL     1      43.650   3.285  12.836  0.00  0.00    +0.000 N 
ATOM     12  C   UNL     1      44.363   4.449  12.695  0.00  0.00    +0.000 A 
ATOM     13  O   UNL     1      44.497   5.208  13.646  0.00  0.00    +0.000 OA
ATOM     14  C   UNL     1      44.844   4.703  11.350  0.00  0.00    +0.000 A 
ATOM     15  H   UNL     1      43.302   3.097  13.765  0.00  0.00    +0.000 HD
ENDBRANCH   2   5
BRANCH   3  16
ATOM     16  C   UNL     1      48.452   7.443  12.781  0.00  0.00    +0.000 C 
BRANCH  16  17
ATOM     17  C   UNL     1      48.837   6.922  14.143  0.00  0.00    +0.000 A 
ATOM     18  C   UNL     1      50.008   7.377  14.759  0.00  0.00    +0.000 A 
ATOM     19  C   UNL     1      50.366   6.924  16.030  0.00  0.00    +0.000 A 
ATOM     20  C   UNL     1      49.553   6.024  16.728  0.00  0.00    +0.000 A 
ATOM     21  C   UNL     1      48.393   5.543  16.100  0.00  0.00    +0.000 A 
ATOM     22  C   UNL     1      48.047   5.979  14.814  0.00  0.00    +0.000 A 
BRANCH  20  23
ATOM     23  C   UNL     1      49.927   5.568  18.122  0.00  0.00    +0.000 C 
BRANCH  23  24
ATOM     24  C   UNL     1      49.425   6.499  19.248  0.00  0.00    +0.000 C 
ATOM     25  C   UNL     1      48.610   7.702  18.732  0.00  0.00    +0.000 C 
ATOM     26  C   UNL     1      47.275   7.676  19.476  0.00  0.00    +0.000 C 
ATOM     27  C   UNL     1      47.083   6.217  19.856  0.00  0.00    +0.000 C 
ATOM     28  C   UNL     1      48.489   5.767  20.230  0.00  0.00    +0.000 C 
BRANCH  27  29
ATOM     29  O   UNL     1      46.590   5.456  18.761  0.00  0.00    +0.000 OA
ATOM     30  H   UNL     1      47.327   5.259  18.160  0.00  0.00    +0.000 HD
ENDBRANCH  27  29
ENDBRANCH  23  24
ENDBRANCH  20  23
ENDBRANCH  16  17
ENDBRANCH   3  16
TORSDOF 6
ENDMDL
MODEL 6
REMARK VINA RESULT:    -6.683      3.652      9.291
REMARK INTER + INTRA:          -9.439
REMARK INTER:                  -8.285
REMARK INTRA:                  -1.154
REMARK UNBOUND:                -0.607
REMARK  Name = 
REMARK  6 active torsions:
REMARK  status: ('A' for Active; 'I' for Inactive)
REMARK    1  A    between atoms: C_2  and  C_18
REMARK    2  A    between atoms: N_3  and  C_4
REMARK    3  A    between atoms: C_4  and  C_5
REMARK    4  A    between atoms: C_8  and  C_9
REMARK    5  A    between atoms: C_9  and  C_10
REMARK    6  A    between atoms: C_13  and  O_14
REMARK                            x       y       z     vdW  Elec       q    Type
REMARK                         _______ _______ _______ _____ _____    ______ ____
ROOT
ATOM      1  O   UNL     1      45.026   7.725  11.844  0.00  0.00    +0.000 OA
ATOM      2  C   UNL     1      45.687   6.704  11.699  0.00  0.00    +0.000 C 
ATOM      3  N   UNL     1      47.055   6.696  11.684  0.00  0.00    +0.000 N 
ATOM      4  H   UNL     1      47.544   5.860  11.388  0.00  0.00    +0.000 HD
ENDROOT
BRANCH   2   5
ATOM      5  C   UNL     1      45.058   5.382  11.583  0.00  0.00    +0.000 A 
ATOM      6  C   UNL     1      44.397   4.808  12.658  0.00  0.00    +0.000 A 
ATOM      7  S   UNL     1      43.722   3.279  12.303  0.00  0.00    +0.000 S 
ATOM      8  C   UNL     1      44.270   3.349  10.693  0.00  0.00    +0.000 A 
ATOM      9  N   UNL     1      43.998   2.350   9.809  0.00  0.00    +0.000 NA
ATOM     10  C   UNL     1      44.452   2.552   8.617  0.00  0.00    +0.000 A 
ATOM     11  N   UNL     1      45.165   3.653   8.228  0.00  0.00    +0.000 N 
ATOM     12  C   UNL     1      45.535   4.641   9.103  0.00  0.00    +0.000 A 
ATOM     13  O   UNL     1      46.316   5.516   8.750  0.00  0.00    +0.000 OA
ATOM     14  C   UNL     1      44.992   4.499  10.441  0.00  0.00    +0.000 A 
ATOM     15  H   UNL     1      45.541   3.734   7.294  0.00  0.00    +0.000 HD
ENDBRANCH   2   5
BRANCH   3  16
ATOM     16  C   UNL     1      47.877   7.870  11.764  0.00  0.00    +0.000 C 
BRANCH  16  17
ATOM     17  C   UNL     1      48.477   8.059  13.134  0.00  0.00    +0.000 A 
ATOM     18  C   UNL     1      47.775   8.775  14.111  0.00  0.00    +0.000 A 
ATOM     19  C   UNL     1      48.304   8.939  15.393  0.00  0.00    +0.000 A 
ATOM     20  C   UNL     1      49.536   8.372  15.739  0.00  0.00    +0.000 A 
ATOM     21  C   UNL     1      50.256   7.679  14.753  0.00  0.00    +0.000 A 
ATOM     22  C   UNL     1      49.736   7.535  13.460  0.00  0.00    +0.000 A 
BRANCH  20  23
ATOM     23  C   UNL     1      50.085   8.519  17.141  0.00  0.00    +0.000 C 
BRANCH  23  24
ATOM     24  C   UNL     1      50.024   7.226  17.984  0.00  0.00    +0.000 C 
ATOM     25  C   UNL     1      49.953   7.485  19.502  0.00  0.00    +0.000 C 
ATOM     26  C   UNL     1      48.727   6.732  20.018  0.00  0.00    +0.000 C 
ATOM     27  C   UNL     1      47.810   6.633  18.809  0.00  0.00    +0.000 C 
ATOM     28  C   UNL     1      48.777   6.381  17.659  0.00  0.00    +0.000 C 
BRANCH  27  29
ATOM     29  O   UNL     1      47.092   7.841  18.602  0.00  0.00    +0.000 OA
ATOM     30  H   UNL     1      46.312   7.653  18.055  0.00  0.00    +0.000 HD
ENDBRANCH  27  29
ENDBRANCH  23  24
ENDBRANCH  20  23
ENDBRANCH  16  17
ENDBRANCH   3  16
TORSDOF 6
ENDMDL
MODEL 7
REMARK VINA RESULT:    -6.612      3.450      4.919
REMARK INTER + INTRA:          -9.344
REMARK INTER:                  -8.263
REMARK INTRA:                  -1.081
REMARK UNBOUND:                -0.607
REMARK  Name = 
REMARK  6 active torsions:
REMARK  status: ('A' for Active; 'I' for Inactive)
REMARK    1  A    between atoms: C_2  and  C_18
REMARK    2  A    between atoms: N_3  and  C_4
REMARK    3  A    between atoms: C_4  and  C_5
REMARK    4  A    between atoms: C_8  and  C_9
REMARK    5  A    between atoms: C_9  and  C_10
REMARK    6  A    between atoms: C_13  and  O_14
REMARK                            x       y       z     vdW  Elec       q    Type
REMARK                         _______ _______ _______ _____ _____    ______ ____
ROOT
ATOM      1  O   UNL     1      49.125   9.967  17.119  0.00  0.00    +0.000 OA
ATOM      2  C   UNL     1      48.508   8.909  17.100  0.00  0.00    +0.000 C 
ATOM      3  N   UNL     1      47.904   8.415  15.975  0.00  0.00    +0.000 N 
ATOM      4  H   UNL     1      47.264   7.636  16.056  0.00  0.00    +0.000 HD
ENDROOT
BRANCH   2   5
ATOM      5  C   UNL     1      48.408   8.047  18.285  0.00  0.00    +0.000 A 
ATOM      6  C   UNL     1      48.027   8.563  19.514  0.00  0.00    +0.000 A 
ATOM      7  S   UNL     1      47.956   7.388  20.752  0.00  0.00    +0.000 S 
ATOM      8  C   UNL     1      48.406   6.147  19.678  0.00  0.00    +0.000 A 
ATOM      9  N   UNL     1      48.502   4.854  20.091  0.00  0.00    +0.000 NA
ATOM     10  C   UNL     1      48.825   4.018  19.160  0.00  0.00    +0.000 A 
ATOM     11  N   UNL     1      49.074   4.355  17.858  0.00  0.00    +0.000 N 
ATOM     12  C   UNL     1      49.073   5.654  17.417  0.00  0.00    +0.000 A 
ATOM     13  O   UNL     1      49.469   5.922  16.290  0.00  0.00    +0.000 OA
ATOM     14  C   UNL     1      48.648   6.627  18.405  0.00  0.00    +0.000 A 
ATOM     15  H   UNL     1      49.374   3.666  17.183  0.00  0.00    +0.000 HD
ENDBRANCH   2   5
BRANCH   3  16
ATOM     16  C   UNL     1      47.859   9.095  14.711  0.00  0.00    +0.000 C 
BRANCH  16  17
ATOM     17  C   UNL     1      47.263   8.241  13.621  0.00  0.00    +0.000 A 
ATOM     18  C   UNL     1      47.729   6.936  13.424  0.00  0.00    +0.000 A 
ATOM     19  C   UNL     1      47.171   6.123  12.435  0.00  0.00    +0.000 A 
ATOM     20  C   UNL     1      46.119   6.583  11.635  0.00  0.00    +0.000 A 
ATOM     21  C   UNL     1      45.670   7.901  11.811  0.00  0.00    +0.000 A 
ATOM     22  C   UNL     1      46.247   8.725  12.787  0.00  0.00    +0.000 A 
BRANCH  20  23
ATOM     23  C   UNL     1      45.493   5.683  10.592  0.00  0.00    +0.000 C 
BRANCH  23  24
ATOM     24  C   UNL     1      44.097   5.144  10.978  0.00  0.00    +0.000 C 
ATOM     25  C   UNL     1      43.739   3.815  10.283  0.00  0.00    +0.000 C 
ATOM     26  C   UNL     1      43.363   2.830  11.390  0.00  0.00    +0.000 C 
ATOM     27  C   UNL     1      44.102   3.341  12.617  0.00  0.00    +0.000 C 
ATOM     28  C   UNL     1      43.984   4.854  12.488  0.00  0.00    +0.000 C 
BRANCH  27  29
ATOM     29  O   UNL     1      45.466   2.943  12.604  0.00  0.00    +0.000 OA
ATOM     30  H   UNL     1      46.020   3.714  12.806  0.00  0.00    +0.000 HD
ENDBRANCH  27  29
ENDBRANCH  23  24
ENDBRANCH  20  23
ENDBRANCH  16  17
ENDBRANCH   3  16
TORSDOF 6
ENDMDL
MODEL 8
REMARK VINA RESULT:    -5.658      5.892      8.098
REMARK INTER + INTRA:          -8.084
REMARK INTER:                  -7.026
REMARK INTRA:                  -1.059
REMARK UNBOUND:                -0.607
REMARK  Name = 
REMARK  6 active torsions:
REMARK  status: ('A' for Active; 'I' for Inactive)
REMARK    1  A    between atoms: C_2  and  C_18
REMARK    2  A    between atoms: N_3  and  C_4
REMARK    3  A    between atoms: C_4  and  C_5
REMARK    4  A    between atoms: C_8  and  C_9
REMARK    5  A    between atoms: C_9  and  C_10
REMARK    6  A    between atoms: C_13  and  O_14
REMARK                            x       y       z     vdW  Elec       q    Type
REMARK                         _______ _______ _______ _____ _____    ______ ____
ROOT
ATOM      1  O   UNL     1      50.373  10.976  10.549  0.00  0.00    +0.000 OA
ATOM      2  C   UNL     1      51.254  10.194  10.887  0.00  0.00    +0.000 C 
ATOM      3  N   UNL     1      51.205   9.470  12.047  0.00  0.00    +0.000 N 
ATOM      4  H   UNL     1      52.033   8.978  12.361  0.00  0.00    +0.000 HD
ENDROOT
BRANCH   2   5
ATOM      5  C   UNL     1      52.422   9.927  10.038  0.00  0.00    +0.000 A 
ATOM      6  C   UNL     1      53.207  10.962   9.556  0.00  0.00    +0.000 A 
ATOM      7  S   UNL     1      54.525  10.432   8.607  0.00  0.00    +0.000 S 
ATOM      8  C   UNL     1      54.102   8.799   8.833  0.00  0.00    +0.000 A 
ATOM      9  N   UNL     1      54.852   7.794   8.303  0.00  0.00    +0.000 NA
ATOM     10  C   UNL     1      54.427   6.606   8.580  0.00  0.00    +0.000 A 
ATOM     11  N   UNL     1      53.315   6.327   9.326  0.00  0.00    +0.000 N 
ATOM     12  C   UNL     1      52.483   7.306   9.807  0.00  0.00    +0.000 A 
ATOM     13  O   UNL     1      51.411   7.007  10.318  0.00  0.00    +0.000 OA
ATOM     14  C   UNL     1      52.951   8.661   9.584  0.00  0.00    +0.000 A 
ATOM     15  H   UNL     1      52.999   5.379   9.468  0.00  0.00    +0.000 HD
ENDBRANCH   2   5
BRANCH   3  16
ATOM     16  C   UNL     1      50.169   9.582  13.034  0.00  0.00    +0.000 C 
BRANCH  16  17
ATOM     17  C   UNL     1      49.202   8.427  12.986  0.00  0.00    +0.000 A 
ATOM     18  C   UNL     1      49.042   7.604  14.107  0.00  0.00    +0.000 A 
ATOM     19  C   UNL     1      48.132   6.545  14.089  0.00  0.00    +0.000 A 
ATOM     20  C   UNL     1      47.343   6.294  12.960  0.00  0.00    +0.000 A 
ATOM     21  C   UNL     1      47.523   7.100  11.825  0.00  0.00    +0.000 A 
ATOM     22  C   UNL     1      48.454   8.148  11.835  0.00  0.00    +0.000 A 
BRANCH  20  23
ATOM     23  C   UNL     1      46.331   5.170  12.961  0.00  0.00    +0.000 C 
BRANCH  23  24
ATOM     24  C   UNL     1      45.036   5.483  12.179  0.00  0.00    +0.000 C 
ATOM     25  C   UNL     1      44.987   4.825  10.785  0.00  0.00    +0.000 C 
ATOM     26  C   UNL     1      43.685   4.027  10.724  0.00  0.00    +0.000 C 
ATOM     27  C   UNL     1      43.373   3.702  12.177  0.00  0.00    +0.000 C 
ATOM     28  C   UNL     1      43.779   4.974  12.911  0.00  0.00    +0.000 C 
BRANCH  27  29
ATOM     29  O   UNL     1      44.135   2.595  12.636  0.00  0.00    +0.000 OA
ATOM     30  H   UNL     1      44.138   2.597  13.607  0.00  0.00    +0.000 HD
ENDBRANCH  27  29
ENDBRANCH  23  24
ENDBRANCH  20  23
ENDBRANCH  16  17
ENDBRANCH   3  16
TORSDOF 6
ENDMDL
MODEL 9
REMARK VINA RESULT:    -5.333     10.131     13.284
REMARK INTER + INTRA:          -7.654
REMARK INTER:                  -6.565
REMARK INTRA:                  -1.089
REMARK UNBOUND:                -0.607
REMARK  Name = 
REMARK  6 active torsions:
REMARK  status: ('A' for Active; 'I' for Inactive)
REMARK    1  A    between atoms: C_2  and  C_18
REMARK    2  A    between atoms: N_3  and  C_4
REMARK    3  A    between atoms: C_4  and  C_5
REMARK    4  A    between atoms: C_8  and  C_9
REMARK    5  A    between atoms: C_9  and  C_10
REMARK    6  A    between atoms: C_13  and  O_14
REMARK                            x       y       z     vdW  Elec       q    Type
REMARK                         _______ _______ _______ _____ _____    ______ ____
ROOT
ATOM      1  O   UNL     1      41.236  -1.944  11.665  0.00  0.00    +0.000 OA
ATOM      2  C   UNL     1      40.161  -2.527  11.726  0.00  0.00    +0.000 C 
ATOM      3  N   UNL     1      39.682  -3.093  12.877  0.00  0.00    +0.000 N 
ATOM      4  H   UNL     1      38.880  -3.710  12.831  0.00  0.00    +0.000 HD
ENDROOT
BRANCH   2   5
ATOM      5  C   UNL     1      39.262  -2.622  10.569  0.00  0.00    +0.000 A 
ATOM      6  C   UNL     1      39.356  -3.677   9.675  0.00  0.00    +0.000 A 
ATOM      7  S   UNL     1      38.206  -3.605   8.414  0.00  0.00    +0.000 S 
ATOM      8  C   UNL     1      37.527  -2.175   9.039  0.00  0.00    +0.000 A 
ATOM      9  N   UNL     1      36.456  -1.582   8.445  0.00  0.00    +0.000 NA
ATOM     10  C   UNL     1      36.031  -0.520   9.046  0.00  0.00    +0.000 A 
ATOM     11  N   UNL     1      36.584   0.012  10.178  0.00  0.00    +0.000 N 
ATOM     12  C   UNL     1      37.715  -0.502  10.761  0.00  0.00    +0.000 A 
ATOM     13  O   UNL     1      38.272   0.106  11.666  0.00  0.00    +0.000 OA
ATOM     14  C   UNL     1      38.193  -1.736  10.167  0.00  0.00    +0.000 A 
ATOM     15  H   UNL     1      36.243   0.875  10.576  0.00  0.00    +0.000 HD
ENDBRANCH   2   5
BRANCH   3  16
ATOM     16  C   UNL     1      40.396  -3.137  14.121  0.00  0.00    +0.000 C 
BRANCH  16  17
ATOM     17  C   UNL     1      39.790  -2.231  15.163  0.00  0.00    +0.000 A 
ATOM     18  C   UNL     1      40.455  -2.021  16.377  0.00  0.00    +0.000 A 
ATOM     19  C   UNL     1      39.921  -1.166  17.343  0.00  0.00    +0.000 A 
ATOM     20  C   UNL     1      38.723  -0.480  17.113  0.00  0.00    +0.000 A 
ATOM     21  C   UNL     1      38.040  -0.712  15.908  0.00  0.00    +0.000 A 
ATOM     22  C   UNL     1      38.563  -1.589  14.949  0.00  0.00    +0.000 A 
BRANCH  20  23
ATOM     23  C   UNL     1      38.170   0.476  18.147  0.00  0.00    +0.000 C 
BRANCH  23  24
ATOM     24  C   UNL     1      37.592   1.781  17.557  0.00  0.00    +0.000 C 
ATOM     25  C   UNL     1      36.718   2.570  18.553  0.00  0.00    +0.000 C 
ATOM     26  C   UNL     1      37.290   3.986  18.611  0.00  0.00    +0.000 C 
ATOM     27  C   UNL     1      38.751   3.818  18.222  0.00  0.00    +0.000 C 
ATOM     28  C   UNL     1      38.699   2.763  17.126  0.00  0.00    +0.000 C 
BRANCH  27  29
ATOM     29  O   UNL     1      39.530   3.362  19.319  0.00  0.00    +0.000 OA
ATOM     30  H   UNL     1      39.545   2.391  19.311  0.00  0.00    +0.000 HD
ENDBRANCH  27  29
ENDBRANCH  23  24
ENDBRANCH  20  23
ENDBRANCH  16  17
ENDBRANCH   3  16
TORSDOF 6
ENDMDL
