MODEL 1
REMARK VINA RESULT:    -8.570      0.000      0.000
REMARK INTER + INTRA:         -13.657
REMARK INTER:                 -12.577
REMARK INTRA:                  -1.080
REMARK UNBOUND:                -1.080
REMARK  Name = 
REMARK  10 active torsions:
REMARK  status: ('A' for Active; 'I' for Inactive)
REMARK    1  A    between atoms: C_1  and  O_2
REMARK    2  A    between atoms: O_2  and  C_3
REMARK    3  A    between atoms: C_10  and  C_11
REMARK    4  A    between atoms: N_13  and  C_14
REMARK    5  A    between atoms: C_14  and  C_15
REMARK    6  A    between atoms: C_18  and  C_19
REMARK    7  A    between atoms: C_19  and  N_20
REMARK    8  A    between atoms: N_20  and  C_21
REMARK    9  A    between atoms: C_21  and  C_22
REMARK   10  A    between atoms: C_21  and  C_23
REMARK                            x       y       z     vdW  Elec       q    Type
REMARK                         _______ _______ _______ _____ _____    ______ ____
ROOT
ATOM      1  C   UNL     1      47.393   6.172  14.201  0.00  0.00    +0.000 A 
ATOM      2  C   UNL     1      46.723   6.706  13.099  0.00  0.00    +0.000 A 
ATOM      3  C   UNL     1      45.790   5.931  12.410  0.00  0.00    +0.000 A 
ATOM      4  C   UNL     1      45.558   4.622  12.826  0.00  0.00    +0.000 A 
ATOM      5  N   UNL     1      46.234   4.065  13.863  0.00  0.00    +0.000 NA
ATOM      6  C   UNL     1      47.130   4.844  14.519  0.00  0.00    +0.000 A 
ENDROOT
BRANCH   1   7
ATOM      7  C   UNL     1      48.341   7.001  15.016  0.00  0.00    +0.000 C 
BRANCH   7  10
ATOM      8  C   UNL     1      49.534   5.934  16.868  0.00  0.00    +0.000 C 
ATOM      9  O   UNL     1      48.680   6.325  17.660  0.00  0.00    +0.000 OA
ATOM     10  N   UNL     1      49.443   6.231  15.531  0.00  0.00    +0.000 N 
ATOM     11  H   UNL     1      50.177   5.943  14.896  0.00  0.00    +0.000 HD
BRANCH   8  19
ATOM     12  C   UNL     1      50.178   2.541  16.996  0.00  0.00    +0.000 A 
ATOM     13  N   UNL     1      50.679   1.304  17.200  0.00  0.00    +0.000 NA
ATOM     14  C   UNL     1      51.895   1.190  17.739  0.00  0.00    +0.000 A 
ATOM     15  N   UNL     1      52.694   2.183  18.112  0.00  0.00    +0.000 NA
ATOM     16  C   UNL     1      52.159   3.398  17.908  0.00  0.00    +0.000 A 
ATOM     17  S   UNL     1      53.047   4.778  18.332  0.00  0.00    +0.000 S 
ATOM     18  C   UNL     1      51.797   5.801  17.819  0.00  0.00    +0.000 A 
ATOM     19  C   UNL     1      50.685   5.132  17.317  0.00  0.00    +0.000 A 
ATOM     20  C   UNL     1      50.908   3.687  17.362  0.00  0.00    +0.000 A 
BRANCH  12  22
ATOM     21  C   UNL     1      47.868   2.738  17.334  0.00  0.00    +0.000 C 
ATOM     22  O   UNL     1      48.939   2.648  16.393  0.00  0.00    +0.000 OA
ENDBRANCH  12  22
ENDBRANCH   8  19
ENDBRANCH   7  10
ENDBRANCH   1   7
BRANCH   4  23
ATOM     23  C   UNL     1      44.504   3.773  12.134  0.00  0.00    +0.000 C 
BRANCH  23  24
ATOM     24  N   UNL     1      45.012   2.895  11.063  0.00  0.00    +0.000 NA
ATOM     25  H   UNL     1      44.753   1.942  11.331  0.00  0.00    +0.000 HD
BRANCH  24  26
ATOM     26  C   UNL     1      44.434   3.148   9.734  0.00  0.00    +0.000 C 
ATOM     27  C   UNL     1      44.025   4.611   9.513  0.00  0.00    +0.000 C 
BRANCH  26  28
ATOM     28  C   UNL     1      45.417   2.731   8.644  0.00  0.00    +0.000 A 
ATOM     29  C   UNL     1      45.891   3.644   7.683  0.00  0.00    +0.000 A 
ATOM     30  C   UNL     1      46.757   3.234   6.663  0.00  0.00    +0.000 A 
ATOM     31  C   UNL     1      47.164   1.905   6.589  0.00  0.00    +0.000 A 
ATOM     32  C   UNL     1      46.708   1.000   7.539  0.00  0.00    +0.000 A 
ATOM     33  F   UNL     1      47.094  -0.281   7.468  0.00  0.00    +0.000 F 
ATOM     34  C   UNL     1      45.848   1.397   8.561  0.00  0.00    +0.000 A 
ENDBRANCH  26  28
ENDBRANCH  24  26
ENDBRANCH  23  24
ENDBRANCH   4  23
TORSDOF 8
ENDMDL
MODEL 2
REMARK VINA RESULT:    -8.280      2.889      4.381
REMARK INTER + INTRA:         -13.233
REMARK INTER:                 -12.104
REMARK INTRA:                  -1.129
REMARK UNBOUND:                -1.080
REMARK  Name = 
REMARK  10 active torsions:
REMARK  status: ('A' for Active; 'I' for Inactive)
REMARK    1  A    between atoms: C_1  and  O_2
REMARK    2  A    between atoms: O_2  and  C_3
REMARK    3  A    between atoms: C_10  and  C_11
REMARK    4  A    between atoms: N_13  and  C_14
REMARK    5  A    between atoms: C_14  and  C_15
REMARK    6  A    between atoms: C_18  and  C_19
REMARK    7  A    between atoms: C_19  and  N_20
REMARK    8  A    between atoms: N_20  and  C_21
REMARK    9  A    between atoms: C_21  and  C_22
REMARK   10  A    between atoms: C_21  and  C_23
REMARK                            x       y       z     vdW  Elec       q    Type
REMARK                         _______ _______ _______ _____ _____    ______ ____
ROOT
ATOM      1  C   UNL     1      47.547   5.912  13.693  0.00  0.00    +0.000 A 
ATOM      2  C   UNL     1      47.050   6.308  12.449  0.00  0.00    +0.000 A 
ATOM      3  C   UNL     1      46.071   5.541  11.817  0.00  0.00    +0.000 A 
ATOM      4  C   UNL     1      45.620   4.377  12.433  0.00  0.00    +0.000 A 
ATOM      5  N   UNL     1      46.125   3.946  13.618  0.00  0.00    +0.000 NA
ATOM      6  C   UNL     1      47.071   4.714  14.213  0.00  0.00    +0.000 A 
ENDROOT
BRANCH   1   7
ATOM      7  C   UNL     1      48.539   6.753  14.440  0.00  0.00    +0.000 C 
BRANCH   7  10
ATOM      8  C   UNL     1      48.849   6.306  16.827  0.00  0.00    +0.000 C 
ATOM      9  O   UNL     1      49.783   5.547  16.576  0.00  0.00    +0.000 OA
ATOM     10  N   UNL     1      48.171   6.945  15.819  0.00  0.00    +0.000 N 
ATOM     11  H   UNL     1      47.375   7.530  16.034  0.00  0.00    +0.000 HD
BRANCH   8  19
ATOM     12  C   UNL     1      47.670   9.099  18.485  0.00  0.00    +0.000 A 
ATOM     13  N   UNL     1      47.239  10.012  19.381  0.00  0.00    +0.000 NA
ATOM     14  C   UNL     1      47.048   9.625  20.644  0.00  0.00    +0.000 A 
ATOM     15  N   UNL     1      47.243   8.408  21.139  0.00  0.00    +0.000 NA
ATOM     16  C   UNL     1      47.685   7.530  20.225  0.00  0.00    +0.000 A 
ATOM     17  S   UNL     1      47.988   5.928  20.691  0.00  0.00    +0.000 S 
ATOM     18  C   UNL     1      48.475   5.511  19.122  0.00  0.00    +0.000 A 
ATOM     19  C   UNL     1      48.421   6.562  18.212  0.00  0.00    +0.000 A 
ATOM     20  C   UNL     1      47.937   7.773  18.875  0.00  0.00    +0.000 A 
BRANCH  12  22
ATOM     21  C   UNL     1      48.701  10.612  17.023  0.00  0.00    +0.000 C 
ATOM     22  O   UNL     1      47.817   9.499  17.171  0.00  0.00    +0.000 OA
ENDBRANCH  12  22
ENDBRANCH   8  19
ENDBRANCH   7  10
ENDBRANCH   1   7
BRANCH   4  23
ATOM     23  C   UNL     1      44.511   3.553  11.799  0.00  0.00    +0.000 C 
BRANCH  23  24
ATOM     24  N   UNL     1      44.949   2.620  10.745  0.00  0.00    +0.000 NA
ATOM     25  H   UNL     1      44.608   1.696  11.023  0.00  0.00    +0.000 HD
BRANCH  24  26
ATOM     26  C   UNL     1      44.405   2.903   9.407  0.00  0.00    +0.000 C 
ATOM     27  C   UNL     1      44.016   4.373   9.204  0.00  0.00    +0.000 C 
BRANCH  26  28
ATOM     28  C   UNL     1      45.411   2.496   8.333  0.00  0.00    +0.000 A 
ATOM     29  C   UNL     1      46.078   1.256   8.373  0.00  0.00    +0.000 A 
ATOM     30  C   UNL     1      47.031   0.919   7.406  0.00  0.00    +0.000 A 
ATOM     31  C   UNL     1      47.330   1.813   6.382  0.00  0.00    +0.000 A 
ATOM     32  C   UNL     1      46.669   3.033   6.331  0.00  0.00    +0.000 A 
ATOM     33  F   UNL     1      46.958   3.899   5.350  0.00  0.00    +0.000 F 
ATOM     34  C   UNL     1      45.717   3.380   7.287  0.00  0.00    +0.000 A 
ENDBRANCH  26  28
ENDBRANCH  24  26
ENDBRANCH  23  24
ENDBRANCH   4  23
TORSDOF 8
ENDMDL
MODEL 3
REMARK VINA RESULT:    -8.219      2.195      2.647
REMARK INTER + INTRA:         -13.143
REMARK INTER:                 -12.371
REMARK INTRA:                  -0.772
REMARK UNBOUND:                -1.080
REMARK  Name = 
REMARK  10 active torsions:
REMARK  status: ('A' for Active; 'I' for Inactive)
REMARK    1  A    between atoms: C_1  and  O_2
REMARK    2  A    between atoms: O_2  and  C_3
REMARK    3  A    between atoms: C_10  and  C_11
REMARK    4  A    between atoms: N_13  and  C_14
REMARK    5  A    between atoms: C_14  and  C_15
REMARK    6  A    between atoms: C_18  and  C_19
REMARK    7  A    between atoms: C_19  and  N_20
REMARK    8  A    between atoms: N_20  and  C_21
REMARK    9  A    between atoms: C_21  and  C_22
REMARK   10  A    between atoms: C_21  and  C_23
REMARK                            x       y       z     vdW  Elec       q    Type
REMARK                         _______ _______ _______ _____ _____    ______ ____
ROOT
ATOM      1  C   UNL     1      46.158   7.890  12.893  0.00  0.00    +0.000 A 
ATOM      2  C   UNL     1      45.550   8.476  11.780  0.00  0.00    +0.000 A 
ATOM      3  C   UNL     1      44.539   7.796  11.102  0.00  0.00    +0.000 A 
ATOM      4  C   UNL     1      44.166   6.527  11.539  0.00  0.00    +0.000 A 
ATOM      5  N   UNL     1      44.777   5.916  12.587  0.00  0.00    +0.000 NA
ATOM      6  C   UNL     1      45.752   6.604  13.232  0.00  0.00    +0.000 A 
ENDROOT
BRANCH   1   7
ATOM      7  C   UNL     1      47.190   8.625  13.696  0.00  0.00    +0.000 C 
BRANCH   7  10
ATOM      8  C   UNL     1      48.626   6.959  14.771  0.00  0.00    +0.000 C 
ATOM      9  O   UNL     1      49.187   6.734  13.701  0.00  0.00    +0.000 OA
ATOM     10  N   UNL     1      47.616   7.884  14.855  0.00  0.00    +0.000 N 
ATOM     11  H   UNL     1      47.130   8.027  15.732  0.00  0.00    +0.000 HD
BRANCH   8  19
ATOM     12  C   UNL     1      47.392   4.184  16.418  0.00  0.00    +0.000 A 
ATOM     13  N   UNL     1      47.109   3.183  17.279  0.00  0.00    +0.000 NA
ATOM     14  C   UNL     1      47.869   3.046  18.368  0.00  0.00    +0.000 A 
ATOM     15  N   UNL     1      48.902   3.804  18.716  0.00  0.00    +0.000 NA
ATOM     16  C   UNL     1      49.146   4.797  17.845  0.00  0.00    +0.000 A 
ATOM     17  S   UNL     1      50.432   5.862  18.141  0.00  0.00    +0.000 S 
ATOM     18  C   UNL     1      50.096   6.737  16.729  0.00  0.00    +0.000 A 
ATOM     19  C   UNL     1      49.013   6.251  16.002  0.00  0.00    +0.000 A 
ATOM     20  C   UNL     1      48.449   5.078  16.670  0.00  0.00    +0.000 A 
BRANCH  12  22
ATOM     21  C   UNL     1      47.161   3.530  14.180  0.00  0.00    +0.000 C 
ATOM     22  O   UNL     1      46.630   4.286  15.270  0.00  0.00    +0.000 OA
ENDBRANCH  12  22
ENDBRANCH   8  19
ENDBRANCH   7  10
ENDBRANCH   1   7
BRANCH   4  23
ATOM     23  C   UNL     1      43.026   5.786  10.859  0.00  0.00    +0.000 C 
BRANCH  23  24
ATOM     24  N   UNL     1      43.438   4.819   9.825  0.00  0.00    +0.000 NA
ATOM     25  H   UNL     1      43.922   5.362   9.105  0.00  0.00    +0.000 HD
BRANCH  24  26
ATOM     26  C   UNL     1      44.370   3.780  10.289  0.00  0.00    +0.000 C 
ATOM     27  C   UNL     1      43.672   2.583  10.949  0.00  0.00    +0.000 C 
BRANCH  26  28
ATOM     28  C   UNL     1      45.227   3.284   9.128  0.00  0.00    +0.000 A 
ATOM     29  C   UNL     1      45.695   4.156   8.126  0.00  0.00    +0.000 A 
ATOM     30  C   UNL     1      46.442   3.678   7.044  0.00  0.00    +0.000 A 
ATOM     31  C   UNL     1      46.734   2.320   6.947  0.00  0.00    +0.000 A 
ATOM     32  C   UNL     1      46.284   1.455   7.936  0.00  0.00    +0.000 A 
ATOM     33  F   UNL     1      46.559   0.147   7.843  0.00  0.00    +0.000 F 
ATOM     34  C   UNL     1      45.542   1.920   9.020  0.00  0.00    +0.000 A 
ENDBRANCH  26  28
ENDBRANCH  24  26
ENDBRANCH  23  24
ENDBRANCH   4  23
TORSDOF 8
ENDMDL
MODEL 4
REMARK VINA RESULT:    -8.116      2.989      3.819
REMARK INTER + INTRA:         -12.992
REMARK INTER:                 -12.050
REMARK INTRA:                  -0.942
REMARK UNBOUND:                -1.080
REMARK  Name = 
REMARK  10 active torsions:
REMARK  status: ('A' for Active; 'I' for Inactive)
REMARK    1  A    between atoms: C_1  and  O_2
REMARK    2  A    between atoms: O_2  and  C_3
REMARK    3  A    between atoms: C_10  and  C_11
REMARK    4  A    between atoms: N_13  and  C_14
REMARK    5  A    between atoms: C_14  and  C_15
REMARK    6  A    between atoms: C_18  and  C_19
REMARK    7  A    between atoms: C_19  and  N_20
REMARK    8  A    between atoms: N_20  and  C_21
REMARK    9  A    between atoms: C_21  and  C_22
REMARK   10  A    between atoms: C_21  and  C_23
REMARK                            x       y       z     vdW  Elec       q    Type
REMARK                         _______ _______ _______ _____ _____    ______ ____
ROOT
ATOM      1  C   UNL     1      47.512   6.027  13.631  0.00  0.00    +0.000 A 
ATOM      2  C   UNL     1      46.832   6.445  12.485  0.00  0.00    +0.000 A 
ATOM      3  C   UNL     1      45.792   5.671  11.973  0.00  0.00    +0.000 A 
ATOM      4  C   UNL     1      45.461   4.476  12.609  0.00  0.00    +0.000 A 
ATOM      5  N   UNL     1      46.140   4.025  13.694  0.00  0.00    +0.000 NA
ATOM      6  C   UNL     1      47.143   4.801  14.174  0.00  0.00    +0.000 A 
ENDROOT
BRANCH   1   7
ATOM      7  C   UNL     1      48.581   6.873  14.257  0.00  0.00    +0.000 C 
BRANCH   7  10
ATOM      8  C   UNL     1      48.615   8.543  16.047  0.00  0.00    +0.000 C 
ATOM      9  O   UNL     1      49.273   9.304  15.342  0.00  0.00    +0.000 OA
ATOM     10  N   UNL     1      48.232   7.309  15.585  0.00  0.00    +0.000 N 
ATOM     11  H   UNL     1      47.731   6.672  16.191  0.00  0.00    +0.000 HD
BRANCH   8  19
ATOM     12  C   UNL     1      48.016   6.756  18.943  0.00  0.00    +0.000 A 
ATOM     13  N   UNL     1      47.682   6.328  20.179  0.00  0.00    +0.000 NA
ATOM     14  C   UNL     1      47.313   7.233  21.089  0.00  0.00    +0.000 A 
ATOM     15  N   UNL     1      47.232   8.546  20.913  0.00  0.00    +0.000 NA
ATOM     16  C   UNL     1      47.557   8.935  19.670  0.00  0.00    +0.000 A 
ATOM     17  S   UNL     1      47.503  10.583  19.275  0.00  0.00    +0.000 S 
ATOM     18  C   UNL     1      47.993  10.268  17.683  0.00  0.00    +0.000 A 
ATOM     19  C   UNL     1      48.210   8.921  17.411  0.00  0.00    +0.000 A 
ATOM     20  C   UNL     1      47.956   8.122  18.610  0.00  0.00    +0.000 A 
BRANCH  12  22
ATOM     21  C   UNL     1      47.589   4.672  17.962  0.00  0.00    +0.000 C 
ATOM     22  O   UNL     1      48.442   5.816  18.025  0.00  0.00    +0.000 OA
ENDBRANCH  12  22
ENDBRANCH   8  19
ENDBRANCH   7  10
ENDBRANCH   1   7
BRANCH   4  23
ATOM     23  C   UNL     1      44.292   3.641  12.111  0.00  0.00    +0.000 C 
BRANCH  23  24
ATOM     24  N   UNL     1      44.625   2.663  11.059  0.00  0.00    +0.000 NA
ATOM     25  H   UNL     1      44.117   1.806  11.296  0.00  0.00    +0.000 HD
BRANCH  24  26
ATOM     26  C   UNL     1      44.214   3.055   9.702  0.00  0.00    +0.000 C 
ATOM     27  C   UNL     1      43.875   4.546   9.572  0.00  0.00    +0.000 C 
BRANCH  26  28
ATOM     28  C   UNL     1      45.305   2.698   8.697  0.00  0.00    +0.000 A 
ATOM     29  C   UNL     1      45.892   3.668   7.862  0.00  0.00    +0.000 A 
ATOM     30  C   UNL     1      46.859   3.316   6.914  0.00  0.00    +0.000 A 
ATOM     31  C   UNL     1      47.257   1.988   6.788  0.00  0.00    +0.000 A 
ATOM     32  C   UNL     1      46.690   1.026   7.614  0.00  0.00    +0.000 A 
ATOM     33  F   UNL     1      47.067  -0.254   7.492  0.00  0.00    +0.000 F 
ATOM     34  C   UNL     1      45.727   1.366   8.563  0.00  0.00    +0.000 A 
ENDBRANCH  26  28
ENDBRANCH  24  26
ENDBRANCH  23  24
ENDBRANCH   4  23
TORSDOF 8
ENDMDL
MODEL 5
REMARK VINA RESULT:    -8.107      2.309      2.698
REMARK INTER + INTRA:         -12.978
REMARK INTER:                 -11.915
REMARK INTRA:                  -1.063
REMARK UNBOUND:                -1.080
REMARK  Name = 
REMARK  10 active torsions:
REMARK  status: ('A' for Active; 'I' for Inactive)
REMARK    1  A    between atoms: C_1  and  O_2
REMARK    2  A    between atoms: O_2  and  C_3
REMARK    3  A    between atoms: C_10  and  C_11
REMARK    4  A    between atoms: N_13  and  C_14
REMARK    5  A    between atoms: C_14  and  C_15
REMARK    6  A    between atoms: C_18  and  C_19
REMARK    7  A    between atoms: C_19  and  N_20
REMARK    8  A    between atoms: N_20  and  C_21
REMARK    9  A    between atoms: C_21  and  C_22
REMARK   10  A    between atoms: C_21  and  C_23
REMARK                            x       y       z     vdW  Elec       q    Type
REMARK                         _______ _______ _______ _____ _____    ______ ____
ROOT
ATOM      1  C   UNL     1      47.084   6.468  13.542  0.00  0.00    +0.000 A 
ATOM      2  C   UNL     1      47.201   5.101  13.803  0.00  0.00    +0.000 A 
ATOM      3  C   UNL     1      46.258   4.212  13.287  0.00  0.00    +0.000 A 
ATOM      4  C   UNL     1      45.199   4.712  12.532  0.00  0.00    +0.000 A 
ATOM      5  N   UNL     1      45.037   6.041  12.307  0.00  0.00    +0.000 NA
ATOM      6  C   UNL     1      45.973   6.881  12.816  0.00  0.00    +0.000 A 
ENDROOT
BRANCH   1   7
ATOM      7  C   UNL     1      48.123   7.444  14.010  0.00  0.00    +0.000 C 
BRANCH   7  10
ATOM      8  C   UNL     1      49.225   6.988  16.148  0.00  0.00    +0.000 C 
ATOM      9  O   UNL     1      50.131   6.393  15.568  0.00  0.00    +0.000 OA
ATOM     10  N   UNL     1      48.182   7.539  15.446  0.00  0.00    +0.000 N 
ATOM     11  H   UNL     1      47.419   7.986  15.938  0.00  0.00    +0.000 HD
BRANCH   8  19
ATOM     12  C   UNL     1      48.760   4.787  18.770  0.00  0.00    +0.000 A 
ATOM     13  N   UNL     1      48.579   4.183  19.964  0.00  0.00    +0.000 NA
ATOM     14  C   UNL     1      48.661   4.924  21.072  0.00  0.00    +0.000 A 
ATOM     15  N   UNL     1      48.905   6.227  21.139  0.00  0.00    +0.000 NA
ATOM     16  C   UNL     1      49.066   6.798  19.934  0.00  0.00    +0.000 A 
ATOM     17  S   UNL     1      49.383   8.461  19.839  0.00  0.00    +0.000 S 
ATOM     18  C   UNL     1      49.439   8.404  18.146  0.00  0.00    +0.000 A 
ATOM     19  C   UNL     1      49.222   7.137  17.612  0.00  0.00    +0.000 A 
ATOM     20  C   UNL     1      49.007   6.171  18.689  0.00  0.00    +0.000 A 
BRANCH  12  22
ATOM     21  C   UNL     1      47.401   3.570  17.301  0.00  0.00    +0.000 C 
ATOM     22  O   UNL     1      48.721   4.003  17.634  0.00  0.00    +0.000 OA
ENDBRANCH  12  22
ENDBRANCH   8  19
ENDBRANCH   7  10
ENDBRANCH   1   7
BRANCH   4  23
ATOM     23  C   UNL     1      44.190   3.763  11.905  0.00  0.00    +0.000 C 
BRANCH  23  24
ATOM     24  N   UNL     1      44.747   2.825  10.913  0.00  0.00    +0.000 NA
ATOM     25  H   UNL     1      44.373   1.903  11.153  0.00  0.00    +0.000 HD
BRANCH  24  26
ATOM     26  C   UNL     1      44.364   3.103   9.519  0.00  0.00    +0.000 C 
ATOM     27  C   UNL     1      44.087   4.588   9.246  0.00  0.00    +0.000 C 
BRANCH  26  28
ATOM     28  C   UNL     1      45.449   2.610   8.566  0.00  0.00    +0.000 A 
ATOM     29  C   UNL     1      46.129   3.486   7.699  0.00  0.00    +0.000 A 
ATOM     30  C   UNL     1      47.089   3.010   6.799  0.00  0.00    +0.000 A 
ATOM     31  C   UNL     1      47.386   1.651   6.754  0.00  0.00    +0.000 A 
ATOM     32  C   UNL     1      46.725   0.781   7.612  0.00  0.00    +0.000 A 
ATOM     33  F   UNL     1      47.005  -0.528   7.567  0.00  0.00    +0.000 F 
ATOM     34  C   UNL     1      45.769   1.244   8.515  0.00  0.00    +0.000 A 
ENDBRANCH  26  28
ENDBRANCH  24  26
ENDBRANCH  23  24
ENDBRANCH   4  23
TORSDOF 8
ENDMDL
MODEL 6
REMARK VINA RESULT:    -7.730      1.441      1.832
REMARK INTER + INTRA:         -12.426
REMARK INTER:                 -11.138
REMARK INTRA:                  -1.288
REMARK UNBOUND:                -1.080
REMARK  Name = 
REMARK  10 active torsions:
REMARK  status: ('A' for Active; 'I' for Inactive)
REMARK    1  A    between atoms: C_1  and  O_2
REMARK    2  A    between atoms: O_2  and  C_3
REMARK    3  A    between atoms: C_10  and  C_11
REMARK    4  A    between atoms: N_13  and  C_14
REMARK    5  A    between atoms: C_14  and  C_15
REMARK    6  A    between atoms: C_18  and  C_19
REMARK    7  A    between atoms: C_19  and  N_20
REMARK    8  A    between atoms: N_20  and  C_21
REMARK    9  A    between atoms: C_21  and  C_22
REMARK   10  A    between atoms: C_21  and  C_23
REMARK                            x       y       z     vdW  Elec       q    Type
REMARK                         _______ _______ _______ _____ _____    ______ ____
ROOT
ATOM      1  C   UNL     1      47.566   6.627  13.641  0.00  0.00    +0.000 A 
ATOM      2  C   UNL     1      47.588   5.314  14.115  0.00  0.00    +0.000 A 
ATOM      3  C   UNL     1      46.596   4.416  13.721  0.00  0.00    +0.000 A 
ATOM      4  C   UNL     1      45.583   4.857  12.872  0.00  0.00    +0.000 A 
ATOM      5  N   UNL     1      45.512   6.142  12.439  0.00  0.00    +0.000 NA
ATOM      6  C   UNL     1      46.494   6.991  12.833  0.00  0.00    +0.000 A 
ENDROOT
BRANCH   1   7
ATOM      7  C   UNL     1      48.660   7.597  13.977  0.00  0.00    +0.000 C 
BRANCH   7  10
ATOM      8  C   UNL     1      50.520   7.623  15.567  0.00  0.00    +0.000 C 
ATOM      9  O   UNL     1      50.247   8.778  15.887  0.00  0.00    +0.000 OA
ATOM     10  N   UNL     1      49.782   6.962  14.618  0.00  0.00    +0.000 N 
ATOM     11  H   UNL     1      50.045   6.029  14.329  0.00  0.00    +0.000 HD
BRANCH   8  19
ATOM     12  C   UNL     1      50.791   4.635  17.281  0.00  0.00    +0.000 A 
ATOM     13  N   UNL     1      51.183   3.564  18.003  0.00  0.00    +0.000 NA
ATOM     14  C   UNL     1      52.470   3.463  18.345  0.00  0.00    +0.000 A 
ATOM     15  N   UNL     1      53.439   4.322  18.052  0.00  0.00    +0.000 NA
ATOM     16  C   UNL     1      53.011   5.381  17.347  0.00  0.00    +0.000 A 
ATOM     17  S   UNL     1      54.122   6.578  16.890  0.00  0.00    +0.000 S 
ATOM     18  C   UNL     1      52.911   7.479  16.120  0.00  0.00    +0.000 A 
ATOM     19  C   UNL     1      51.646   6.903  16.186  0.00  0.00    +0.000 A 
ATOM     20  C   UNL     1      51.709   5.637  16.916  0.00  0.00    +0.000 A 
BRANCH  12  22
ATOM     21  C   UNL     1      48.631   5.327  17.869  0.00  0.00    +0.000 C 
ATOM     22  O   UNL     1      49.468   4.705  16.891  0.00  0.00    +0.000 OA
ENDBRANCH  12  22
ENDBRANCH   8  19
ENDBRANCH   7  10
ENDBRANCH   1   7
BRANCH   4  23
ATOM     23  C   UNL     1      44.522   3.887  12.376  0.00  0.00    +0.000 C 
BRANCH  23  24
ATOM     24  N   UNL     1      44.975   2.942  11.338  0.00  0.00    +0.000 NA
ATOM     25  H   UNL     1      44.742   2.007  11.684  0.00  0.00    +0.000 HD
BRANCH  24  26
ATOM     26  C   UNL     1      44.318   3.102  10.031  0.00  0.00    +0.000 C 
ATOM     27  C   UNL     1      43.742   4.506   9.804  0.00  0.00    +0.000 C 
BRANCH  26  28
ATOM     28  C   UNL     1      45.295   2.771   8.907  0.00  0.00    +0.000 A 
ATOM     29  C   UNL     1      45.777   3.759   8.027  0.00  0.00    +0.000 A 
ATOM     30  C   UNL     1      46.636   3.431   6.973  0.00  0.00    +0.000 A 
ATOM     31  C   UNL     1      47.030   2.109   6.783  0.00  0.00    +0.000 A 
ATOM     32  C   UNL     1      46.567   1.129   7.652  0.00  0.00    +0.000 A 
ATOM     33  F   UNL     1      46.939  -0.144   7.469  0.00  0.00    +0.000 F 
ATOM     34  C   UNL     1      45.712   1.445   8.707  0.00  0.00    +0.000 A 
ENDBRANCH  26  28
ENDBRANCH  24  26
ENDBRANCH  23  24
ENDBRANCH   4  23
TORSDOF 8
ENDMDL
MODEL 7
REMARK VINA RESULT:    -6.923      4.151      8.745
REMARK INTER + INTRA:         -11.241
REMARK INTER:                  -9.109
REMARK INTRA:                  -2.132
REMARK UNBOUND:                -1.080
REMARK  Name = 
REMARK  10 active torsions:
REMARK  status: ('A' for Active; 'I' for Inactive)
REMARK    1  A    between atoms: C_1  and  O_2
REMARK    2  A    between atoms: O_2  and  C_3
REMARK    3  A    between atoms: C_10  and  C_11
REMARK    4  A    between atoms: N_13  and  C_14
REMARK    5  A    between atoms: C_14  and  C_15
REMARK    6  A    between atoms: C_18  and  C_19
REMARK    7  A    between atoms: C_19  and  N_20
REMARK    8  A    between atoms: N_20  and  C_21
REMARK    9  A    between atoms: C_21  and  C_22
REMARK   10  A    between atoms: C_21  and  C_23
REMARK                            x       y       z     vdW  Elec       q    Type
REMARK                         _______ _______ _______ _____ _____    ______ ____
ROOT
ATOM      1  C   UNL     1      49.024   8.088  15.797  0.00  0.00    +0.000 A 
ATOM      2  C   UNL     1      50.117   7.246  16.022  0.00  0.00    +0.000 A 
ATOM      3  C   UNL     1      50.495   6.932  17.327  0.00  0.00    +0.000 A 
ATOM      4  C   UNL     1      49.782   7.484  18.390  0.00  0.00    +0.000 A 
ATOM      5  N   UNL     1      48.749   8.343  18.196  0.00  0.00    +0.000 NA
ATOM      6  C   UNL     1      48.400   8.626  16.917  0.00  0.00    +0.000 A 
ENDROOT
BRANCH   1   7
ATOM      7  C   UNL     1      48.538   8.382  14.409  0.00  0.00    +0.000 C 
BRANCH   7  10
ATOM      8  C   UNL     1      47.750   6.386  13.232  0.00  0.00    +0.000 C 
ATOM      9  O   UNL     1      48.897   6.128  12.875  0.00  0.00    +0.000 OA
ATOM     10  N   UNL     1      47.482   7.495  13.995  0.00  0.00    +0.000 N 
ATOM     11  H   UNL     1      46.528   7.722  14.243  0.00  0.00    +0.000 HD
BRANCH   8  19
ATOM     12  C   UNL     1      44.661   6.977  11.800  0.00  0.00    +0.000 A 
ATOM     13  N   UNL     1      43.406   6.912  11.308  0.00  0.00    +0.000 NA
ATOM     14  C   UNL     1      42.806   5.720  11.246  0.00  0.00    +0.000 A 
ATOM     15  N   UNL     1      43.315   4.555  11.627  0.00  0.00    +0.000 NA
ATOM     16  C   UNL     1      44.558   4.658  12.124  0.00  0.00    +0.000 A 
ATOM     17  S   UNL     1      45.356   3.262  12.661  0.00  0.00    +0.000 S 
ATOM     18  C   UNL     1      46.727   4.155  13.103  0.00  0.00    +0.000 A 
ATOM     19  C   UNL     1      46.619   5.521  12.858  0.00  0.00    +0.000 A 
ATOM     20  C   UNL     1      45.318   5.820  12.261  0.00  0.00    +0.000 A 
BRANCH  12  22
ATOM     21  C   UNL     1      44.452   9.265  11.345  0.00  0.00    +0.000 C 
ATOM     22  O   UNL     1      45.289   8.207  11.814  0.00  0.00    +0.000 OA
ENDBRANCH  12  22
ENDBRANCH   8  19
ENDBRANCH   7  10
ENDBRANCH   1   7
BRANCH   4  23
ATOM     23  C   UNL     1      50.131   7.112  19.822  0.00  0.00    +0.000 C 
BRANCH  23  24
ATOM     24  N   UNL     1      50.292   5.668  20.072  0.00  0.00    +0.000 NA
ATOM     25  H   UNL     1      50.779   5.587  20.969  0.00  0.00    +0.000 HD
BRANCH  24  26
ATOM     26  C   UNL     1      49.031   4.919  20.190  0.00  0.00    +0.000 C 
ATOM     27  C   UNL     1      47.872   5.758  20.745  0.00  0.00    +0.000 C 
BRANCH  26  28
ATOM     28  C   UNL     1      48.631   4.345  18.833  0.00  0.00    +0.000 A 
ATOM     29  C   UNL     1      47.470   4.772  18.160  0.00  0.00    +0.000 A 
ATOM     30  C   UNL     1      47.094   4.202  16.939  0.00  0.00    +0.000 A 
ATOM     31  C   UNL     1      47.872   3.197  16.371  0.00  0.00    +0.000 A 
ATOM     32  C   UNL     1      49.024   2.777  17.025  0.00  0.00    +0.000 A 
ATOM     33  F   UNL     1      49.772   1.808  16.483  0.00  0.00    +0.000 F 
ATOM     34  C   UNL     1      49.410   3.339  18.240  0.00  0.00    +0.000 A 
ENDBRANCH  26  28
ENDBRANCH  24  26
ENDBRANCH  23  24
ENDBRANCH   4  23
TORSDOF 8
ENDMDL
MODEL 8
REMARK VINA RESULT:    -6.923      2.094      3.307
REMARK INTER + INTRA:         -11.240
REMARK INTER:                 -10.037
REMARK INTRA:                  -1.203
REMARK UNBOUND:                -1.080
REMARK  Name = 
REMARK  10 active torsions:
REMARK  status: ('A' for Active; 'I' for Inactive)
REMARK    1  A    between atoms: C_1  and  O_2
REMARK    2  A    between atoms: O_2  and  C_3
REMARK    3  A    between atoms: C_10  and  C_11
REMARK    4  A    between atoms: N_13  and  C_14
REMARK    5  A    between atoms: C_14  and  C_15
REMARK    6  A    between atoms: C_18  and  C_19
REMARK    7  A    between atoms: C_19  and  N_20
REMARK    8  A    between atoms: N_20  and  C_21
REMARK    9  A    between atoms: C_21  and  C_22
REMARK   10  A    between atoms: C_21  and  C_23
REMARK                            x       y       z     vdW  Elec       q    Type
REMARK                         _______ _______ _______ _____ _____    ______ ____
ROOT
ATOM      1  C   UNL     1      48.580   5.406  17.571  0.00  0.00    +0.000 A 
ATOM      2  C   UNL     1      47.602   4.410  17.540  0.00  0.00    +0.000 A 
ATOM      3  C   UNL     1      46.993   4.071  16.332  0.00  0.00    +0.000 A 
ATOM      4  C   UNL     1      47.362   4.752  15.174  0.00  0.00    +0.000 A 
ATOM      5  N   UNL     1      48.274   5.758  15.188  0.00  0.00    +0.000 NA
ATOM      6  C   UNL     1      48.854   6.061  16.376  0.00  0.00    +0.000 A 
ENDROOT
BRANCH   1   7
ATOM      7  C   UNL     1      49.315   5.740  18.836  0.00  0.00    +0.000 C 
BRANCH   7  10
ATOM      8  C   UNL     1      51.644   5.319  19.459  0.00  0.00    +0.000 C 
ATOM      9  O   UNL     1      51.844   6.526  19.574  0.00  0.00    +0.000 OA
ATOM     10  N   UNL     1      50.411   4.842  19.090  0.00  0.00    +0.000 N 
ATOM     11  H   UNL     1      50.271   3.849  18.953  0.00  0.00    +0.000 HD
BRANCH   8  19
ATOM     12  C   UNL     1      52.521   2.312  18.001  0.00  0.00    +0.000 A 
ATOM     13  N   UNL     1      53.059   1.120  17.667  0.00  0.00    +0.000 NA
ATOM     14  C   UNL     1      54.110   0.677  18.362  0.00  0.00    +0.000 A 
ATOM     15  N   UNL     1      54.705   1.292  19.378  0.00  0.00    +0.000 NA
ATOM     16  C   UNL     1      54.136   2.467  19.692  0.00  0.00    +0.000 A 
ATOM     17  S   UNL     1      54.772   3.382  20.970  0.00  0.00    +0.000 S 
ATOM     18  C   UNL     1      53.605   4.591  20.750  0.00  0.00    +0.000 A 
ATOM     19  C   UNL     1      52.712   4.338  19.713  0.00  0.00    +0.000 A 
ATOM     20  C   UNL     1      53.039   3.064  19.072  0.00  0.00    +0.000 A 
BRANCH  12  22
ATOM     21  C   UNL     1      50.505   1.769  16.939  0.00  0.00    +0.000 C 
ATOM     22  O   UNL     1      51.466   2.782  17.244  0.00  0.00    +0.000 OA
ENDBRANCH  12  22
ENDBRANCH   8  19
ENDBRANCH   7  10
ENDBRANCH   1   7
BRANCH   4  23
ATOM     23  C   UNL     1      46.762   4.364  13.832  0.00  0.00    +0.000 C 
BRANCH  23  24
ATOM     24  N   UNL     1      45.625   5.193  13.392  0.00  0.00    +0.000 NA
ATOM     25  H   UNL     1      45.990   5.815  12.666  0.00  0.00    +0.000 HD
BRANCH  24  26
ATOM     26  C   UNL     1      44.506   4.441  12.802  0.00  0.00    +0.000 C 
ATOM     27  C   UNL     1      43.153   5.151  12.938  0.00  0.00    +0.000 C 
BRANCH  26  28
ATOM     28  C   UNL     1      44.781   4.159  11.327  0.00  0.00    +0.000 A 
ATOM     29  C   UNL     1      45.271   5.155  10.461  0.00  0.00    +0.000 A 
ATOM     30  C   UNL     1      45.474   4.892   9.102  0.00  0.00    +0.000 A 
ATOM     31  C   UNL     1      45.192   3.630   8.588  0.00  0.00    +0.000 A 
ATOM     32  C   UNL     1      44.717   2.640   9.438  0.00  0.00    +0.000 A 
ATOM     33  F   UNL     1      44.439   1.425   8.946  0.00  0.00    +0.000 F 
ATOM     34  C   UNL     1      44.513   2.889  10.794  0.00  0.00    +0.000 A 
ENDBRANCH  26  28
ENDBRANCH  24  26
ENDBRANCH  23  24
ENDBRANCH   4  23
TORSDOF 8
ENDMDL
MODEL 9
REMARK VINA RESULT:    -6.709      6.069      7.612
REMARK INTER + INTRA:         -10.927
REMARK INTER:                  -9.509
REMARK INTRA:                  -1.418
REMARK UNBOUND:                -1.080
REMARK  Name = 
REMARK  10 active torsions:
REMARK  status: ('A' for Active; 'I' for Inactive)
REMARK    1  A    between atoms: C_1  and  O_2
REMARK    2  A    between atoms: O_2  and  C_3
REMARK    3  A    between atoms: C_10  and  C_11
REMARK    4  A    between atoms: N_13  and  C_14
REMARK    5  A    between atoms: C_14  and  C_15
REMARK    6  A    between atoms: C_18  and  C_19
REMARK    7  A    between atoms: C_19  and  N_20
REMARK    8  A    between atoms: N_20  and  C_21
REMARK    9  A    between atoms: C_21  and  C_22
REMARK   10  A    between atoms: C_21  and  C_23
REMARK                            x       y       z     vdW  Elec       q    Type
REMARK                         _______ _______ _______ _____ _____    ______ ____
ROOT
ATOM      1  C   UNL     1      49.374   8.573  11.897  0.00  0.00    +0.000 A 
ATOM      2  C   UNL     1      48.999   7.228  11.955  0.00  0.00    +0.000 A 
ATOM      3  C   UNL     1      47.652   6.887  12.075  0.00  0.00    +0.000 A 
ATOM      4  C   UNL     1      46.702   7.902  12.156  0.00  0.00    +0.000 A 
ATOM      5  N   UNL     1      47.046   9.215  12.153  0.00  0.00    +0.000 NA
ATOM      6  C   UNL     1      48.362   9.518  12.028  0.00  0.00    +0.000 A 
ENDROOT
BRANCH   1   7
ATOM      7  C   UNL     1      50.803   8.977  11.685  0.00  0.00    +0.000 C 
BRANCH   7  10
ATOM      8  C   UNL     1      52.633   7.754  10.613  0.00  0.00    +0.000 C 
ATOM      9  O   UNL     1      53.276   7.773  11.661  0.00  0.00    +0.000 OA
ATOM     10  N   UNL     1      51.392   8.336  10.538  0.00  0.00    +0.000 N 
ATOM     11  H   UNL     1      50.893   8.355   9.658  0.00  0.00    +0.000 HD
BRANCH   8  19
ATOM     12  C   UNL     1      53.021   8.779   7.336  0.00  0.00    +0.000 A 
ATOM     13  N   UNL     1      53.248   8.885   6.010  0.00  0.00    +0.000 NA
ATOM     14  C   UNL     1      53.763   7.835   5.365  0.00  0.00    +0.000 A 
ATOM     15  N   UNL     1      54.086   6.661   5.892  0.00  0.00    +0.000 NA
ATOM     16  C   UNL     1      53.834   6.585   7.209  0.00  0.00    +0.000 A 
ATOM     17  S   UNL     1      54.186   5.149   8.040  0.00  0.00    +0.000 S 
ATOM     18  C   UNL     1      53.627   5.800   9.502  0.00  0.00    +0.000 A 
ATOM     19  C   UNL     1      53.164   7.109   9.401  0.00  0.00    +0.000 A 
ATOM     20  C   UNL     1      53.298   7.582   8.024  0.00  0.00    +0.000 A 
BRANCH  12  22
ATOM     21  C   UNL     1      53.570  10.742   8.490  0.00  0.00    +0.000 C 
ATOM     22  O   UNL     1      52.534   9.887   8.002  0.00  0.00    +0.000 OA
ENDBRANCH  12  22
ENDBRANCH   8  19
ENDBRANCH   7  10
ENDBRANCH   1   7
BRANCH   4  23
ATOM     23  C   UNL     1      45.221   7.562  12.227  0.00  0.00    +0.000 C 
BRANCH  23  24
ATOM     24  N   UNL     1      44.685   6.859  11.047  0.00  0.00    +0.000 NA
ATOM     25  H   UNL     1      45.441   6.843  10.357  0.00  0.00    +0.000 HD
BRANCH  24  26
ATOM     26  C   UNL     1      44.284   5.465  11.291  0.00  0.00    +0.000 C 
ATOM     27  C   UNL     1      42.767   5.280  11.427  0.00  0.00    +0.000 C 
BRANCH  26  28
ATOM     28  C   UNL     1      44.802   4.564  10.172  0.00  0.00    +0.000 A 
ATOM     29  C   UNL     1      45.608   5.064   9.132  0.00  0.00    +0.000 A 
ATOM     30  C   UNL     1      46.036   4.235   8.090  0.00  0.00    +0.000 A 
ATOM     31  C   UNL     1      45.668   2.892   8.072  0.00  0.00    +0.000 A 
ATOM     32  C   UNL     1      44.880   2.390   9.101  0.00  0.00    +0.000 A 
ATOM     33  F   UNL     1      44.519   1.100   9.085  0.00  0.00    +0.000 F 
ATOM     34  C   UNL     1      44.449   3.206  10.145  0.00  0.00    +0.000 A 
ENDBRANCH  26  28
ENDBRANCH  24  26
ENDBRANCH  23  24
ENDBRANCH   4  23
TORSDOF 8
ENDMDL
