MODEL 1
REMARK VINA RESULT:    -8.045      0.000      0.000
REMARK INTER + INTRA:         -13.156
REMARK INTER:                 -12.043
REMARK INTRA:                  -1.113
REMARK UNBOUND:                -1.113
REMARK  Name = 
REMARK  9 active torsions:
REMARK  status: ('A' for Active; 'I' for Inactive)
REMARK    1  A    between atoms: C_2  and  C_22
REMARK    2  A    between atoms: N_3  and  C_4
REMARK    3  A    between atoms: C_4  and  C_5
REMARK    4  A    between atoms: C_8  and  C_9
REMARK    5  A    between atoms: C_9  and  N_10
REMARK    6  A    between atoms: N_10  and  CA_11
REMARK    7  A    between atoms: CA_11  and  C_12
REMARK    8  A    between atoms: CA_11  and  C_14
REMARK    9  A    between atoms: C_12  and  O_13
REMARK                            x       y       z     vdW  Elec       q    Type
REMARK                         _______ _______ _______ _____ _____    ______ ____
ROOT
ATOM      1  C   UNL     1      46.362   7.497  12.975  0.00  0.00    +0.000 A 
ATOM      2  C   UNL     1      45.656   8.242  12.030  0.00  0.00    +0.000 A 
ATOM      3  C   UNL     1      44.572   7.673  11.369  0.00  0.00    +0.000 A 
ATOM      4  C   UNL     1      44.205   6.368  11.685  0.00  0.00    +0.000 A 
ATOM      5  N   UNL     1      44.841   5.638  12.636  0.00  0.00    +0.000 NA
ATOM      6  C   UNL     1      45.894   6.220  13.260  0.00  0.00    +0.000 A 
ENDROOT
BRANCH   1   7
ATOM      7  C   UNL     1      47.566   8.067  13.663  0.00  0.00    +0.000 C 
BRANCH   7  10
ATOM      8  O   UNL     1      50.120   7.130  14.428  0.00  0.00    +0.000 OA
ATOM      9  C   UNL     1      49.168   6.958  15.184  0.00  0.00    +0.000 C 
ATOM     10  N   UNL     1      47.892   7.341  14.860  0.00  0.00    +0.000 N 
ATOM     11  H   UNL     1      47.178   7.326  15.579  0.00  0.00    +0.000 HD
BRANCH   9  12
ATOM     12  C   UNL     1      49.320   6.278  16.477  0.00  0.00    +0.000 A 
ATOM     13  C   UNL     1      50.120   6.833  17.466  0.00  0.00    +0.000 A 
ATOM     14  S   UNL     1      50.204   5.887  18.884  0.00  0.00    +0.000 S 
ATOM     15  C   UNL     1      49.134   4.729  18.244  0.00  0.00    +0.000 A 
ATOM     16  N   UNL     1      48.755   3.645  18.973  0.00  0.00    +0.000 NA
ATOM     17  C   UNL     1      47.897   2.880  18.385  0.00  0.00    +0.000 A 
ATOM     18  N   UNL     1      47.397   3.088  17.126  0.00  0.00    +0.000 N 
ATOM     19  C   UNL     1      47.820   4.117  16.321  0.00  0.00    +0.000 A 
ATOM     20  O   UNL     1      47.471   4.189  15.146  0.00  0.00    +0.000 OA
ATOM     21  C   UNL     1      48.740   5.043  16.956  0.00  0.00    +0.000 A 
ATOM     22  H   UNL     1      46.748   2.436  16.710  0.00  0.00    +0.000 HD
ENDBRANCH   9  12
ENDBRANCH   7  10
ENDBRANCH   1   7
BRANCH   4  23
ATOM     23  C   UNL     1      43.045   5.710  10.965  0.00  0.00    +0.000 C 
BRANCH  23  24
ATOM     24  N   UNL     1      43.438   4.811   9.866  0.00  0.00    +0.000 NA
ATOM     25  H   UNL     1      43.876   5.426   9.170  0.00  0.00    +0.000 HD
BRANCH  24  26
ATOM     26  CA  UNL     1      44.477   3.809  10.240  0.00  0.00    +0.000 C 
BRANCH  26  27
ATOM     27  C   UNL     1      45.312   3.402   9.028  0.00  0.00    +0.000 A 
ATOM     28  C   UNL     1      45.678   2.080   8.790  0.00  0.00    +0.000 A 
ATOM     29  C   UNL     1      46.427   1.779   7.660  0.00  0.00    +0.000 A 
ATOM     30  C   UNL     1      46.785   2.819   6.832  0.00  0.00    +0.000 A 
ATOM     31  N   UNL     1      46.433   4.097   7.075  0.00  0.00    +0.000 NA
ATOM     32  N   UNL     1      45.689   4.391   8.183  0.00  0.00    +0.000 NA
ENDBRANCH  26  27
BRANCH  26  33
ATOM     33  C   UNL     1      43.889   2.540  10.905  0.00  0.00    +0.000 C 
BRANCH  33  34
ATOM     34  O   UNL     1      44.024   2.563  12.328  0.00  0.00    +0.000 OA
ATOM     35  H   UNL     1      44.522   1.758  12.564  0.00  0.00    +0.000 HD
ENDBRANCH  33  34
ENDBRANCH  26  33
ENDBRANCH  24  26
ENDBRANCH  23  24
ENDBRANCH   4  23
TORSDOF 9
ENDMDL
MODEL 2
REMARK VINA RESULT:    -7.951      2.711      3.398
REMARK INTER + INTRA:         -13.016
REMARK INTER:                 -12.215
REMARK INTRA:                  -0.801
REMARK UNBOUND:                -1.113
REMARK  Name = 
REMARK  9 active torsions:
REMARK  status: ('A' for Active; 'I' for Inactive)
REMARK    1  A    between atoms: C_2  and  C_22
REMARK    2  A    between atoms: N_3  and  C_4
REMARK    3  A    between atoms: C_4  and  C_5
REMARK    4  A    between atoms: C_8  and  C_9
REMARK    5  A    between atoms: C_9  and  N_10
REMARK    6  A    between atoms: N_10  and  CA_11
REMARK    7  A    between atoms: CA_11  and  C_12
REMARK    8  A    between atoms: CA_11  and  C_14
REMARK    9  A    between atoms: C_12  and  O_13
REMARK                            x       y       z     vdW  Elec       q    Type
REMARK                         _______ _______ _______ _____ _____    ______ ____
ROOT
ATOM      1  C   UNL     1      48.068   5.821  15.215  0.00  0.00    +0.000 A 
ATOM      2  C   UNL     1      47.790   6.255  13.920  0.00  0.00    +0.000 A 
ATOM      3  C   UNL     1      47.008   5.469  13.079  0.00  0.00    +0.000 A 
ATOM      4  C   UNL     1      46.504   4.266  13.564  0.00  0.00    +0.000 A 
ATOM      5  N   UNL     1      46.717   3.843  14.836  0.00  0.00    +0.000 NA
ATOM      6  C   UNL     1      47.484   4.630  15.629  0.00  0.00    +0.000 A 
ENDROOT
BRANCH   1   7
ATOM      7  C   UNL     1      48.952   6.623  16.124  0.00  0.00    +0.000 C 
BRANCH   7  10
ATOM      8  O   UNL     1      49.339   5.872  18.821  0.00  0.00    +0.000 OA
ATOM      9  C   UNL     1      50.128   5.473  17.969  0.00  0.00    +0.000 C 
ATOM     10  N   UNL     1      50.033   5.835  16.650  0.00  0.00    +0.000 N 
ATOM     11  H   UNL     1      50.604   5.351  15.967  0.00  0.00    +0.000 HD
BRANCH   9  12
ATOM     12  C   UNL     1      51.269   4.615  18.314  0.00  0.00    +0.000 A 
ATOM     13  C   UNL     1      52.309   5.117  19.086  0.00  0.00    +0.000 A 
ATOM     14  S   UNL     1      53.561   3.989  19.356  0.00  0.00    +0.000 S 
ATOM     15  C   UNL     1      52.734   2.777  18.495  0.00  0.00    +0.000 A 
ATOM     16  N   UNL     1      53.254   1.527  18.366  0.00  0.00    +0.000 NA
ATOM     17  C   UNL     1      52.495   0.694  17.736  0.00  0.00    +0.000 A 
ATOM     18  N   UNL     1      51.269   1.001  17.207  0.00  0.00    +0.000 N 
ATOM     19  C   UNL     1      50.745   2.270  17.234  0.00  0.00    +0.000 A 
ATOM     20  O   UNL     1      49.720   2.547  16.618  0.00  0.00    +0.000 OA
ATOM     21  C   UNL     1      51.532   3.232  17.983  0.00  0.00    +0.000 A 
ATOM     22  H   UNL     1      50.734   0.310  16.700  0.00  0.00    +0.000 HD
ENDBRANCH   9  12
ENDBRANCH   7  10
ENDBRANCH   1   7
BRANCH   4  23
ATOM     23  C   UNL     1      45.670   3.374  12.666  0.00  0.00    +0.000 C 
BRANCH  23  24
ATOM     24  N   UNL     1      44.221   3.429  12.927  0.00  0.00    +0.000 NA
ATOM     25  H   UNL     1      44.112   4.155  13.644  0.00  0.00    +0.000 HD
BRANCH  24  26
ATOM     26  CA  UNL     1      43.409   3.880  11.760  0.00  0.00    +0.000 C 
BRANCH  26  27
ATOM     27  C   UNL     1      44.206   3.779  10.462  0.00  0.00    +0.000 A 
ATOM     28  C   UNL     1      44.342   2.581   9.766  0.00  0.00    +0.000 A 
ATOM     29  C   UNL     1      45.070   2.564   8.584  0.00  0.00    +0.000 A 
ATOM     30  C   UNL     1      45.639   3.746   8.164  0.00  0.00    +0.000 A 
ATOM     31  N   UNL     1      45.510   4.899   8.849  0.00  0.00    +0.000 NA
ATOM     32  N   UNL     1      44.787   4.916  10.008  0.00  0.00    +0.000 NA
ENDBRANCH  26  27
BRANCH  26  33
ATOM     33  C   UNL     1      42.866   5.322  11.916  0.00  0.00    +0.000 C 
BRANCH  33  34
ATOM     34  O   UNL     1      42.900   5.768  13.274  0.00  0.00    +0.000 OA
ATOM     35  H   UNL     1      42.093   6.301  13.402  0.00  0.00    +0.000 HD
ENDBRANCH  33  34
ENDBRANCH  26  33
ENDBRANCH  24  26
ENDBRANCH  23  24
ENDBRANCH   4  23
TORSDOF 9
ENDMDL
MODEL 3
REMARK VINA RESULT:    -7.803      2.033      2.596
REMARK INTER + INTRA:         -12.794
REMARK INTER:                 -11.637
REMARK INTRA:                  -1.158
REMARK UNBOUND:                -1.113
REMARK  Name = 
REMARK  9 active torsions:
REMARK  status: ('A' for Active; 'I' for Inactive)
REMARK    1  A    between atoms: C_2  and  C_22
REMARK    2  A    between atoms: N_3  and  C_4
REMARK    3  A    between atoms: C_4  and  C_5
REMARK    4  A    between atoms: C_8  and  C_9
REMARK    5  A    between atoms: C_9  and  N_10
REMARK    6  A    between atoms: N_10  and  CA_11
REMARK    7  A    between atoms: CA_11  and  C_12
REMARK    8  A    between atoms: CA_11  and  C_14
REMARK    9  A    between atoms: C_12  and  O_13
REMARK                            x       y       z     vdW  Elec       q    Type
REMARK                         _______ _______ _______ _____ _____    ______ ____
ROOT
ATOM      1  C   UNL     1      47.018   6.538  13.295  0.00  0.00    +0.000 A 
ATOM      2  C   UNL     1      46.704   7.384  12.232  0.00  0.00    +0.000 A 
ATOM      3  C   UNL     1      45.513   7.208  11.535  0.00  0.00    +0.000 A 
ATOM      4  C   UNL     1      44.649   6.192  11.933  0.00  0.00    +0.000 A 
ATOM      5  N   UNL     1      44.905   5.387  12.995  0.00  0.00    +0.000 NA
ATOM      6  C   UNL     1      46.074   5.583  13.652  0.00  0.00    +0.000 A 
ENDROOT
BRANCH   1   7
ATOM      7  C   UNL     1      48.320   6.672  14.029  0.00  0.00    +0.000 C 
BRANCH   7  10
ATOM      8  O   UNL     1      50.347   6.254  15.953  0.00  0.00    +0.000 OA
ATOM      9  C   UNL     1      49.187   6.405  16.328  0.00  0.00    +0.000 C 
ATOM     10  N   UNL     1      48.145   6.563  15.452  0.00  0.00    +0.000 N 
ATOM     11  H   UNL     1      47.241   6.846  15.812  0.00  0.00    +0.000 HD
BRANCH   9  12
ATOM     12  C   UNL     1      48.825   6.372  17.750  0.00  0.00    +0.000 A 
ATOM     13  C   UNL     1      49.036   5.221  18.497  0.00  0.00    +0.000 A 
ATOM     14  S   UNL     1      48.524   5.357  20.119  0.00  0.00    +0.000 S 
ATOM     15  C   UNL     1      48.049   6.976  19.893  0.00  0.00    +0.000 A 
ATOM     16  N   UNL     1      47.538   7.707  20.919  0.00  0.00    +0.000 NA
ATOM     17  C   UNL     1      47.272   8.935  20.620  0.00  0.00    +0.000 A 
ATOM     18  N   UNL     1      47.454   9.495  19.382  0.00  0.00    +0.000 N 
ATOM     19  C   UNL     1      47.881   8.771  18.296  0.00  0.00    +0.000 A 
ATOM     20  O   UNL     1      47.886   9.259  17.170  0.00  0.00    +0.000 OA
ATOM     21  C   UNL     1      48.251   7.399  18.592  0.00  0.00    +0.000 A 
ATOM     22  H   UNL     1      47.201  10.456  19.205  0.00  0.00    +0.000 HD
ENDBRANCH   9  12
ENDBRANCH   7  10
ENDBRANCH   1   7
BRANCH   4  23
ATOM     23  C   UNL     1      43.355   5.957  11.179  0.00  0.00    +0.000 C 
BRANCH  23  24
ATOM     24  N   UNL     1      43.444   4.940  10.116  0.00  0.00    +0.000 NA
ATOM     25  H   UNL     1      43.818   5.443   9.304  0.00  0.00    +0.000 HD
BRANCH  24  26
ATOM     26  CA  UNL     1      44.413   3.843  10.401  0.00  0.00    +0.000 C 
BRANCH  26  27
ATOM     27  C   UNL     1      45.236   3.500   9.161  0.00  0.00    +0.000 A 
ATOM     28  C   UNL     1      45.579   2.189   8.839  0.00  0.00    +0.000 A 
ATOM     29  C   UNL     1      46.318   1.947   7.688  0.00  0.00    +0.000 A 
ATOM     30  C   UNL     1      46.689   3.031   6.925  0.00  0.00    +0.000 A 
ATOM     31  N   UNL     1      46.359   4.297   7.249  0.00  0.00    +0.000 NA
ATOM     32  N   UNL     1      45.626   4.533   8.377  0.00  0.00    +0.000 NA
ENDBRANCH  26  27
BRANCH  26  33
ATOM     33  C   UNL     1      43.739   2.557  10.939  0.00  0.00    +0.000 C 
BRANCH  33  34
ATOM     34  O   UNL     1      43.818   2.462  12.364  0.00  0.00    +0.000 OA
ATOM     35  H   UNL     1      44.762   2.559  12.588  0.00  0.00    +0.000 HD
ENDBRANCH  33  34
ENDBRANCH  26  33
ENDBRANCH  24  26
ENDBRANCH  23  24
ENDBRANCH   4  23
TORSDOF 9
ENDMDL
MODEL 4
REMARK VINA RESULT:    -7.669      1.826      2.282
REMARK INTER + INTRA:         -12.593
REMARK INTER:                 -11.696
REMARK INTRA:                  -0.897
REMARK UNBOUND:                -1.113
REMARK  Name = 
REMARK  9 active torsions:
REMARK  status: ('A' for Active; 'I' for Inactive)
REMARK    1  A    between atoms: C_2  and  C_22
REMARK    2  A    between atoms: N_3  and  C_4
REMARK    3  A    between atoms: C_4  and  C_5
REMARK    4  A    between atoms: C_8  and  C_9
REMARK    5  A    between atoms: C_9  and  N_10
REMARK    6  A    between atoms: N_10  and  CA_11
REMARK    7  A    between atoms: CA_11  and  C_12
REMARK    8  A    between atoms: CA_11  and  C_14
REMARK    9  A    between atoms: C_12  and  O_13
REMARK                            x       y       z     vdW  Elec       q    Type
REMARK                         _______ _______ _______ _____ _____    ______ ____
ROOT
ATOM      1  C   UNL     1      47.311   6.351  13.402  0.00  0.00    +0.000 A 
ATOM      2  C   UNL     1      47.203   5.074  13.952  0.00  0.00    +0.000 A 
ATOM      3  C   UNL     1      46.316   4.155  13.400  0.00  0.00    +0.000 A 
ATOM      4  C   UNL     1      45.565   4.532  12.291  0.00  0.00    +0.000 A 
ATOM      5  N   UNL     1      45.687   5.750  11.704  0.00  0.00    +0.000 NA
ATOM      6  C   UNL     1      46.557   6.623  12.266  0.00  0.00    +0.000 A 
ENDROOT
BRANCH   1   7
ATOM      7  C   UNL     1      48.220   7.378  14.009  0.00  0.00    +0.000 C 
BRANCH   7  10
ATOM      8  O   UNL     1      50.381   6.557  15.634  0.00  0.00    +0.000 OA
ATOM      9  C   UNL     1      49.340   6.932  16.167  0.00  0.00    +0.000 C 
ATOM     10  N   UNL     1      48.234   7.297  15.445  0.00  0.00    +0.000 N 
ATOM     11  H   UNL     1      47.464   7.751  15.923  0.00  0.00    +0.000 HD
BRANCH   9  12
ATOM     12  C   UNL     1      49.187   6.964  17.627  0.00  0.00    +0.000 A 
ATOM     13  C   UNL     1      49.206   8.177  18.303  0.00  0.00    +0.000 A 
ATOM     14  S   UNL     1      49.048   8.017  19.994  0.00  0.00    +0.000 S 
ATOM     15  C   UNL     1      48.898   6.326  19.877  0.00  0.00    +0.000 A 
ATOM     16  N   UNL     1      48.706   5.560  20.985  0.00  0.00    +0.000 NA
ATOM     17  C   UNL     1      48.552   4.301  20.744  0.00  0.00    +0.000 A 
ATOM     18  N   UNL     1      48.592   3.733  19.497  0.00  0.00    +0.000 N 
ATOM     19  C   UNL     1      48.874   4.453  18.363  0.00  0.00    +0.000 A 
ATOM     20  O   UNL     1      49.055   3.895  17.285  0.00  0.00    +0.000 OA
ATOM     21  C   UNL     1      48.995   5.885  18.570  0.00  0.00    +0.000 A 
ATOM     22  H   UNL     1      48.493   2.735  19.378  0.00  0.00    +0.000 HD
ENDBRANCH   9  12
ENDBRANCH   7  10
ENDBRANCH   1   7
BRANCH   4  23
ATOM     23  C   UNL     1      44.571   3.564  11.681  0.00  0.00    +0.000 C 
BRANCH  23  24
ATOM     24  N   UNL     1      45.130   2.696  10.630  0.00  0.00    +0.000 NA
ATOM     25  H   UNL     1      44.811   1.751  10.875  0.00  0.00    +0.000 HD
BRANCH  24  26
ATOM     26  CA  UNL     1      44.592   2.968   9.266  0.00  0.00    +0.000 C 
BRANCH  26  27
ATOM     27  C   UNL     1      45.606   2.588   8.189  0.00  0.00    +0.000 A 
ATOM     28  C   UNL     1      46.299   1.380   8.216  0.00  0.00    +0.000 A 
ATOM     29  C   UNL     1      47.196   1.093   7.196  0.00  0.00    +0.000 A 
ATOM     30  C   UNL     1      47.367   2.036   6.207  0.00  0.00    +0.000 A 
ATOM     31  N   UNL     1      46.698   3.206   6.194  0.00  0.00    +0.000 NA
ATOM     32  N   UNL     1      45.810   3.484   7.193  0.00  0.00    +0.000 NA
ENDBRANCH  26  27
BRANCH  26  33
ATOM     33  C   UNL     1      44.160   4.441   9.063  0.00  0.00    +0.000 C 
BRANCH  33  34
ATOM     34  O   UNL     1      45.280   5.319   8.922  0.00  0.00    +0.000 OA
ATOM     35  H   UNL     1      45.187   5.988   9.626  0.00  0.00    +0.000 HD
ENDBRANCH  33  34
ENDBRANCH  26  33
ENDBRANCH  24  26
ENDBRANCH  23  24
ENDBRANCH   4  23
TORSDOF 9
ENDMDL
MODEL 5
REMARK VINA RESULT:    -7.426      3.183      7.940
REMARK INTER + INTRA:         -12.229
REMARK INTER:                 -10.561
REMARK INTRA:                  -1.668
REMARK UNBOUND:                -1.113
REMARK  Name = 
REMARK  9 active torsions:
REMARK  status: ('A' for Active; 'I' for Inactive)
REMARK    1  A    between atoms: C_2  and  C_22
REMARK    2  A    between atoms: N_3  and  C_4
REMARK    3  A    between atoms: C_4  and  C_5
REMARK    4  A    between atoms: C_8  and  C_9
REMARK    5  A    between atoms: C_9  and  N_10
REMARK    6  A    between atoms: N_10  and  CA_11
REMARK    7  A    between atoms: CA_11  and  C_12
REMARK    8  A    between atoms: CA_11  and  C_14
REMARK    9  A    between atoms: C_12  and  O_13
REMARK                            x       y       z     vdW  Elec       q    Type
REMARK                         _______ _______ _______ _____ _____    ______ ____
ROOT
ATOM      1  C   UNL     1      48.406   8.052  13.481  0.00  0.00    +0.000 A 
ATOM      2  C   UNL     1      49.036   6.973  14.101  0.00  0.00    +0.000 A 
ATOM      3  C   UNL     1      49.197   6.966  15.483  0.00  0.00    +0.000 A 
ATOM      4  C   UNL     1      48.703   8.039  16.219  0.00  0.00    +0.000 A 
ATOM      5  N   UNL     1      48.041   9.077  15.648  0.00  0.00    +0.000 NA
ATOM      6  C   UNL     1      47.903   9.055  14.300  0.00  0.00    +0.000 A 
ENDROOT
BRANCH   1   7
ATOM      7  C   UNL     1      48.268   8.110  11.988  0.00  0.00    +0.000 C 
BRANCH   7  10
ATOM      8  O   UNL     1      45.456   7.891  11.806  0.00  0.00    +0.000 OA
ATOM      9  C   UNL     1      46.157   6.978  11.378  0.00  0.00    +0.000 C 
ATOM     10  N   UNL     1      47.524   6.991  11.476  0.00  0.00    +0.000 N 
ATOM     11  H   UNL     1      48.059   6.298  10.965  0.00  0.00    +0.000 HD
BRANCH   9  12
ATOM     12  C   UNL     1      45.573   5.773  10.775  0.00  0.00    +0.000 A 
ATOM     13  C   UNL     1      45.768   5.505   9.426  0.00  0.00    +0.000 A 
ATOM     14  S   UNL     1      44.989   4.084   8.895  0.00  0.00    +0.000 S 
ATOM     15  C   UNL     1      44.407   3.749  10.458  0.00  0.00    +0.000 A 
ATOM     16  N   UNL     1      43.670   2.634  10.710  0.00  0.00    +0.000 NA
ATOM     17  C   UNL     1      43.343   2.478  11.949  0.00  0.00    +0.000 A 
ATOM     18  N   UNL     1      43.669   3.345  12.959  0.00  0.00    +0.000 N 
ATOM     19  C   UNL     1      44.332   4.527  12.737  0.00  0.00    +0.000 A 
ATOM     20  O   UNL     1      44.474   5.353  13.633  0.00  0.00    +0.000 OA
ATOM     21  C   UNL     1      44.777   4.722  11.369  0.00  0.00    +0.000 A 
ATOM     22  H   UNL     1      43.359   3.180  13.906  0.00  0.00    +0.000 HD
ENDBRANCH   9  12
ENDBRANCH   7  10
ENDBRANCH   1   7
BRANCH   4  23
ATOM     23  C   UNL     1      48.884   8.075  17.724  0.00  0.00    +0.000 C 
BRANCH  23  24
ATOM     24  N   UNL     1      47.801   7.428  18.485  0.00  0.00    +0.000 NA
ATOM     25  H   UNL     1      47.161   7.063  17.770  0.00  0.00    +0.000 HD
BRANCH  24  26
ATOM     26  CA  UNL     1      48.238   6.248  19.285  0.00  0.00    +0.000 C 
BRANCH  26  27
ATOM     27  C   UNL     1      48.177   4.967  18.455  0.00  0.00    +0.000 A 
ATOM     28  C   UNL     1      49.319   4.242  18.126  0.00  0.00    +0.000 A 
ATOM     29  C   UNL     1      49.190   3.078  17.380  0.00  0.00    +0.000 A 
ATOM     30  C   UNL     1      47.923   2.705  16.988  0.00  0.00    +0.000 A 
ATOM     31  N   UNL     1      46.824   3.418  17.304  0.00  0.00    +0.000 NA
ATOM     32  N   UNL     1      46.952   4.559  18.045  0.00  0.00    +0.000 NA
ENDBRANCH  26  27
BRANCH  26  33
ATOM     33  C   UNL     1      47.418   6.054  20.585  0.00  0.00    +0.000 C 
BRANCH  33  34
ATOM     34  O   UNL     1      47.585   4.746  21.138  0.00  0.00    +0.000 OA
ATOM     35  H   UNL     1      47.800   4.879  22.080  0.00  0.00    +0.000 HD
ENDBRANCH  33  34
ENDBRANCH  26  33
ENDBRANCH  24  26
ENDBRANCH  23  24
ENDBRANCH   4  23
TORSDOF 9
ENDMDL
MODEL 6
REMARK VINA RESULT:    -7.199      2.915      8.201
REMARK INTER + INTRA:         -11.889
REMARK INTER:                 -10.404
REMARK INTRA:                  -1.485
REMARK UNBOUND:                -1.113
REMARK  Name = 
REMARK  9 active torsions:
REMARK  status: ('A' for Active; 'I' for Inactive)
REMARK    1  A    between atoms: C_2  and  C_22
REMARK    2  A    between atoms: N_3  and  C_4
REMARK    3  A    between atoms: C_4  and  C_5
REMARK    4  A    between atoms: C_8  and  C_9
REMARK    5  A    between atoms: C_9  and  N_10
REMARK    6  A    between atoms: N_10  and  CA_11
REMARK    7  A    between atoms: CA_11  and  C_12
REMARK    8  A    between atoms: CA_11  and  C_14
REMARK    9  A    between atoms: C_12  and  O_13
REMARK                            x       y       z     vdW  Elec       q    Type
REMARK                         _______ _______ _______ _____ _____    ______ ____
ROOT
ATOM      1  C   UNL     1      47.998   7.765  13.484  0.00  0.00    +0.000 A 
ATOM      2  C   UNL     1      47.846   8.849  14.349  0.00  0.00    +0.000 A 
ATOM      3  C   UNL     1      48.421   8.810  15.615  0.00  0.00    +0.000 A 
ATOM      4  C   UNL     1      49.156   7.687  15.983  0.00  0.00    +0.000 A 
ATOM      5  N   UNL     1      49.362   6.640  15.144  0.00  0.00    +0.000 NA
ATOM      6  C   UNL     1      48.788   6.707  13.919  0.00  0.00    +0.000 A 
ENDROOT
BRANCH   1   7
ATOM      7  C   UNL     1      47.344   7.758  12.135  0.00  0.00    +0.000 C 
BRANCH   7  10
ATOM      8  O   UNL     1      44.558   7.468  11.763  0.00  0.00    +0.000 OA
ATOM      9  C   UNL     1      45.280   6.479  11.676  0.00  0.00    +0.000 C 
ATOM     10  N   UNL     1      46.632   6.533  11.892  0.00  0.00    +0.000 N 
ATOM     11  H   UNL     1      47.200   5.730  11.648  0.00  0.00    +0.000 HD
BRANCH   9  12
ATOM     12  C   UNL     1      44.734   5.147  11.384  0.00  0.00    +0.000 A 
ATOM     13  C   UNL     1      43.938   4.500  12.320  0.00  0.00    +0.000 A 
ATOM     14  S   UNL     1      43.424   2.951  11.822  0.00  0.00    +0.000 S 
ATOM     15  C   UNL     1      44.204   3.112  10.319  0.00  0.00    +0.000 A 
ATOM     16  N   UNL     1      44.135   2.128   9.383  0.00  0.00    +0.000 NA
ATOM     17  C   UNL     1      44.726   2.407   8.269  0.00  0.00    +0.000 A 
ATOM     18  N   UNL     1      45.396   3.574   8.011  0.00  0.00    +0.000 N 
ATOM     19  C   UNL     1      45.568   4.555   8.956  0.00  0.00    +0.000 A 
ATOM     20  O   UNL     1      46.301   5.517   8.746  0.00  0.00    +0.000 OA
ATOM     21  C   UNL     1      44.872   4.318  10.207  0.00  0.00    +0.000 A 
ATOM     22  H   UNL     1      45.862   3.721   7.127  0.00  0.00    +0.000 HD
ENDBRANCH   9  12
ENDBRANCH   7  10
ENDBRANCH   1   7
BRANCH   4  23
ATOM     23  C   UNL     1      49.774   7.602  17.364  0.00  0.00    +0.000 C 
BRANCH  23  24
ATOM     24  N   UNL     1      48.911   6.978  18.383  0.00  0.00    +0.000 NA
ATOM     25  H   UNL     1      48.035   6.769  17.890  0.00  0.00    +0.000 HD
BRANCH  24  26
ATOM     26  CA  UNL     1      49.417   5.672  18.893  0.00  0.00    +0.000 C 
BRANCH  26  27
ATOM     27  C   UNL     1      49.045   4.530  17.948  0.00  0.00    +0.000 A 
ATOM     28  C   UNL     1      47.774   4.414  17.391  0.00  0.00    +0.000 A 
ATOM     29  C   UNL     1      47.508   3.358  16.528  0.00  0.00    +0.000 A 
ATOM     30  C   UNL     1      48.524   2.463  16.278  0.00  0.00    +0.000 A 
ATOM     31  N   UNL     1      49.749   2.580  16.829  0.00  0.00    +0.000 NA
ATOM     32  N   UNL     1      50.011   3.623  17.671  0.00  0.00    +0.000 NA
ENDBRANCH  26  27
BRANCH  26  33
ATOM     33  C   UNL     1      48.915   5.338  20.319  0.00  0.00    +0.000 C 
BRANCH  33  34
ATOM     34  O   UNL     1      48.733   3.933  20.513  0.00  0.00    +0.000 OA
ATOM     35  H   UNL     1      48.160   3.841  21.297  0.00  0.00    +0.000 HD
ENDBRANCH  33  34
ENDBRANCH  26  33
ENDBRANCH  24  26
ENDBRANCH  23  24
ENDBRANCH   4  23
TORSDOF 9
ENDMDL
MODEL 7
REMARK VINA RESULT:    -6.777      3.603      8.497
REMARK INTER + INTRA:         -11.257
REMARK INTER:                  -9.825
REMARK INTRA:                  -1.432
REMARK UNBOUND:                -1.113
REMARK  Name = 
REMARK  9 active torsions:
REMARK  status: ('A' for Active; 'I' for Inactive)
REMARK    1  A    between atoms: C_2  and  C_22
REMARK    2  A    between atoms: N_3  and  C_4
REMARK    3  A    between atoms: C_4  and  C_5
REMARK    4  A    between atoms: C_8  and  C_9
REMARK    5  A    between atoms: C_9  and  N_10
REMARK    6  A    between atoms: N_10  and  CA_11
REMARK    7  A    between atoms: CA_11  and  C_12
REMARK    8  A    between atoms: CA_11  and  C_14
REMARK    9  A    between atoms: C_12  and  O_13
REMARK                            x       y       z     vdW  Elec       q    Type
REMARK                         _______ _______ _______ _____ _____    ______ ____
ROOT
ATOM      1  C   UNL     1      48.976   7.532  13.531  0.00  0.00    +0.000 A 
ATOM      2  C   UNL     1      50.235   8.044  13.843  0.00  0.00    +0.000 A 
ATOM      3  C   UNL     1      50.855   7.683  15.035  0.00  0.00    +0.000 A 
ATOM      4  C   UNL     1      50.203   6.795  15.885  0.00  0.00    +0.000 A 
ATOM      5  N   UNL     1      49.001   6.242  15.585  0.00  0.00    +0.000 NA
ATOM      6  C   UNL     1      48.423   6.615  14.418  0.00  0.00    +0.000 A 
ENDROOT
BRANCH   1   7
ATOM      7  C   UNL     1      48.263   7.947  12.279  0.00  0.00    +0.000 C 
BRANCH   7  10
ATOM      8  O   UNL     1      45.483   7.908  11.772  0.00  0.00    +0.000 OA
ATOM      9  C   UNL     1      46.164   6.938  11.452  0.00  0.00    +0.000 C 
ATOM     10  N   UNL     1      47.508   6.864  11.710  0.00  0.00    +0.000 N 
ATOM     11  H   UNL     1      48.049   6.121  11.282  0.00  0.00    +0.000 HD
BRANCH   9  12
ATOM     12  C   UNL     1      45.572   5.756  10.812  0.00  0.00    +0.000 A 
ATOM     13  C   UNL     1      45.766   5.527   9.456  0.00  0.00    +0.000 A 
ATOM     14  S   UNL     1      44.977   4.127   8.882  0.00  0.00    +0.000 S 
ATOM     15  C   UNL     1      44.391   3.751  10.434  0.00  0.00    +0.000 A 
ATOM     16  N   UNL     1      43.645   2.634  10.652  0.00  0.00    +0.000 NA
ATOM     17  C   UNL     1      43.315   2.444  11.886  0.00  0.00    +0.000 A 
ATOM     18  N   UNL     1      43.647   3.279  12.921  0.00  0.00    +0.000 N 
ATOM     19  C   UNL     1      44.319   4.461  12.735  0.00  0.00    +0.000 A 
ATOM     20  O   UNL     1      44.466   5.260  13.655  0.00  0.00    +0.000 OA
ATOM     21  C   UNL     1      44.767   4.694  11.374  0.00  0.00    +0.000 A 
ATOM     22  H   UNL     1      43.334   3.088  13.862  0.00  0.00    +0.000 HD
ENDBRANCH   9  12
ENDBRANCH   7  10
ENDBRANCH   1   7
BRANCH   4  23
ATOM     23  C   UNL     1      50.839   6.400  17.203  0.00  0.00    +0.000 C 
BRANCH  23  24
ATOM     24  N   UNL     1      51.683   5.194  17.137  0.00  0.00    +0.000 NA
ATOM     25  H   UNL     1      52.614   5.511  17.433  0.00  0.00    +0.000 HD
BRANCH  24  26
ATOM     26  CA  UNL     1      51.291   4.123  18.098  0.00  0.00    +0.000 C 
BRANCH  26  27
ATOM     27  C   UNL     1      52.211   2.910  17.975  0.00  0.00    +0.000 A 
ATOM     28  C   UNL     1      53.596   3.034  17.907  0.00  0.00    +0.000 A 
ATOM     29  C   UNL     1      54.374   1.888  17.811  0.00  0.00    +0.000 A 
ATOM     30  C   UNL     1      53.725   0.674  17.772  0.00  0.00    +0.000 A 
ATOM     31  N   UNL     1      52.383   0.564  17.830  0.00  0.00    +0.000 NA
ATOM     32  N   UNL     1      51.620   1.692  17.933  0.00  0.00    +0.000 NA
ENDBRANCH  26  27
BRANCH  26  33
ATOM     33  C   UNL     1      49.820   3.666  17.936  0.00  0.00    +0.000 C 
BRANCH  33  34
ATOM     34  O   UNL     1      49.522   3.269  16.595  0.00  0.00    +0.000 OA
ATOM     35  H   UNL     1      49.966   3.917  16.017  0.00  0.00    +0.000 HD
ENDBRANCH  33  34
ENDBRANCH  26  33
ENDBRANCH  24  26
ENDBRANCH  23  24
ENDBRANCH   4  23
TORSDOF 9
ENDMDL
MODEL 8
REMARK VINA RESULT:    -6.697      1.782      2.155
REMARK INTER + INTRA:         -11.137
REMARK INTER:                 -10.180
REMARK INTRA:                  -0.958
REMARK UNBOUND:                -1.113
REMARK  Name = 
REMARK  9 active torsions:
REMARK  status: ('A' for Active; 'I' for Inactive)
REMARK    1  A    between atoms: C_2  and  C_22
REMARK    2  A    between atoms: N_3  and  C_4
REMARK    3  A    between atoms: C_4  and  C_5
REMARK    4  A    between atoms: C_8  and  C_9
REMARK    5  A    between atoms: C_9  and  N_10
REMARK    6  A    between atoms: N_10  and  CA_11
REMARK    7  A    between atoms: CA_11  and  C_12
REMARK    8  A    between atoms: CA_11  and  C_14
REMARK    9  A    between atoms: C_12  and  O_13
REMARK                            x       y       z     vdW  Elec       q    Type
REMARK                         _______ _______ _______ _____ _____    ______ ____
ROOT
ATOM      1  C   UNL     1      48.639   8.259  12.839  0.00  0.00    +0.000 A 
ATOM      2  C   UNL     1      48.426   7.385  11.773  0.00  0.00    +0.000 A 
ATOM      3  C   UNL     1      47.133   6.981  11.456  0.00  0.00    +0.000 A 
ATOM      4  C   UNL     1      46.073   7.480  12.207  0.00  0.00    +0.000 A 
ATOM      5  N   UNL     1      46.246   8.370  13.217  0.00  0.00    +0.000 NA
ATOM      6  C   UNL     1      47.517   8.742  13.502  0.00  0.00    +0.000 A 
ENDROOT
BRANCH   1   7
ATOM      7  C   UNL     1      50.026   8.668  13.237  0.00  0.00    +0.000 C 
BRANCH   7  10
ATOM      8  O   UNL     1      50.208   8.916  16.046  0.00  0.00    +0.000 OA
ATOM      9  C   UNL     1      50.630   7.897  15.506  0.00  0.00    +0.000 C 
ATOM     10  N   UNL     1      50.621   7.726  14.146  0.00  0.00    +0.000 N 
ATOM     11  H   UNL     1      50.826   6.809  13.765  0.00  0.00    +0.000 HD
BRANCH   9  12
ATOM     12  C   UNL     1      51.229   6.803  16.281  0.00  0.00    +0.000 A 
ATOM     13  C   UNL     1      52.589   6.811  16.563  0.00  0.00    +0.000 A 
ATOM     14  S   UNL     1      53.110   5.446  17.442  0.00  0.00    +0.000 S 
ATOM     15  C   UNL     1      51.530   4.821  17.521  0.00  0.00    +0.000 A 
ATOM     16  N   UNL     1      51.266   3.658  18.175  0.00  0.00    +0.000 NA
ATOM     17  C   UNL     1      50.017   3.332  18.203  0.00  0.00    +0.000 A 
ATOM     18  N   UNL     1      49.008   4.053  17.621  0.00  0.00    +0.000 N 
ATOM     19  C   UNL     1      49.238   5.183  16.875  0.00  0.00    +0.000 A 
ATOM     20  O   UNL     1      48.335   5.719  16.240  0.00  0.00    +0.000 OA
ATOM     21  C   UNL     1      50.619   5.627  16.862  0.00  0.00    +0.000 A 
ATOM     22  H   UNL     1      48.052   3.730  17.655  0.00  0.00    +0.000 HD
ENDBRANCH   9  12
ENDBRANCH   7  10
ENDBRANCH   1   7
BRANCH   4  23
ATOM     23  C   UNL     1      44.655   7.040  11.903  0.00  0.00    +0.000 C 
BRANCH  23  24
ATOM     24  N   UNL     1      44.507   6.270  10.656  0.00  0.00    +0.000 NA
ATOM     25  H   UNL     1      45.359   6.474  10.121  0.00  0.00    +0.000 HD
BRANCH  24  26
ATOM     26  CA  UNL     1      44.491   4.792  10.851  0.00  0.00    +0.000 C 
BRANCH  26  27
ATOM     27  C   UNL     1      45.099   4.071   9.650  0.00  0.00    +0.000 A 
ATOM     28  C   UNL     1      45.121   2.682   9.553  0.00  0.00    +0.000 A 
ATOM     29  C   UNL     1      45.678   2.092   8.425  0.00  0.00    +0.000 A 
ATOM     30  C   UNL     1      46.199   2.923   7.458  0.00  0.00    +0.000 A 
ATOM     31  N   UNL     1      46.181   4.266   7.566  0.00  0.00    +0.000 NA
ATOM     32  N   UNL     1      45.626   4.845   8.671  0.00  0.00    +0.000 NA
ENDBRANCH  26  27
BRANCH  26  33
ATOM     33  C   UNL     1      43.074   4.227  11.122  0.00  0.00    +0.000 C 
BRANCH  33  34
ATOM     34  O   UNL     1      43.090   3.165  12.079  0.00  0.00    +0.000 OA
ATOM     35  H   UNL     1      43.171   2.341  11.565  0.00  0.00    +0.000 HD
ENDBRANCH  33  34
ENDBRANCH  26  33
ENDBRANCH  24  26
ENDBRANCH  23  24
ENDBRANCH   4  23
TORSDOF 9
ENDMDL
MODEL 9
REMARK VINA RESULT:    -6.587      3.006      8.651
REMARK INTER + INTRA:         -10.973
REMARK INTER:                  -9.684
REMARK INTRA:                  -1.289
REMARK UNBOUND:                -1.113
REMARK  Name = 
REMARK  9 active torsions:
REMARK  status: ('A' for Active; 'I' for Inactive)
REMARK    1  A    between atoms: C_2  and  C_22
REMARK    2  A    between atoms: N_3  and  C_4
REMARK    3  A    between atoms: C_4  and  C_5
REMARK    4  A    between atoms: C_8  and  C_9
REMARK    5  A    between atoms: C_9  and  N_10
REMARK    6  A    between atoms: N_10  and  CA_11
REMARK    7  A    between atoms: CA_11  and  C_12
REMARK    8  A    between atoms: CA_11  and  C_14
REMARK    9  A    between atoms: C_12  and  O_13
REMARK                            x       y       z     vdW  Elec       q    Type
REMARK                         _______ _______ _______ _____ _____    ______ ____
ROOT
ATOM      1  C   UNL     1      46.219   6.819  12.689  0.00  0.00    +0.000 A 
ATOM      2  C   UNL     1      46.522   8.125  13.072  0.00  0.00    +0.000 A 
ATOM      3  C   UNL     1      47.537   8.359  13.995  0.00  0.00    +0.000 A 
ATOM      4  C   UNL     1      48.243   7.273  14.503  0.00  0.00    +0.000 A 
ATOM      5  N   UNL     1      48.004   5.996  14.111  0.00  0.00    +0.000 NA
ATOM      6  C   UNL     1      47.008   5.801  13.213  0.00  0.00    +0.000 A 
ENDROOT
BRANCH   1   7
ATOM      7  C   UNL     1      45.095   6.535  11.738  0.00  0.00    +0.000 C 
BRANCH   7  10
ATOM      8  O   UNL     1      43.162   5.036  10.323  0.00  0.00    +0.000 OA
ATOM      9  C   UNL     1      44.338   4.685  10.285  0.00  0.00    +0.000 C 
ATOM     10  N   UNL     1      45.323   5.332  10.984  0.00  0.00    +0.000 N 
ATOM     11  H   UNL     1      46.292   5.106  10.791  0.00  0.00    +0.000 HD
BRANCH   9  12
ATOM     12  C   UNL     1      44.768   3.504   9.524  0.00  0.00    +0.000 A 
ATOM     13  C   UNL     1      44.181   2.269   9.764  0.00  0.00    +0.000 A 
ATOM     14  S   UNL     1      44.830   1.011   8.812  0.00  0.00    +0.000 S 
ATOM     15  C   UNL     1      45.881   2.082   8.009  0.00  0.00    +0.000 A 
ATOM     16  N   UNL     1      46.715   1.644   7.028  0.00  0.00    +0.000 NA
ATOM     17  C   UNL     1      47.415   2.573   6.468  0.00  0.00    +0.000 A 
ATOM     18  N   UNL     1      47.372   3.899   6.812  0.00  0.00    +0.000 N 
ATOM     19  C   UNL     1      46.614   4.371   7.855  0.00  0.00    +0.000 A 
ATOM     20  O   UNL     1      46.713   5.533   8.237  0.00  0.00    +0.000 OA
ATOM     21  C   UNL     1      45.761   3.377   8.480  0.00  0.00    +0.000 A 
ATOM     22  H   UNL     1      47.966   4.574   6.353  0.00  0.00    +0.000 HD
ENDBRANCH   9  12
ENDBRANCH   7  10
ENDBRANCH   1   7
BRANCH   4  23
ATOM     23  C   UNL     1      49.337   7.491  15.528  0.00  0.00    +0.000 C 
BRANCH  23  24
ATOM     24  N   UNL     1      48.867   7.533  16.924  0.00  0.00    +0.000 NA
ATOM     25  H   UNL     1      47.872   7.287  16.872  0.00  0.00    +0.000 HD
BRANCH  24  26
ATOM     26  CA  UNL     1      49.495   6.511  17.810  0.00  0.00    +0.000 C 
BRANCH  26  27
ATOM     27  C   UNL     1      49.009   5.106  17.460  0.00  0.00    +0.000 A 
ATOM     28  C   UNL     1      47.669   4.740  17.555  0.00  0.00    +0.000 A 
ATOM     29  C   UNL     1      47.294   3.449  17.207  0.00  0.00    +0.000 A 
ATOM     30  C   UNL     1      48.283   2.582  16.797  0.00  0.00    +0.000 A 
ATOM     31  N   UNL     1      49.579   2.943  16.717  0.00  0.00    +0.000 NA
ATOM     32  N   UNL     1      49.946   4.216  17.051  0.00  0.00    +0.000 NA
ENDBRANCH  26  27
BRANCH  26  33
ATOM     33  C   UNL     1      49.251   6.775  19.316  0.00  0.00    +0.000 C 
BRANCH  33  34
ATOM     34  O   UNL     1      48.232   7.754  19.535  0.00  0.00    +0.000 OA
ATOM     35  H   UNL     1      47.661   7.395  20.239  0.00  0.00    +0.000 HD
ENDBRANCH  33  34
ENDBRANCH  26  33
ENDBRANCH  24  26
ENDBRANCH  23  24
ENDBRANCH   4  23
TORSDOF 9
ENDMDL
