MODEL 1
REMARK VINA RESULT:    -8.068      0.000      0.000
REMARK INTER + INTRA:         -12.081
REMARK INTER:                 -10.897
REMARK INTRA:                  -1.184
REMARK UNBOUND:                -1.184
REMARK  Name = 
REMARK  7 active torsions:
REMARK  status: ('A' for Active; 'I' for Inactive)
REMARK    1  A    between atoms: C_1  and  O_2
REMARK    2  A    between atoms: O_2  and  C_3
REMARK    3  A    between atoms: C_5  and  C_6
REMARK    4  A    between atoms: C_11  and  O_12
REMARK    5  A    between atoms: O_12  and  C_13
REMARK    6  A    between atoms: C_13  and  C_14
REMARK    7  A    between atoms: C_18  and  C_19
REMARK                            x       y       z     vdW  Elec       q    Type
REMARK                         _______ _______ _______ _____ _____    ______ ____
ROOT
ATOM      1  O   UNL     1      44.558   6.911  12.681  0.00  0.00    +0.000 OA
ENDROOT
BRANCH   1   7
ATOM      2  C   UNL     1      46.836   6.086  13.308  0.00  0.00    +0.000 A 
ATOM      3  C   UNL     1      48.210   6.348  13.215  0.00  0.00    +0.000 A 
ATOM      4  C   UNL     1      48.701   7.469  12.525  0.00  0.00    +0.000 A 
ATOM      5  C   UNL     1      47.795   8.340  11.919  0.00  0.00    +0.000 A 
ATOM      6  C   UNL     1      46.423   8.091  12.013  0.00  0.00    +0.000 A 
ATOM      7  C   UNL     1      45.929   6.973  12.702  0.00  0.00    +0.000 A 
BRANCH   4   8
ATOM      8  C   UNL     1      50.181   7.652  12.475  0.00  0.00    +0.000 C 
ATOM      9  N   UNL     1      50.870   7.773  13.648  0.00  0.00    +0.000 N 
ATOM     10  O   UNL     1      50.782   7.697  11.408  0.00  0.00    +0.000 OA
ATOM     11  H   UNL     1      50.464   7.775  14.570  0.00  0.00    +0.000 HD
ATOM     12  H   UNL     1      51.870   7.911  13.571  0.00  0.00    +0.000 HD
ENDBRANCH   4   8
BRANCH   2  14
ATOM     13  C   UNL     1      46.720   3.695  13.383  0.00  0.00    +0.000 C 
ATOM     14  O   UNL     1      46.344   4.961  13.911  0.00  0.00    +0.000 OA
ENDBRANCH   2  14
ENDBRANCH   1   7
BRANCH   1  15
ATOM     15  C   UNL     1      43.917   6.597  11.442  0.00  0.00    +0.000 C 
BRANCH  15  16
ATOM     16  C   UNL     1      43.969   5.107  11.185  0.00  0.00    +0.000 A 
ATOM     17  N   UNL     1      43.247   4.309  11.996  0.00  0.00    +0.000 NA
ATOM     18  C   UNL     1      43.277   2.997  11.724  0.00  0.00    +0.000 A 
ATOM     19  C   UNL     1      43.986   2.455  10.679  0.00  0.00    +0.000 A 
ATOM     20  C   UNL     1      44.695   3.338   9.884  0.00  0.00    +0.000 A 
ATOM     21  N   UNL     1      44.698   4.666  10.135  0.00  0.00    +0.000 NA
BRANCH  20  22
ATOM     22  C   UNL     1      45.495   2.900   8.719  0.00  0.00    +0.000 A 
ATOM     23  C   UNL     1      45.904   3.823   7.734  0.00  0.00    +0.000 A 
ATOM     24  C   UNL     1      46.676   3.431   6.633  0.00  0.00    +0.000 A 
ATOM     25  C   UNL     1      47.052   2.099   6.489  0.00  0.00    +0.000 A 
ATOM     26  C   UNL     1      46.644   1.176   7.440  0.00  0.00    +0.000 A 
ATOM     27  F   UNL     1      46.996  -0.110   7.304  0.00  0.00    +0.000 F 
ATOM     28  C   UNL     1      45.876   1.559   8.537  0.00  0.00    +0.000 A 
ENDBRANCH  20  22
ENDBRANCH  15  16
ENDBRANCH   1  15
TORSDOF 6
ENDMDL
MODEL 2
REMARK VINA RESULT:    -7.572      1.077      2.093
REMARK INTER + INTRA:         -11.411
REMARK INTER:                 -10.625
REMARK INTRA:                  -0.787
REMARK UNBOUND:                -1.184
REMARK  Name = 
REMARK  7 active torsions:
REMARK  status: ('A' for Active; 'I' for Inactive)
REMARK    1  A    between atoms: C_1  and  O_2
REMARK    2  A    between atoms: O_2  and  C_3
REMARK    3  A    between atoms: C_5  and  C_6
REMARK    4  A    between atoms: C_11  and  O_12
REMARK    5  A    between atoms: O_12  and  C_13
REMARK    6  A    between atoms: C_13  and  C_14
REMARK    7  A    between atoms: C_18  and  C_19
REMARK                            x       y       z     vdW  Elec       q    Type
REMARK                         _______ _______ _______ _____ _____    ______ ____
ROOT
ATOM      1  O   UNL     1      44.713   6.857  12.636  0.00  0.00    +0.000 OA
ENDROOT
BRANCH   1   7
ATOM      2  C   UNL     1      46.322   8.755  12.382  0.00  0.00    +0.000 A 
ATOM      3  C   UNL     1      47.677   9.095  12.260  0.00  0.00    +0.000 A 
ATOM      4  C   UNL     1      48.685   8.116  12.276  0.00  0.00    +0.000 A 
ATOM      5  C   UNL     1      48.325   6.776  12.416  0.00  0.00    +0.000 A 
ATOM      6  C   UNL     1      46.976   6.428  12.529  0.00  0.00    +0.000 A 
ATOM      7  C   UNL     1      45.966   7.402  12.514  0.00  0.00    +0.000 A 
BRANCH   4   8
ATOM      8  C   UNL     1      50.097   8.583  12.150  0.00  0.00    +0.000 C 
ATOM      9  N   UNL     1      51.047   7.701  11.721  0.00  0.00    +0.000 N 
ATOM     10  O   UNL     1      50.415   9.733  12.426  0.00  0.00    +0.000 OA
ATOM     11  H   UNL     1      50.890   6.732  11.496  0.00  0.00    +0.000 HD
ATOM     12  H   UNL     1      51.995   8.051  11.664  0.00  0.00    +0.000 HD
ENDBRANCH   4   8
BRANCH   2  14
ATOM     13  C   UNL     1      45.193  10.600  11.353  0.00  0.00    +0.000 C 
ATOM     14  O   UNL     1      45.334   9.700  12.445  0.00  0.00    +0.000 OA
ENDBRANCH   2  14
ENDBRANCH   1   7
BRANCH   1  15
ATOM     15  C   UNL     1      43.988   6.559  11.440  0.00  0.00    +0.000 C 
BRANCH  15  16
ATOM     16  C   UNL     1      44.021   5.073  11.160  0.00  0.00    +0.000 A 
ATOM     17  N   UNL     1      43.281   4.273  11.954  0.00  0.00    +0.000 NA
ATOM     18  C   UNL     1      43.294   2.965  11.662  0.00  0.00    +0.000 A 
ATOM     19  C   UNL     1      44.005   2.429  10.615  0.00  0.00    +0.000 A 
ATOM     20  C   UNL     1      44.733   3.312   9.839  0.00  0.00    +0.000 A 
ATOM     21  N   UNL     1      44.753   4.637  10.111  0.00  0.00    +0.000 NA
BRANCH  20  22
ATOM     22  C   UNL     1      45.537   2.881   8.675  0.00  0.00    +0.000 A 
ATOM     23  C   UNL     1      45.948   3.809   7.695  0.00  0.00    +0.000 A 
ATOM     24  C   UNL     1      46.723   3.422   6.595  0.00  0.00    +0.000 A 
ATOM     25  C   UNL     1      47.101   2.092   6.446  0.00  0.00    +0.000 A 
ATOM     26  C   UNL     1      46.692   1.164   7.392  0.00  0.00    +0.000 A 
ATOM     27  F   UNL     1      47.045  -0.121   7.251  0.00  0.00    +0.000 F 
ATOM     28  C   UNL     1      45.920   1.541   8.489  0.00  0.00    +0.000 A 
ENDBRANCH  20  22
ENDBRANCH  15  16
ENDBRANCH   1  15
TORSDOF 6
ENDMDL
MODEL 3
REMARK VINA RESULT:    -7.272      2.830      3.735
REMARK INTER + INTRA:         -11.007
REMARK INTER:                 -10.250
REMARK INTRA:                  -0.756
REMARK UNBOUND:                -1.184
REMARK  Name = 
REMARK  7 active torsions:
REMARK  status: ('A' for Active; 'I' for Inactive)
REMARK    1  A    between atoms: C_1  and  O_2
REMARK    2  A    between atoms: O_2  and  C_3
REMARK    3  A    between atoms: C_5  and  C_6
REMARK    4  A    between atoms: C_11  and  O_12
REMARK    5  A    between atoms: O_12  and  C_13
REMARK    6  A    between atoms: C_13  and  C_14
REMARK    7  A    between atoms: C_18  and  C_19
REMARK                            x       y       z     vdW  Elec       q    Type
REMARK                         _______ _______ _______ _____ _____    ______ ____
ROOT
ATOM      1  O   UNL     1      47.167   5.856  13.178  0.00  0.00    +0.000 OA
ENDROOT
BRANCH   1   7
ATOM      2  C   UNL     1      48.517   6.349  15.226  0.00  0.00    +0.000 A 
ATOM      3  C   UNL     1      48.879   5.878  16.496  0.00  0.00    +0.000 A 
ATOM      4  C   UNL     1      48.376   4.667  17.002  0.00  0.00    +0.000 A 
ATOM      5  C   UNL     1      47.496   3.920  16.219  0.00  0.00    +0.000 A 
ATOM      6  C   UNL     1      47.137   4.378  14.948  0.00  0.00    +0.000 A 
ATOM      7  C   UNL     1      47.637   5.586  14.438  0.00  0.00    +0.000 A 
BRANCH   4   8
ATOM      8  C   UNL     1      48.814   4.260  18.369  0.00  0.00    +0.000 C 
ATOM      9  N   UNL     1      48.200   3.198  18.969  0.00  0.00    +0.000 N 
ATOM     10  O   UNL     1      49.705   4.860  18.958  0.00  0.00    +0.000 OA
ATOM     11  H   UNL     1      47.443   2.660  18.579  0.00  0.00    +0.000 HD
ATOM     12  H   UNL     1      48.515   2.963  19.902  0.00  0.00    +0.000 HD
ENDBRANCH   4   8
BRANCH   2  14
ATOM     13  C   UNL     1      48.186   8.717  15.090  0.00  0.00    +0.000 C 
ATOM     14  O   UNL     1      48.938   7.560  14.747  0.00  0.00    +0.000 OA
ENDBRANCH   2  14
ENDBRANCH   1   7
BRANCH   1  15
ATOM     15  C   UNL     1      45.871   6.444  13.054  0.00  0.00    +0.000 C 
BRANCH  15  16
ATOM     16  C   UNL     1      44.980   5.578  12.190  0.00  0.00    +0.000 A 
ATOM     17  N   UNL     1      43.669   5.531  12.500  0.00  0.00    +0.000 NA
ATOM     18  C   UNL     1      42.893   4.789  11.697  0.00  0.00    +0.000 A 
ATOM     19  C   UNL     1      43.367   4.105  10.604  0.00  0.00    +0.000 A 
ATOM     20  C   UNL     1      44.722   4.209  10.344  0.00  0.00    +0.000 A 
ATOM     21  N   UNL     1      45.537   4.938  11.138  0.00  0.00    +0.000 NA
BRANCH  20  22
ATOM     22  C   UNL     1      45.370   3.537   9.197  0.00  0.00    +0.000 A 
ATOM     23  C   UNL     1      45.921   4.285   8.136  0.00  0.00    +0.000 A 
ATOM     24  C   UNL     1      46.554   3.667   7.051  0.00  0.00    +0.000 A 
ATOM     25  C   UNL     1      46.646   2.280   6.999  0.00  0.00    +0.000 A 
ATOM     26  C   UNL     1      46.096   1.529   8.027  0.00  0.00    +0.000 A 
ATOM     27  F   UNL     1      46.173   0.192   7.981  0.00  0.00    +0.000 F 
ATOM     28  C   UNL     1      45.464   2.137   9.109  0.00  0.00    +0.000 A 
ENDBRANCH  20  22
ENDBRANCH  15  16
ENDBRANCH   1  15
TORSDOF 6
ENDMDL
MODEL 4
REMARK VINA RESULT:    -7.236      3.534      6.866
REMARK INTER + INTRA:         -10.958
REMARK INTER:                 -10.049
REMARK INTRA:                  -0.910
REMARK UNBOUND:                -1.184
REMARK  Name = 
REMARK  7 active torsions:
REMARK  status: ('A' for Active; 'I' for Inactive)
REMARK    1  A    between atoms: C_1  and  O_2
REMARK    2  A    between atoms: O_2  and  C_3
REMARK    3  A    between atoms: C_5  and  C_6
REMARK    4  A    between atoms: C_11  and  O_12
REMARK    5  A    between atoms: O_12  and  C_13
REMARK    6  A    between atoms: C_13  and  C_14
REMARK    7  A    between atoms: C_18  and  C_19
REMARK                            x       y       z     vdW  Elec       q    Type
REMARK                         _______ _______ _______ _____ _____    ______ ____
ROOT
ATOM      1  O   UNL     1      43.451   4.027  10.419  0.00  0.00    +0.000 OA
ENDROOT
BRANCH   1   7
ATOM      2  C   UNL     1      45.316   4.140   8.755  0.00  0.00    +0.000 A 
ATOM      3  C   UNL     1      46.173   3.379   7.947  0.00  0.00    +0.000 A 
ATOM      4  C   UNL     1      46.124   1.974   7.941  0.00  0.00    +0.000 A 
ATOM      5  C   UNL     1      45.198   1.327   8.759  0.00  0.00    +0.000 A 
ATOM      6  C   UNL     1      44.334   2.078   9.561  0.00  0.00    +0.000 A 
ATOM      7  C   UNL     1      44.379   3.480   9.570  0.00  0.00    +0.000 A 
BRANCH   4   8
ATOM      8  C   UNL     1      47.086   1.257   7.055  0.00  0.00    +0.000 C 
ATOM      9  N   UNL     1      48.121   1.957   6.503  0.00  0.00    +0.000 N 
ATOM     10  O   UNL     1      46.963   0.062   6.814  0.00  0.00    +0.000 OA
ATOM     11  H   UNL     1      48.292   2.943   6.619  0.00  0.00    +0.000 HD
ATOM     12  H   UNL     1      48.743   1.438   5.895  0.00  0.00    +0.000 HD
ENDBRANCH   4   8
BRANCH   2  14
ATOM     13  C   UNL     1      46.592   6.076   9.353  0.00  0.00    +0.000 C 
ATOM     14  O   UNL     1      45.400   5.504   8.830  0.00  0.00    +0.000 OA
ENDBRANCH   2  14
ENDBRANCH   1   7
BRANCH   1  15
ATOM     15  C   UNL     1      43.503   3.662  11.800  0.00  0.00    +0.000 C 
BRANCH  15  16
ATOM     16  C   UNL     1      44.745   4.232  12.449  0.00  0.00    +0.000 A 
ATOM     17  N   UNL     1      45.540   3.381  13.128  0.00  0.00    +0.000 NA
ATOM     18  C   UNL     1      46.655   3.901  13.660  0.00  0.00    +0.000 A 
ATOM     19  C   UNL     1      47.009   5.223  13.535  0.00  0.00    +0.000 A 
ATOM     20  C   UNL     1      46.150   6.033  12.816  0.00  0.00    +0.000 A 
ATOM     21  N   UNL     1      45.010   5.547  12.276  0.00  0.00    +0.000 NA
BRANCH  20  22
ATOM     22  C   UNL     1      46.406   7.472  12.592  0.00  0.00    +0.000 A 
ATOM     23  C   UNL     1      47.724   7.967  12.497  0.00  0.00    +0.000 A 
ATOM     24  C   UNL     1      47.986   9.323  12.267  0.00  0.00    +0.000 A 
ATOM     25  C   UNL     1      46.932  10.220  12.133  0.00  0.00    +0.000 A 
ATOM     26  C   UNL     1      45.630   9.753  12.239  0.00  0.00    +0.000 A 
ATOM     27  F   UNL     1      44.610  10.613  12.119  0.00  0.00    +0.000 F 
ATOM     28  C   UNL     1      45.362   8.406  12.468  0.00  0.00    +0.000 A 
ENDBRANCH  20  22
ENDBRANCH  15  16
ENDBRANCH   1  15
TORSDOF 6
ENDMDL
MODEL 5
REMARK VINA RESULT:    -7.108      2.064      2.236
REMARK INTER + INTRA:         -10.786
REMARK INTER:                  -9.880
REMARK INTRA:                  -0.906
REMARK UNBOUND:                -1.184
REMARK  Name = 
REMARK  7 active torsions:
REMARK  status: ('A' for Active; 'I' for Inactive)
REMARK    1  A    between atoms: C_1  and  O_2
REMARK    2  A    between atoms: O_2  and  C_3
REMARK    3  A    between atoms: C_5  and  C_6
REMARK    4  A    between atoms: C_11  and  O_12
REMARK    5  A    between atoms: O_12  and  C_13
REMARK    6  A    between atoms: C_13  and  C_14
REMARK    7  A    between atoms: C_18  and  C_19
REMARK                            x       y       z     vdW  Elec       q    Type
REMARK                         _______ _______ _______ _____ _____    ______ ____
ROOT
ATOM      1  O   UNL     1      46.581   7.247  12.067  0.00  0.00    +0.000 OA
ENDROOT
BRANCH   1   7
ATOM      2  C   UNL     1      47.925   6.351  13.978  0.00  0.00    +0.000 A 
ATOM      3  C   UNL     1      48.606   6.695  15.155  0.00  0.00    +0.000 A 
ATOM      4  C   UNL     1      48.684   8.026  15.598  0.00  0.00    +0.000 A 
ATOM      5  C   UNL     1      48.068   9.026  14.846  0.00  0.00    +0.000 A 
ATOM      6  C   UNL     1      47.381   8.692  13.676  0.00  0.00    +0.000 A 
ATOM      7  C   UNL     1      47.299   7.364  13.230  0.00  0.00    +0.000 A 
BRANCH   4   8
ATOM      8  C   UNL     1      49.441   8.287  16.857  0.00  0.00    +0.000 C 
ATOM      9  N   UNL     1      50.085   9.482  17.003  0.00  0.00    +0.000 N 
ATOM     10  O   UNL     1      49.495   7.453  17.753  0.00  0.00    +0.000 OA
ATOM     11  H   UNL     1      50.122  10.218  16.316  0.00  0.00    +0.000 HD
ATOM     12  H   UNL     1      50.601   9.615  17.864  0.00  0.00    +0.000 HD
ENDBRANCH   4   8
BRANCH   2  14
ATOM     13  C   UNL     1      46.856   4.209  13.921  0.00  0.00    +0.000 C 
ATOM     14  O   UNL     1      47.901   5.072  13.493  0.00  0.00    +0.000 OA
ENDBRANCH   2  14
ENDBRANCH   1   7
BRANCH   1  15
ATOM     15  C   UNL     1      45.154   7.265  12.152  0.00  0.00    +0.000 C 
BRANCH  15  16
ATOM     16  C   UNL     1      44.581   5.948  11.676  0.00  0.00    +0.000 A 
ATOM     17  N   UNL     1      43.440   5.520  12.252  0.00  0.00    +0.000 NA
ATOM     18  C   UNL     1      42.930   4.372  11.786  0.00  0.00    +0.000 A 
ATOM     19  C   UNL     1      43.504   3.643  10.773  0.00  0.00    +0.000 A 
ATOM     20  C   UNL     1      44.669   4.149  10.224  0.00  0.00    +0.000 A 
ATOM     21  N   UNL     1      45.218   5.299  10.676  0.00  0.00    +0.000 NA
BRANCH  20  22
ATOM     22  C   UNL     1      45.391   3.479   9.121  0.00  0.00    +0.000 A 
ATOM     23  C   UNL     1      45.961   4.227   8.069  0.00  0.00    +0.000 A 
ATOM     24  C   UNL     1      46.663   3.611   7.026  0.00  0.00    +0.000 A 
ATOM     25  C   UNL     1      46.806   2.228   7.007  0.00  0.00    +0.000 A 
ATOM     26  C   UNL     1      46.238   1.477   8.025  0.00  0.00    +0.000 A 
ATOM     27  F   UNL     1      46.365   0.143   8.010  0.00  0.00    +0.000 F 
ATOM     28  C   UNL     1      45.538   2.082   9.066  0.00  0.00    +0.000 A 
ENDBRANCH  20  22
ENDBRANCH  15  16
ENDBRANCH   1  15
TORSDOF 6
ENDMDL
MODEL 6
REMARK VINA RESULT:    -6.743      1.743      2.277
REMARK INTER + INTRA:         -10.292
REMARK INTER:                  -9.574
REMARK INTRA:                  -0.718
REMARK UNBOUND:                -1.184
REMARK  Name = 
REMARK  7 active torsions:
REMARK  status: ('A' for Active; 'I' for Inactive)
REMARK    1  A    between atoms: C_1  and  O_2
REMARK    2  A    between atoms: O_2  and  C_3
REMARK    3  A    between atoms: C_5  and  C_6
REMARK    4  A    between atoms: C_11  and  O_12
REMARK    5  A    between atoms: O_12  and  C_13
REMARK    6  A    between atoms: C_13  and  C_14
REMARK    7  A    between atoms: C_18  and  C_19
REMARK                            x       y       z     vdW  Elec       q    Type
REMARK                         _______ _______ _______ _____ _____    ______ ____
ROOT
ATOM      1  O   UNL     1      47.367   5.158  13.277  0.00  0.00    +0.000 OA
ENDROOT
BRANCH   1   7
ATOM      2  C   UNL     1      48.849   6.907  14.277  0.00  0.00    +0.000 A 
ATOM      3  C   UNL     1      49.467   8.146  14.052  0.00  0.00    +0.000 A 
ATOM      4  C   UNL     1      49.321   8.830  12.833  0.00  0.00    +0.000 A 
ATOM      5  C   UNL     1      48.542   8.258  11.826  0.00  0.00    +0.000 A 
ATOM      6  C   UNL     1      47.917   7.028  12.045  0.00  0.00    +0.000 A 
ATOM      7  C   UNL     1      48.059   6.342  13.261  0.00  0.00    +0.000 A 
BRANCH   4   8
ATOM      8  C   UNL     1      50.028  10.136  12.689  0.00  0.00    +0.000 C 
ATOM      9  N   UNL     1      51.393  10.148  12.666  0.00  0.00    +0.000 N 
ATOM     10  O   UNL     1      49.408  11.189  12.595  0.00  0.00    +0.000 OA
ATOM     11  H   UNL     1      51.989   9.342  12.763  0.00  0.00    +0.000 HD
ATOM     12  H   UNL     1      51.835  11.055  12.584  0.00  0.00    +0.000 HD
ENDBRANCH   4   8
BRANCH   2  14
ATOM     13  C   UNL     1      49.945   6.708  16.397  0.00  0.00    +0.000 C 
ATOM     14  O   UNL     1      49.041   6.193  15.429  0.00  0.00    +0.000 OA
ENDBRANCH   2  14
ENDBRANCH   1   7
BRANCH   1  15
ATOM     15  C   UNL     1      45.998   5.183  13.689  0.00  0.00    +0.000 C 
BRANCH  15  16
ATOM     16  C   UNL     1      45.088   4.916  12.511  0.00  0.00    +0.000 A 
ATOM     17  N   UNL     1      43.811   5.337  12.602  0.00  0.00    +0.000 NA
ATOM     18  C   UNL     1      43.034   5.126  11.530  0.00  0.00    +0.000 A 
ATOM     19  C   UNL     1      43.479   4.523  10.379  0.00  0.00    +0.000 A 
ATOM     20  C   UNL     1      44.804   4.126  10.355  0.00  0.00    +0.000 A 
ATOM     21  N   UNL     1      45.614   4.312  11.422  0.00  0.00    +0.000 NA
BRANCH  20  22
ATOM     22  C   UNL     1      45.424   3.475   9.181  0.00  0.00    +0.000 A 
ATOM     23  C   UNL     1      45.864   4.236   8.078  0.00  0.00    +0.000 A 
ATOM     24  C   UNL     1      46.468   3.638   6.965  0.00  0.00    +0.000 A 
ATOM     25  C   UNL     1      46.641   2.259   6.928  0.00  0.00    +0.000 A 
ATOM     26  C   UNL     1      46.200   1.493   7.997  0.00  0.00    +0.000 A 
ATOM     27  F   UNL     1      46.355   0.163   7.964  0.00  0.00    +0.000 F 
ATOM     28  C   UNL     1      45.597   2.081   9.107  0.00  0.00    +0.000 A 
ENDBRANCH  20  22
ENDBRANCH  15  16
ENDBRANCH   1  15
TORSDOF 6
ENDMDL
MODEL 7
REMARK VINA RESULT:    -6.557      5.166      8.368
REMARK INTER + INTRA:         -10.041
REMARK INTER:                  -9.454
REMARK INTRA:                  -0.587
REMARK UNBOUND:                -1.184
REMARK  Name = 
REMARK  7 active torsions:
REMARK  status: ('A' for Active; 'I' for Inactive)
REMARK    1  A    between atoms: C_1  and  O_2
REMARK    2  A    between atoms: O_2  and  C_3
REMARK    3  A    between atoms: C_5  and  C_6
REMARK    4  A    between atoms: C_11  and  O_12
REMARK    5  A    between atoms: O_12  and  C_13
REMARK    6  A    between atoms: C_13  and  C_14
REMARK    7  A    between atoms: C_18  and  C_19
REMARK                            x       y       z     vdW  Elec       q    Type
REMARK                         _______ _______ _______ _____ _____    ______ ____
ROOT
ATOM      1  O   UNL     1      48.230   5.918  14.110  0.00  0.00    +0.000 OA
ENDROOT
BRANCH   1   7
ATOM      2  C   UNL     1      46.109   6.776  13.099  0.00  0.00    +0.000 A 
ATOM      3  C   UNL     1      44.872   6.404  12.552  0.00  0.00    +0.000 A 
ATOM      4  C   UNL     1      44.498   5.055  12.429  0.00  0.00    +0.000 A 
ATOM      5  C   UNL     1      45.382   4.067  12.862  0.00  0.00    +0.000 A 
ATOM      6  C   UNL     1      46.613   4.429  13.416  0.00  0.00    +0.000 A 
ATOM      7  C   UNL     1      46.990   5.775  13.542  0.00  0.00    +0.000 A 
BRANCH   4   8
ATOM      8  C   UNL     1      43.166   4.765  11.824  0.00  0.00    +0.000 C 
ATOM      9  N   UNL     1      42.219   5.748  11.810  0.00  0.00    +0.000 N 
ATOM     10  O   UNL     1      42.909   3.666  11.345  0.00  0.00    +0.000 OA
ATOM     11  H   UNL     1      42.325   6.671  12.201  0.00  0.00    +0.000 HD
ATOM     12  H   UNL     1      41.323   5.507  11.405  0.00  0.00    +0.000 HD
ENDBRANCH   4   8
BRANCH   2  14
ATOM     13  C   UNL     1      45.660   9.082  12.630  0.00  0.00    +0.000 C 
ATOM     14  O   UNL     1      46.520   8.080  13.158  0.00  0.00    +0.000 OA
ENDBRANCH   2  14
ENDBRANCH   1   7
BRANCH   1  15
ATOM     15  C   UNL     1      48.301   6.319  15.480  0.00  0.00    +0.000 C 
BRANCH  15  16
ATOM     16  C   UNL     1      48.368   5.106  16.381  0.00  0.00    +0.000 A 
ATOM     17  N   UNL     1      47.204   4.612  16.849  0.00  0.00    +0.000 NA
ATOM     18  C   UNL     1      47.285   3.514  17.612  0.00  0.00    +0.000 A 
ATOM     19  C   UNL     1      48.470   2.889  17.918  0.00  0.00    +0.000 A 
ATOM     20  C   UNL     1      49.622   3.447  17.395  0.00  0.00    +0.000 A 
ATOM     21  N   UNL     1      49.580   4.562  16.631  0.00  0.00    +0.000 NA
BRANCH  20  22
ATOM     22  C   UNL     1      50.966   2.879  17.632  0.00  0.00    +0.000 A 
ATOM     23  C   UNL     1      51.235   1.519  17.365  0.00  0.00    +0.000 A 
ATOM     24  C   UNL     1      52.506   0.967  17.567  0.00  0.00    +0.000 A 
ATOM     25  C   UNL     1      53.540   1.764  18.049  0.00  0.00    +0.000 A 
ATOM     26  C   UNL     1      53.288   3.099  18.331  0.00  0.00    +0.000 A 
ATOM     27  F   UNL     1      54.277   3.870  18.802  0.00  0.00    +0.000 F 
ATOM     28  C   UNL     1      52.027   3.654  18.133  0.00  0.00    +0.000 A 
ENDBRANCH  20  22
ENDBRANCH  15  16
ENDBRANCH   1  15
TORSDOF 6
ENDMDL
MODEL 8
REMARK VINA RESULT:    -6.548      5.112      8.383
REMARK INTER + INTRA:         -10.028
REMARK INTER:                  -9.011
REMARK INTRA:                  -1.017
REMARK UNBOUND:                -1.184
REMARK  Name = 
REMARK  7 active torsions:
REMARK  status: ('A' for Active; 'I' for Inactive)
REMARK    1  A    between atoms: C_1  and  O_2
REMARK    2  A    between atoms: O_2  and  C_3
REMARK    3  A    between atoms: C_5  and  C_6
REMARK    4  A    between atoms: C_11  and  O_12
REMARK    5  A    between atoms: O_12  and  C_13
REMARK    6  A    between atoms: C_13  and  C_14
REMARK    7  A    between atoms: C_18  and  C_19
REMARK                            x       y       z     vdW  Elec       q    Type
REMARK                         _______ _______ _______ _____ _____    ______ ____
ROOT
ATOM      1  O   UNL     1      48.950   6.283  14.199  0.00  0.00    +0.000 OA
ENDROOT
BRANCH   1   7
ATOM      2  C   UNL     1      46.924   4.825  14.017  0.00  0.00    +0.000 A 
ATOM      3  C   UNL     1      45.612   4.749  13.527  0.00  0.00    +0.000 A 
ATOM      4  C   UNL     1      45.018   5.826  12.848  0.00  0.00    +0.000 A 
ATOM      5  C   UNL     1      45.753   6.996  12.659  0.00  0.00    +0.000 A 
ATOM      6  C   UNL     1      47.064   7.077  13.136  0.00  0.00    +0.000 A 
ATOM      7  C   UNL     1      47.663   6.004  13.815  0.00  0.00    +0.000 A 
BRANCH   4   8
ATOM      8  C   UNL     1      43.614   5.648  12.376  0.00  0.00    +0.000 C 
ATOM      9  N   UNL     1      43.307   5.968  11.084  0.00  0.00    +0.000 N 
ATOM     10  O   UNL     1      42.738   5.226  13.122  0.00  0.00    +0.000 OA
ATOM     11  H   UNL     1      43.947   6.345  10.404  0.00  0.00    +0.000 HD
ATOM     12  H   UNL     1      42.340   5.849  10.807  0.00  0.00    +0.000 HD
ENDBRANCH   4   8
BRANCH   2  14
ATOM     13  C   UNL     1      47.114   3.673  16.108  0.00  0.00    +0.000 C 
ATOM     14  O   UNL     1      47.493   3.816  14.745  0.00  0.00    +0.000 OA
ENDBRANCH   2  14
ENDBRANCH   1   7
BRANCH   1  15
ATOM     15  C   UNL     1      49.148   7.189  15.286  0.00  0.00    +0.000 C 
BRANCH  15  16
ATOM     16  C   UNL     1      49.274   6.430  16.589  0.00  0.00    +0.000 A 
ATOM     17  N   UNL     1      48.485   6.812  17.612  0.00  0.00    +0.000 NA
ATOM     18  C   UNL     1      48.585   6.099  18.743  0.00  0.00    +0.000 A 
ATOM     19  C   UNL     1      49.429   5.025  18.889  0.00  0.00    +0.000 A 
ATOM     20  C   UNL     1      50.201   4.686  17.793  0.00  0.00    +0.000 A 
ATOM     21  N   UNL     1      50.135   5.389  16.640  0.00  0.00    +0.000 NA
BRANCH  20  22
ATOM     22  C   UNL     1      51.146   3.548  17.801  0.00  0.00    +0.000 A 
ATOM     23  C   UNL     1      50.728   2.257  17.416  0.00  0.00    +0.000 A 
ATOM     24  C   UNL     1      51.613   1.171  17.401  0.00  0.00    +0.000 A 
ATOM     25  C   UNL     1      52.939   1.352  17.778  0.00  0.00    +0.000 A 
ATOM     26  C   UNL     1      53.363   2.612  18.173  0.00  0.00    +0.000 A 
ATOM     27  F   UNL     1      54.638   2.793  18.545  0.00  0.00    +0.000 F 
ATOM     28  C   UNL     1      52.489   3.696  18.191  0.00  0.00    +0.000 A 
ENDBRANCH  20  22
ENDBRANCH  15  16
ENDBRANCH   1  15
TORSDOF 6
ENDMDL
MODEL 9
REMARK VINA RESULT:    -6.382      3.888      5.202
REMARK INTER + INTRA:          -9.804
REMARK INTER:                  -9.036
REMARK INTRA:                  -0.768
REMARK UNBOUND:                -1.184
REMARK  Name = 
REMARK  7 active torsions:
REMARK  status: ('A' for Active; 'I' for Inactive)
REMARK    1  A    between atoms: C_1  and  O_2
REMARK    2  A    between atoms: O_2  and  C_3
REMARK    3  A    between atoms: C_5  and  C_6
REMARK    4  A    between atoms: C_11  and  O_12
REMARK    5  A    between atoms: O_12  and  C_13
REMARK    6  A    between atoms: C_13  and  C_14
REMARK    7  A    between atoms: C_18  and  C_19
REMARK                            x       y       z     vdW  Elec       q    Type
REMARK                         _______ _______ _______ _____ _____    ______ ____
ROOT
ATOM      1  O   UNL     1      48.803   6.071  14.453  0.00  0.00    +0.000 OA
ENDROOT
BRANCH   1   7
ATOM      2  C   UNL     1      48.185   4.899  16.575  0.00  0.00    +0.000 A 
ATOM      3  C   UNL     1      47.999   5.059  17.956  0.00  0.00    +0.000 A 
ATOM      4  C   UNL     1      48.203   6.298  18.587  0.00  0.00    +0.000 A 
ATOM      5  C   UNL     1      48.601   7.391  17.817  0.00  0.00    +0.000 A 
ATOM      6  C   UNL     1      48.781   7.242  16.440  0.00  0.00    +0.000 A 
ATOM      7  C   UNL     1      48.577   6.007  15.805  0.00  0.00    +0.000 A 
BRANCH   4   8
ATOM      8  C   UNL     1      47.989   6.360  20.062  0.00  0.00    +0.000 C 
ATOM      9  N   UNL     1      47.023   5.574  20.622  0.00  0.00    +0.000 N 
ATOM     10  O   UNL     1      48.658   7.102  20.773  0.00  0.00    +0.000 OA
ATOM     11  H   UNL     1      46.406   4.955  20.121  0.00  0.00    +0.000 HD
ATOM     12  H   UNL     1      46.898   5.658  21.624  0.00  0.00    +0.000 HD
ENDBRANCH   4   8
BRANCH   2  14
ATOM     13  C   UNL     1      48.403   2.517  16.693  0.00  0.00    +0.000 C 
ATOM     14  O   UNL     1      48.063   3.684  15.956  0.00  0.00    +0.000 OA
ENDBRANCH   2  14
ENDBRANCH   1   7
BRANCH   1  15
ATOM     15  C   UNL     1      48.667   7.339  13.807  0.00  0.00    +0.000 C 
BRANCH  15  16
ATOM     16  C   UNL     1      47.323   7.436  13.116  0.00  0.00    +0.000 A 
ATOM     17  N   UNL     1      46.606   8.562  13.305  0.00  0.00    +0.000 NA
ATOM     18  C   UNL     1      45.439   8.642  12.651  0.00  0.00    +0.000 A 
ATOM     19  C   UNL     1      44.966   7.656  11.819  0.00  0.00    +0.000 A 
ATOM     20  C   UNL     1      45.762   6.535  11.668  0.00  0.00    +0.000 A 
ATOM     21  N   UNL     1      46.940   6.413  12.320  0.00  0.00    +0.000 NA
BRANCH  20  22
ATOM     22  C   UNL     1      45.387   5.399  10.798  0.00  0.00    +0.000 A 
ATOM     23  C   UNL     1      45.836   5.331   9.462  0.00  0.00    +0.000 A 
ATOM     24  C   UNL     1      45.505   4.255   8.629  0.00  0.00    +0.000 A 
ATOM     25  C   UNL     1      44.710   3.222   9.112  0.00  0.00    +0.000 A 
ATOM     26  C   UNL     1      44.247   3.281  10.419  0.00  0.00    +0.000 A 
ATOM     27  F   UNL     1      43.473   2.294  10.889  0.00  0.00    +0.000 F 
ATOM     28  C   UNL     1      44.571   4.348  11.253  0.00  0.00    +0.000 A 
ENDBRANCH  20  22
ENDBRANCH  15  16
ENDBRANCH   1  15
TORSDOF 6
ENDMDL
