MODEL 1
REMARK VINA RESULT:    -6.880      0.000      0.000
REMARK INTER + INTRA:          -8.188
REMARK INTER:                  -7.684
REMARK INTRA:                  -0.504
REMARK UNBOUND:                -0.504
REMARK  Name = 
REMARK  2 active torsions:
REMARK  status: ('A' for Active; 'I' for Inactive)
REMARK    1  A    between atoms: C_7  and  C_8
REMARK    2  A    between atoms: C_8  and  N_9
REMARK                            x       y       z     vdW  Elec       q    Type
REMARK                         _______ _______ _______ _____ _____    ______ ____
ROOT
ATOM      1  N   UNL     1      50.207   7.340  12.230  0.00  0.00    +0.000 NA
ATOM      2  C   UNL     1      49.242   8.054  12.685  0.00  0.00    +0.000 C 
ATOM      3  N   UNL     1      49.453   9.238  13.302  0.00  0.00    +0.000 N 
ATOM      4  N   UNL     1      47.928   7.691  12.671  0.00  0.00    +0.000 N 
ATOM      5  C   UNL     1      46.929   8.599  12.096  0.00  0.00    +0.000 C 
ATOM      6  C   UNL     1      45.638   8.442  12.894  0.00  0.00    +0.000 C 
ATOM      7  C   UNL     1      45.110   6.996  12.846  0.00  0.00    +0.000 C 
ATOM      8  C   UNL     1      46.242   6.030  13.268  0.00  0.00    +0.000 C 
ATOM      9  C   UNL     1      47.567   6.278  12.531  0.00  0.00    +0.000 C 
ATOM     10  H   UNL     1      51.084   7.853  12.348  0.00  0.00    +0.000 HD
ATOM     11  H   UNL     1      50.390   9.369  13.657  0.00  0.00    +0.000 HD
ATOM     12  H   UNL     1      48.764   9.399  14.031  0.00  0.00    +0.000 HD
ENDROOT
BRANCH   7  13
ATOM     13  C   UNL     1      44.534   6.588  11.476  0.00  0.00    +0.000 C 
BRANCH  13  14
ATOM     14  N   UNL     1      44.302   5.158  11.305  0.00  0.00    +0.000 N 
ATOM     15  C   UNL     1      43.463   4.424  12.107  0.00  0.00    +0.000 A 
ATOM     16  C   UNL     1      43.354   3.162  11.574  0.00  0.00    +0.000 A 
ATOM     17  C   UNL     1      44.128   3.129  10.384  0.00  0.00    +0.000 A 
ATOM     18  C   UNL     1      44.344   2.145   9.400  0.00  0.00    +0.000 A 
ATOM     19  C   UNL     1      45.168   2.433   8.308  0.00  0.00    +0.000 A 
ATOM     20  C   UNL     1      45.794   3.671   8.212  0.00  0.00    +0.000 A 
ATOM     21 CL   UNL     1      46.808   3.999   6.856  0.00  0.00    +0.000 Cl
ATOM     22  C   UNL     1      45.608   4.664   9.180  0.00  0.00    +0.000 A 
ATOM     23  C   UNL     1      44.746   4.380  10.252  0.00  0.00    +0.000 A 
ENDBRANCH  13  14
ENDBRANCH   7  13
TORSDOF 2
ENDMDL
MODEL 2
REMARK VINA RESULT:    -6.600      3.080      6.125
REMARK INTER + INTRA:          -7.876
REMARK INTER:                  -7.298
REMARK INTRA:                  -0.578
REMARK UNBOUND:                -0.504
REMARK  Name = 
REMARK  2 active torsions:
REMARK  status: ('A' for Active; 'I' for Inactive)
REMARK    1  A    between atoms: C_7  and  C_8
REMARK    2  A    between atoms: C_8  and  N_9
REMARK                            x       y       z     vdW  Elec       q    Type
REMARK                         _______ _______ _______ _____ _____    ______ ____
ROOT
ATOM      1  N   UNL     1      48.425   2.870   6.454  0.00  0.00    +0.000 NA
ATOM      2  C   UNL     1      47.409   2.154   6.774  0.00  0.00    +0.000 C 
ATOM      3  N   UNL     1      47.173   0.948   6.212  0.00  0.00    +0.000 N 
ATOM      4  N   UNL     1      46.428   2.534   7.643  0.00  0.00    +0.000 N 
ATOM      5  C   UNL     1      46.070   1.658   8.764  0.00  0.00    +0.000 C 
ATOM      6  C   UNL     1      44.573   1.806   9.015  0.00  0.00    +0.000 C 
ATOM      7  C   UNL     1      44.191   3.259   9.352  0.00  0.00    +0.000 C 
ATOM      8  C   UNL     1      44.749   4.196   8.256  0.00  0.00    +0.000 C 
ATOM      9  C   UNL     1      46.233   3.955   7.940  0.00  0.00    +0.000 C 
ATOM     10  H   UNL     1      49.010   2.342   5.802  0.00  0.00    +0.000 HD
ATOM     11  H   UNL     1      47.643   0.793   5.330  0.00  0.00    +0.000 HD
ATOM     12  H   UNL     1      46.176   0.772   6.126  0.00  0.00    +0.000 HD
ENDROOT
BRANCH   7  13
ATOM     13  C   UNL     1      44.660   3.719  10.746  0.00  0.00    +0.000 C 
BRANCH  13  14
ATOM     14  N   UNL     1      44.392   5.118  11.058  0.00  0.00    +0.000 N 
ATOM     15  C   UNL     1      43.130   5.659  11.096  0.00  0.00    +0.000 A 
ATOM     16  C   UNL     1      43.227   6.943  11.574  0.00  0.00    +0.000 A 
ATOM     17  C   UNL     1      44.593   7.190  11.870  0.00  0.00    +0.000 A 
ATOM     18  C   UNL     1      45.276   8.286  12.433  0.00  0.00    +0.000 A 
ATOM     19  C   UNL     1      46.660   8.213  12.619  0.00  0.00    +0.000 A 
ATOM     20  C   UNL     1      47.359   7.079  12.222  0.00  0.00    +0.000 A 
ATOM     21 CL   UNL     1      49.066   7.016  12.460  0.00  0.00    +0.000 Cl
ATOM     22  C   UNL     1      46.710   5.979  11.649  0.00  0.00    +0.000 A 
ATOM     23  C   UNL     1      45.314   6.046  11.504  0.00  0.00    +0.000 A 
ENDBRANCH  13  14
ENDBRANCH   7  13
TORSDOF 2
ENDMDL
MODEL 3
REMARK VINA RESULT:    -6.201      1.421      2.046
REMARK INTER + INTRA:          -7.430
REMARK INTER:                  -7.000
REMARK INTRA:                  -0.431
REMARK UNBOUND:                -0.504
REMARK  Name = 
REMARK  2 active torsions:
REMARK  status: ('A' for Active; 'I' for Inactive)
REMARK    1  A    between atoms: C_7  and  C_8
REMARK    2  A    between atoms: C_8  and  N_9
REMARK                            x       y       z     vdW  Elec       q    Type
REMARK                         _______ _______ _______ _____ _____    ______ ____
ROOT
ATOM      1  N   UNL     1      48.128   8.808  16.238  0.00  0.00    +0.000 NA
ATOM      2  C   UNL     1      48.466   7.870  15.430  0.00  0.00    +0.000 C 
ATOM      3  N   UNL     1      49.558   7.100  15.638  0.00  0.00    +0.000 N 
ATOM      4  N   UNL     1      47.833   7.583  14.257  0.00  0.00    +0.000 N 
ATOM      5  C   UNL     1      47.385   6.212  13.989  0.00  0.00    +0.000 C 
ATOM      6  C   UNL     1      47.523   5.957  12.491  0.00  0.00    +0.000 C 
ATOM      7  C   UNL     1      46.681   6.946  11.664  0.00  0.00    +0.000 C 
ATOM      8  C   UNL     1      47.024   8.390  12.100  0.00  0.00    +0.000 C 
ATOM      9  C   UNL     1      46.988   8.596  13.621  0.00  0.00    +0.000 C 
ATOM     10  H   UNL     1      48.756   8.793  17.045  0.00  0.00    +0.000 HD
ATOM     11  H   UNL     1      50.243   7.499  16.266  0.00  0.00    +0.000 HD
ATOM     12  H   UNL     1      49.988   6.829  14.759  0.00  0.00    +0.000 HD
ENDROOT
BRANCH   7  13
ATOM     13  C   UNL     1      45.162   6.701  11.756  0.00  0.00    +0.000 C 
BRANCH  13  14
ATOM     14  N   UNL     1      44.753   5.306  11.639  0.00  0.00    +0.000 N 
ATOM     15  C   UNL     1      43.975   4.663  12.570  0.00  0.00    +0.000 A 
ATOM     16  C   UNL     1      43.649   3.423  12.076  0.00  0.00    +0.000 A 
ATOM     17  C   UNL     1      44.220   3.313  10.781  0.00  0.00    +0.000 A 
ATOM     18  C   UNL     1      44.173   2.316   9.787  0.00  0.00    +0.000 A 
ATOM     19  C   UNL     1      44.843   2.518   8.577  0.00  0.00    +0.000 A 
ATOM     20  C   UNL     1      45.577   3.681   8.370  0.00  0.00    +0.000 A 
ATOM     21 CL   UNL     1      46.397   3.904   6.870  0.00  0.00    +0.000 Cl
ATOM     22  C   UNL     1      45.652   4.684   9.343  0.00  0.00    +0.000 A 
ATOM     23  C   UNL     1      44.941   4.489  10.540  0.00  0.00    +0.000 A 
ENDBRANCH  13  14
ENDBRANCH   7  13
TORSDOF 2
ENDMDL
MODEL 4
REMARK VINA RESULT:    -6.026      2.914      6.732
REMARK INTER + INTRA:          -7.235
REMARK INTER:                  -6.921
REMARK INTRA:                  -0.314
REMARK UNBOUND:                -0.504
REMARK  Name = 
REMARK  2 active torsions:
REMARK  status: ('A' for Active; 'I' for Inactive)
REMARK    1  A    between atoms: C_7  and  C_8
REMARK    2  A    between atoms: C_8  and  N_9
REMARK                            x       y       z     vdW  Elec       q    Type
REMARK                         _______ _______ _______ _____ _____    ______ ____
ROOT
ATOM      1  N   UNL     1      43.048   2.150  11.811  0.00  0.00    +0.000 NA
ATOM      2  C   UNL     1      43.905   2.790  11.100  0.00  0.00    +0.000 C 
ATOM      3  N   UNL     1      44.280   2.368   9.872  0.00  0.00    +0.000 N 
ATOM      4  N   UNL     1      44.581   3.902  11.507  0.00  0.00    +0.000 N 
ATOM      5  C   UNL     1      44.565   5.108  10.672  0.00  0.00    +0.000 C 
ATOM      6  C   UNL     1      45.917   5.799  10.819  0.00  0.00    +0.000 C 
ATOM      7  C   UNL     1      46.204   6.187  12.282  0.00  0.00    +0.000 C 
ATOM      8  C   UNL     1      46.023   4.942  13.180  0.00  0.00    +0.000 C 
ATOM      9  C   UNL     1      44.702   4.196  12.937  0.00  0.00    +0.000 C 
ATOM     10  H   UNL     1      42.680   1.369  11.262  0.00  0.00    +0.000 HD
ATOM     11  H   UNL     1      44.099   1.390   9.687  0.00  0.00    +0.000 HD
ATOM     12  H   UNL     1      45.252   2.596   9.687  0.00  0.00    +0.000 HD
ENDROOT
BRANCH   7  13
ATOM     13  C   UNL     1      45.340   7.355  12.797  0.00  0.00    +0.000 C 
BRANCH  13  14
ATOM     14  N   UNL     1      45.707   8.669  12.283  0.00  0.00    +0.000 N 
ATOM     15  C   UNL     1      44.798   9.569  11.783  0.00  0.00    +0.000 A 
ATOM     16  C   UNL     1      45.453  10.752  11.538  0.00  0.00    +0.000 A 
ATOM     17  C   UNL     1      46.807  10.583  11.931  0.00  0.00    +0.000 A 
ATOM     18  C   UNL     1      47.916  11.450  11.972  0.00  0.00    +0.000 A 
ATOM     19  C   UNL     1      49.144  10.976  12.442  0.00  0.00    +0.000 A 
ATOM     20  C   UNL     1      49.276   9.649  12.835  0.00  0.00    +0.000 A 
ATOM     21 CL   UNL     1      50.803   9.089  13.408  0.00  0.00    +0.000 Cl
ATOM     22  C   UNL     1      48.196   8.760  12.795  0.00  0.00    +0.000 A 
ATOM     23  C   UNL     1      46.956   9.258  12.360  0.00  0.00    +0.000 A 
ENDBRANCH  13  14
ENDBRANCH   7  13
TORSDOF 2
ENDMDL
MODEL 5
REMARK VINA RESULT:    -6.001      2.457      6.550
REMARK INTER + INTRA:          -7.207
REMARK INTER:                  -6.807
REMARK INTRA:                  -0.401
REMARK UNBOUND:                -0.504
REMARK  Name = 
REMARK  2 active torsions:
REMARK  status: ('A' for Active; 'I' for Inactive)
REMARK    1  A    between atoms: C_7  and  C_8
REMARK    2  A    between atoms: C_8  and  N_9
REMARK                            x       y       z     vdW  Elec       q    Type
REMARK                         _______ _______ _______ _____ _____    ______ ____
ROOT
ATOM      1  N   UNL     1      44.690   2.328   9.609  0.00  0.00    +0.000 NA
ATOM      2  C   UNL     1      44.313   2.774  10.752  0.00  0.00    +0.000 C 
ATOM      3  N   UNL     1      43.410   2.122  11.517  0.00  0.00    +0.000 N 
ATOM      4  N   UNL     1      44.706   3.962  11.295  0.00  0.00    +0.000 N 
ATOM      5  C   UNL     1      45.267   3.992  12.650  0.00  0.00    +0.000 C 
ATOM      6  C   UNL     1      44.839   5.300  13.306  0.00  0.00    +0.000 C 
ATOM      7  C   UNL     1      45.335   6.525  12.515  0.00  0.00    +0.000 C 
ATOM      8  C   UNL     1      44.902   6.382  11.038  0.00  0.00    +0.000 C 
ATOM      9  C   UNL     1      45.244   5.013  10.429  0.00  0.00    +0.000 C 
ATOM     10  H   UNL     1      44.262   1.411   9.454  0.00  0.00    +0.000 HD
ATOM     11  H   UNL     1      42.832   1.459  11.017  0.00  0.00    +0.000 HD
ATOM     12  H   UNL     1      42.838   2.774  12.046  0.00  0.00    +0.000 HD
ENDROOT
BRANCH   7  13
ATOM     13  C   UNL     1      46.855   6.756  12.613  0.00  0.00    +0.000 C 
BRANCH  13  14
ATOM     14  N   UNL     1      47.297   8.108  12.291  0.00  0.00    +0.000 N 
ATOM     15  C   UNL     1      46.553   9.232  12.551  0.00  0.00    +0.000 A 
ATOM     16  C   UNL     1      47.325  10.334  12.273  0.00  0.00    +0.000 A 
ATOM     17  C   UNL     1      48.601   9.871  11.857  0.00  0.00    +0.000 A 
ATOM     18  C   UNL     1      49.799  10.525  11.508  0.00  0.00    +0.000 A 
ATOM     19  C   UNL     1      50.919   9.767  11.152  0.00  0.00    +0.000 A 
ATOM     20  C   UNL     1      50.839   8.379  11.112  0.00  0.00    +0.000 A 
ATOM     21 CL   UNL     1      52.234   7.469  10.667  0.00  0.00    +0.000 Cl
ATOM     22  C   UNL     1      49.660   7.702  11.442  0.00  0.00    +0.000 A 
ATOM     23  C   UNL     1      48.552   8.471  11.838  0.00  0.00    +0.000 A 
ENDBRANCH  13  14
ENDBRANCH   7  13
TORSDOF 2
ENDMDL
MODEL 6
REMARK VINA RESULT:    -5.766      3.714      7.169
REMARK INTER + INTRA:          -6.944
REMARK INTER:                  -6.607
REMARK INTRA:                  -0.337
REMARK UNBOUND:                -0.504
REMARK  Name = 
REMARK  2 active torsions:
REMARK  status: ('A' for Active; 'I' for Inactive)
REMARK    1  A    between atoms: C_7  and  C_8
REMARK    2  A    between atoms: C_8  and  N_9
REMARK                            x       y       z     vdW  Elec       q    Type
REMARK                         _______ _______ _______ _____ _____    ______ ____
ROOT
ATOM      1  N   UNL     1      44.553   3.070   9.230  0.00  0.00    +0.000 NA
ATOM      2  C   UNL     1      44.334   3.227  10.485  0.00  0.00    +0.000 C 
ATOM      3  N   UNL     1      43.406   2.503  11.149  0.00  0.00    +0.000 N 
ATOM      4  N   UNL     1      44.938   4.163  11.272  0.00  0.00    +0.000 N 
ATOM      5  C   UNL     1      45.599   3.751  12.515  0.00  0.00    +0.000 C 
ATOM      6  C   UNL     1      45.420   4.870  13.535  0.00  0.00    +0.000 C 
ATOM      7  C   UNL     1      46.028   6.196  13.042  0.00  0.00    +0.000 C 
ATOM      8  C   UNL     1      45.468   6.518  11.637  0.00  0.00    +0.000 C 
ATOM      9  C   UNL     1      45.557   5.339  10.656  0.00  0.00    +0.000 C 
ATOM     10  H   UNL     1      43.985   2.290   8.889  0.00  0.00    +0.000 HD
ATOM     11  H   UNL     1      42.701   2.079  10.562  0.00  0.00    +0.000 HD
ATOM     12  H   UNL     1      42.978   3.049  11.891  0.00  0.00    +0.000 HD
ENDROOT
BRANCH   7  13
ATOM     13  C   UNL     1      47.569   6.205  13.024  0.00  0.00    +0.000 C 
BRANCH  13  14
ATOM     14  N   UNL     1      48.199   6.712  14.238  0.00  0.00    +0.000 N 
ATOM     15  C   UNL     1      48.701   7.985  14.358  0.00  0.00    +0.000 A 
ATOM     16  C   UNL     1      49.071   8.179  15.667  0.00  0.00    +0.000 A 
ATOM     17  C   UNL     1      48.757   6.994  16.383  0.00  0.00    +0.000 A 
ATOM     18  C   UNL     1      48.850   6.634  17.742  0.00  0.00    +0.000 A 
ATOM     19  C   UNL     1      48.430   5.364  18.148  0.00  0.00    +0.000 A 
ATOM     20  C   UNL     1      47.952   4.454  17.212  0.00  0.00    +0.000 A 
ATOM     21 CL   UNL     1      47.442   2.893  17.739  0.00  0.00    +0.000 Cl
ATOM     22  C   UNL     1      47.858   4.778  15.854  0.00  0.00    +0.000 A 
ATOM     23  C   UNL     1      48.245   6.071  15.462  0.00  0.00    +0.000 A 
ENDBRANCH  13  14
ENDBRANCH   7  13
TORSDOF 2
ENDMDL
MODEL 7
REMARK VINA RESULT:    -5.664      4.041      7.464
REMARK INTER + INTRA:          -6.830
REMARK INTER:                  -6.330
REMARK INTRA:                  -0.500
REMARK UNBOUND:                -0.504
REMARK  Name = 
REMARK  2 active torsions:
REMARK  status: ('A' for Active; 'I' for Inactive)
REMARK    1  A    between atoms: C_7  and  C_8
REMARK    2  A    between atoms: C_8  and  N_9
REMARK                            x       y       z     vdW  Elec       q    Type
REMARK                         _______ _______ _______ _____ _____    ______ ____
ROOT
ATOM      1  N   UNL     1      42.672   5.174  13.090  0.00  0.00    +0.000 NA
ATOM      2  C   UNL     1      43.480   5.723  12.257  0.00  0.00    +0.000 C 
ATOM      3  N   UNL     1      43.115   6.017  10.989  0.00  0.00    +0.000 N 
ATOM      4  N   UNL     1      44.789   6.008  12.511  0.00  0.00    +0.000 N 
ATOM      5  C   UNL     1      45.297   7.364  12.277  0.00  0.00    +0.000 C 
ATOM      6  C   UNL     1      46.744   7.249  11.807  0.00  0.00    +0.000 C 
ATOM      7  C   UNL     1      47.628   6.539  12.850  0.00  0.00    +0.000 C 
ATOM      8  C   UNL     1      46.973   5.192  13.235  0.00  0.00    +0.000 C 
ATOM      9  C   UNL     1      45.485   5.314  13.597  0.00  0.00    +0.000 C 
ATOM     10  H   UNL     1      41.751   5.091  12.653  0.00  0.00    +0.000 HD
ATOM     11  H   UNL     1      42.310   5.507  10.651  0.00  0.00    +0.000 HD
ATOM     12  H   UNL     1      43.899   5.919  10.350  0.00  0.00    +0.000 HD
ENDROOT
BRANCH   7  13
ATOM     13  C   UNL     1      47.907   7.383  14.109  0.00  0.00    +0.000 C 
BRANCH  13  14
ATOM     14  N   UNL     1      49.200   7.145  14.738  0.00  0.00    +0.000 N 
ATOM     15  C   UNL     1      50.336   7.853  14.430  0.00  0.00    +0.000 A 
ATOM     16  C   UNL     1      51.324   7.487  15.312  0.00  0.00    +0.000 A 
ATOM     17  C   UNL     1      50.766   6.544  16.215  0.00  0.00    +0.000 A 
ATOM     18  C   UNL     1      51.271   5.877  17.348  0.00  0.00    +0.000 A 
ATOM     19  C   UNL     1      50.444   4.999  18.056  0.00  0.00    +0.000 A 
ATOM     20  C   UNL     1      49.144   4.763  17.624  0.00  0.00    +0.000 A 
ATOM     21 CL   UNL     1      48.146   3.674  18.514  0.00  0.00    +0.000 Cl
ATOM     22  C   UNL     1      48.618   5.402  16.496  0.00  0.00    +0.000 A 
ATOM     23  C   UNL     1      49.443   6.314  15.816  0.00  0.00    +0.000 A 
ENDBRANCH  13  14
ENDBRANCH   7  13
TORSDOF 2
ENDMDL
MODEL 8
REMARK VINA RESULT:    -5.649      4.795      6.053
REMARK INTER + INTRA:          -6.814
REMARK INTER:                  -6.445
REMARK INTRA:                  -0.369
REMARK UNBOUND:                -0.504
REMARK  Name = 
REMARK  2 active torsions:
REMARK  status: ('A' for Active; 'I' for Inactive)
REMARK    1  A    between atoms: C_7  and  C_8
REMARK    2  A    between atoms: C_8  and  N_9
REMARK                            x       y       z     vdW  Elec       q    Type
REMARK                         _______ _______ _______ _____ _____    ______ ____
ROOT
ATOM      1  N   UNL     1      48.294   4.015  20.960  0.00  0.00    +0.000 NA
ATOM      2  C   UNL     1      49.227   4.404  20.169  0.00  0.00    +0.000 C 
ATOM      3  N   UNL     1      50.527   4.406  20.537  0.00  0.00    +0.000 N 
ATOM      4  N   UNL     1      49.029   4.920  18.922  0.00  0.00    +0.000 N 
ATOM      5  C   UNL     1      49.745   4.347  17.777  0.00  0.00    +0.000 C 
ATOM      6  C   UNL     1      50.047   5.478  16.799  0.00  0.00    +0.000 C 
ATOM      7  C   UNL     1      48.761   6.169  16.310  0.00  0.00    +0.000 C 
ATOM      8  C   UNL     1      47.917   6.593  17.536  0.00  0.00    +0.000 C 
ATOM      9  C   UNL     1      47.720   5.469  18.563  0.00  0.00    +0.000 C 
ATOM     10  H   UNL     1      48.716   3.657  21.820  0.00  0.00    +0.000 HD
ATOM     11  H   UNL     1      50.685   4.389  21.535  0.00  0.00    +0.000 HD
ATOM     12  H   UNL     1      51.030   5.175  20.104  0.00  0.00    +0.000 HD
ENDROOT
BRANCH   7  13
ATOM     13  C   UNL     1      47.919   5.310  15.347  0.00  0.00    +0.000 C 
BRANCH  13  14
ATOM     14  N   UNL     1      47.616   5.935  14.065  0.00  0.00    +0.000 N 
ATOM     15  C   UNL     1      48.411   6.889  13.479  0.00  0.00    +0.000 A 
ATOM     16  C   UNL     1      47.923   7.141  12.219  0.00  0.00    +0.000 A 
ATOM     17  C   UNL     1      46.807   6.289  12.012  0.00  0.00    +0.000 A 
ATOM     18  C   UNL     1      45.958   6.060  10.911  0.00  0.00    +0.000 A 
ATOM     19  C   UNL     1      44.932   5.115  11.017  0.00  0.00    +0.000 A 
ATOM     20  C   UNL     1      44.733   4.431  12.211  0.00  0.00    +0.000 A 
ATOM     21 CL   UNL     1      43.460   3.273  12.316  0.00  0.00    +0.000 Cl
ATOM     22  C   UNL     1      45.553   4.645  13.325  0.00  0.00    +0.000 A 
ATOM     23  C   UNL     1      46.606   5.566  13.196  0.00  0.00    +0.000 A 
ENDBRANCH  13  14
ENDBRANCH   7  13
TORSDOF 2
ENDMDL
MODEL 9
REMARK VINA RESULT:    -5.564      4.897      5.817
REMARK INTER + INTRA:          -6.719
REMARK INTER:                  -6.362
REMARK INTRA:                  -0.357
REMARK UNBOUND:                -0.504
REMARK  Name = 
REMARK  2 active torsions:
REMARK  status: ('A' for Active; 'I' for Inactive)
REMARK    1  A    between atoms: C_7  and  C_8
REMARK    2  A    between atoms: C_8  and  N_9
REMARK                            x       y       z     vdW  Elec       q    Type
REMARK                         _______ _______ _______ _____ _____    ______ ____
ROOT
ATOM      1  N   UNL     1      51.411   4.245  19.584  0.00  0.00    +0.000 NA
ATOM      2  C   UNL     1      50.137   4.391  19.650  0.00  0.00    +0.000 C 
ATOM      3  N   UNL     1      49.495   4.577  20.825  0.00  0.00    +0.000 N 
ATOM      4  N   UNL     1      49.285   4.309  18.589  0.00  0.00    +0.000 N 
ATOM      5  C   UNL     1      48.337   5.398  18.332  0.00  0.00    +0.000 C 
ATOM      6  C   UNL     1      47.062   4.785  17.762  0.00  0.00    +0.000 C 
ATOM      7  C   UNL     1      47.332   4.017  16.454  0.00  0.00    +0.000 C 
ATOM      8  C   UNL     1      48.477   3.004  16.691  0.00  0.00    +0.000 C 
ATOM      9  C   UNL     1      49.710   3.619  17.369  0.00  0.00    +0.000 C 
ATOM     10  H   UNL     1      51.809   4.373  20.518  0.00  0.00    +0.000 HD
ATOM     11  H   UNL     1      50.014   4.284  21.642  0.00  0.00    +0.000 HD
ATOM     12  H   UNL     1      48.573   4.151  20.810  0.00  0.00    +0.000 HD
ENDROOT
BRANCH   7  13
ATOM     13  C   UNL     1      47.656   4.926  15.253  0.00  0.00    +0.000 C 
BRANCH  13  14
ATOM     14  N   UNL     1      46.908   4.633  14.036  0.00  0.00    +0.000 N 
ATOM     15  C   UNL     1      46.621   3.359  13.610  0.00  0.00    +0.000 A 
ATOM     16  C   UNL     1      45.776   3.446  12.531  0.00  0.00    +0.000 A 
ATOM     17  C   UNL     1      45.508   4.822  12.305  0.00  0.00    +0.000 A 
ATOM     18  C   UNL     1      44.679   5.507  11.395  0.00  0.00    +0.000 A 
ATOM     19  C   UNL     1      44.616   6.903  11.438  0.00  0.00    +0.000 A 
ATOM     20  C   UNL     1      45.391   7.610  12.351  0.00  0.00    +0.000 A 
ATOM     21 CL   UNL     1      45.296   9.331  12.381  0.00  0.00    +0.000 Cl
ATOM     22  C   UNL     1      46.232   6.958  13.259  0.00  0.00    +0.000 A 
ATOM     23  C   UNL     1      46.257   5.553  13.235  0.00  0.00    +0.000 A 
ENDBRANCH  13  14
ENDBRANCH   7  13
TORSDOF 2
ENDMDL
