MODEL 1
REMARK VINA RESULT:    -8.412      0.000      0.000
REMARK INTER + INTRA:         -12.453
REMARK INTER:                 -11.854
REMARK INTRA:                  -0.599
REMARK UNBOUND:                -0.599
REMARK  Name = 
REMARK  8 active torsions:
REMARK  status: ('A' for Active; 'I' for Inactive)
REMARK    1  A    between atoms: C_1  and  N_2
REMARK    2  A    between atoms: N_2  and  C_3
REMARK    3  A    between atoms: N_2  and  C_24
REMARK    4  A    between atoms: C_3  and  C_4
REMARK    5  A    between atoms: C_7  and  C_8
REMARK    6  A    between atoms: C_8  and  N_9
REMARK    7  A    between atoms: C_10  and  C_12
REMARK    8  A    between atoms: C_24  and  C_25
REMARK                            x       y       z     vdW  Elec       q    Type
REMARK                         _______ _______ _______ _____ _____    ______ ____
ROOT
ATOM      1  C   UNL     1      46.022   4.428  12.774  0.00  0.00    +0.000 A 
ATOM      2  C   UNL     1      46.193   5.747  12.336  0.00  0.00    +0.000 A 
ATOM      3  C   UNL     1      47.046   6.604  13.020  0.00  0.00    +0.000 A 
ATOM      4  C   UNL     1      47.676   6.139  14.169  0.00  0.00    +0.000 A 
ATOM      5  N   UNL     1      47.520   4.869  14.624  0.00  0.00    +0.000 NA
ATOM      6  C   UNL     1      46.714   4.045  13.914  0.00  0.00    +0.000 A 
ENDROOT
BRANCH   1   7
ATOM      7  C   UNL     1      45.142   3.466  12.008  0.00  0.00    +0.000 C 
BRANCH   7   9
ATOM      8  C   UNL     1      43.376   4.763  10.930  0.00  0.00    +0.000 C 
ATOM      9  N   UNL     1      44.620   3.996  10.734  0.00  0.00    +0.000 NA
BRANCH   9  10
ATOM     10  C   UNL     1      44.352   2.867   9.803  0.00  0.00    +0.000 C 
BRANCH  10  11
ATOM     11  C   UNL     1      45.432   2.667   8.748  0.00  0.00    +0.000 A 
ATOM     12  C   UNL     1      45.789   3.715   7.900  0.00  0.00    +0.000 A 
ATOM     13  C   UNL     1      46.691   3.468   6.869  0.00  0.00    +0.000 A 
ATOM     14  C   UNL     1      47.219   2.192   6.716  0.00  0.00    +0.000 A 
ATOM     15  C   UNL     1      46.829   1.212   7.612  0.00  0.00    +0.000 A 
ATOM     16  N   UNL     1      45.952   1.419   8.620  0.00  0.00    +0.000 NA
ENDBRANCH  10  11
ENDBRANCH   9  10
ENDBRANCH   7   9
ENDBRANCH   1   7
BRANCH   4  17
ATOM     17  C   UNL     1      48.587   7.051  14.953  0.00  0.00    +0.000 C 
BRANCH  17  18
ATOM     18  N   UNL     1      49.663   6.331  15.592  0.00  0.00    +0.000 N 
ATOM     19  C   UNL     1      49.611   5.936  16.902  0.00  0.00    +0.000 C 
ATOM     20  O   UNL     1      48.643   6.171  17.621  0.00  0.00    +0.000 OA
ATOM     21  H   UNL     1      50.562   6.388  15.124  0.00  0.00    +0.000 HD
BRANCH  19  22
ATOM     22  C   UNL     1      50.750   5.145  17.381  0.00  0.00    +0.000 A 
ATOM     23  C   UNL     1      51.863   5.786  17.908  0.00  0.00    +0.000 A 
ATOM     24  S   UNL     1      53.084   4.715  18.427  0.00  0.00    +0.000 S 
ATOM     25  C   UNL     1      52.181   3.358  17.933  0.00  0.00    +0.000 A 
ATOM     26  N   UNL     1      52.680   2.099  18.060  0.00  0.00    +0.000 NA
ATOM     27  C   UNL     1      51.897   1.170  17.628  0.00  0.00    +0.000 A 
ATOM     28  N   UNL     1      50.652   1.382  17.092  0.00  0.00    +0.000 N 
ATOM     29  C   UNL     1      50.092   2.630  16.985  0.00  0.00    +0.000 A 
ATOM     30  O   UNL     1      48.944   2.778  16.578  0.00  0.00    +0.000 OA
ATOM     31  C   UNL     1      50.951   3.717  17.416  0.00  0.00    +0.000 A 
ATOM     32  H   UNL     1      50.075   0.610  16.793  0.00  0.00    +0.000 HD
ENDBRANCH  19  22
ENDBRANCH  17  18
ENDBRANCH   4  17
TORSDOF 7
ENDMDL
MODEL 2
REMARK VINA RESULT:    -8.085      2.116      2.393
REMARK INTER + INTRA:         -11.992
REMARK INTER:                 -11.030
REMARK INTRA:                  -0.962
REMARK UNBOUND:                -0.599
REMARK  Name = 
REMARK  8 active torsions:
REMARK  status: ('A' for Active; 'I' for Inactive)
REMARK    1  A    between atoms: C_1  and  N_2
REMARK    2  A    between atoms: N_2  and  C_3
REMARK    3  A    between atoms: N_2  and  C_24
REMARK    4  A    between atoms: C_3  and  C_4
REMARK    5  A    between atoms: C_7  and  C_8
REMARK    6  A    between atoms: C_8  and  N_9
REMARK    7  A    between atoms: C_10  and  C_12
REMARK    8  A    between atoms: C_24  and  C_25
REMARK                            x       y       z     vdW  Elec       q    Type
REMARK                         _______ _______ _______ _____ _____    ______ ____
ROOT
ATOM      1  C   UNL     1      46.047   4.530  12.504  0.00  0.00    +0.000 A 
ATOM      2  C   UNL     1      46.332   5.757  11.893  0.00  0.00    +0.000 A 
ATOM      3  C   UNL     1      47.302   6.594  12.430  0.00  0.00    +0.000 A 
ATOM      4  C   UNL     1      47.937   6.211  13.606  0.00  0.00    +0.000 A 
ATOM      5  N   UNL     1      47.673   5.032  14.227  0.00  0.00    +0.000 NA
ATOM      6  C   UNL     1      46.752   4.219  13.658  0.00  0.00    +0.000 A 
ENDROOT
BRANCH   1   7
ATOM      7  C   UNL     1      45.035   3.582  11.902  0.00  0.00    +0.000 C 
BRANCH   7   9
ATOM      8  C   UNL     1      43.350   4.650  10.494  0.00  0.00    +0.000 C 
ATOM      9  N   UNL     1      44.629   3.917  10.523  0.00  0.00    +0.000 NA
BRANCH   9  10
ATOM     10  C   UNL     1      44.489   2.664   9.732  0.00  0.00    +0.000 C 
BRANCH  10  11
ATOM     11  C   UNL     1      45.512   2.522   8.614  0.00  0.00    +0.000 A 
ATOM     12  C   UNL     1      45.760   3.587   7.749  0.00  0.00    +0.000 A 
ATOM     13  C   UNL     1      46.609   3.389   6.664  0.00  0.00    +0.000 A 
ATOM     14  C   UNL     1      47.195   2.144   6.475  0.00  0.00    +0.000 A 
ATOM     15  C   UNL     1      46.914   1.144   7.391  0.00  0.00    +0.000 A 
ATOM     16  N   UNL     1      46.090   1.304   8.450  0.00  0.00    +0.000 NA
ENDBRANCH  10  11
ENDBRANCH   9  10
ENDBRANCH   7   9
ENDBRANCH   1   7
BRANCH   4  17
ATOM     17  C   UNL     1      48.976   7.108  14.232  0.00  0.00    +0.000 C 
BRANCH  17  18
ATOM     18  N   UNL     1      48.979   7.019  15.673  0.00  0.00    +0.000 N 
ATOM     19  C   UNL     1      50.133   6.970  16.407  0.00  0.00    +0.000 C 
ATOM     20  O   UNL     1      51.245   6.996  15.886  0.00  0.00    +0.000 OA
ATOM     21  H   UNL     1      48.109   6.703  16.090  0.00  0.00    +0.000 HD
BRANCH  19  22
ATOM     22  C   UNL     1      49.968   6.959  17.865  0.00  0.00    +0.000 A 
ATOM     23  C   UNL     1      50.343   8.068  18.611  0.00  0.00    +0.000 A 
ATOM     24  S   UNL     1      50.071   7.888  20.285  0.00  0.00    +0.000 S 
ATOM     25  C   UNL     1      49.472   6.307  20.073  0.00  0.00    +0.000 A 
ATOM     26  N   UNL     1      49.088   5.555  21.139  0.00  0.00    +0.000 NA
ATOM     27  C   UNL     1      48.673   4.372  20.833  0.00  0.00    +0.000 A 
ATOM     28  N   UNL     1      48.594   3.876  19.557  0.00  0.00    +0.000 N 
ATOM     29  C   UNL     1      48.930   4.615  18.451  0.00  0.00    +0.000 A 
ATOM     30  O   UNL     1      48.769   4.171  17.318  0.00  0.00    +0.000 OA
ATOM     31  C   UNL     1      49.445   5.939  18.742  0.00  0.00    +0.000 A 
ATOM     32  H   UNL     1      48.238   2.948  19.380  0.00  0.00    +0.000 HD
ENDBRANCH  19  22
ENDBRANCH  17  18
ENDBRANCH   4  17
TORSDOF 7
ENDMDL
MODEL 3
REMARK VINA RESULT:    -7.538      3.688      8.798
REMARK INTER + INTRA:         -11.221
REMARK INTER:                  -9.852
REMARK INTRA:                  -1.369
REMARK UNBOUND:                -0.599
REMARK  Name = 
REMARK  8 active torsions:
REMARK  status: ('A' for Active; 'I' for Inactive)
REMARK    1  A    between atoms: C_1  and  N_2
REMARK    2  A    between atoms: N_2  and  C_3
REMARK    3  A    between atoms: N_2  and  C_24
REMARK    4  A    between atoms: C_3  and  C_4
REMARK    5  A    between atoms: C_7  and  C_8
REMARK    6  A    between atoms: C_8  and  N_9
REMARK    7  A    between atoms: C_10  and  C_12
REMARK    8  A    between atoms: C_24  and  C_25
REMARK                            x       y       z     vdW  Elec       q    Type
REMARK                         _______ _______ _______ _____ _____    ______ ____
ROOT
ATOM      1  C   UNL     1      49.087   7.819  16.244  0.00  0.00    +0.000 A 
ATOM      2  C   UNL     1      48.273   8.836  15.731  0.00  0.00    +0.000 A 
ATOM      3  C   UNL     1      47.794   8.755  14.429  0.00  0.00    +0.000 A 
ATOM      4  C   UNL     1      48.183   7.677  13.642  0.00  0.00    +0.000 A 
ATOM      5  N   UNL     1      48.981   6.682  14.110  0.00  0.00    +0.000 NA
ATOM      6  C   UNL     1      49.399   6.768  15.394  0.00  0.00    +0.000 A 
ENDROOT
BRANCH   1   7
ATOM      7  C   UNL     1      49.570   7.863  17.676  0.00  0.00    +0.000 C 
BRANCH   7   9
ATOM      8  C   UNL     1      48.396   8.495  19.722  0.00  0.00    +0.000 C 
ATOM      9  N   UNL     1      48.558   7.469  18.675  0.00  0.00    +0.000 NA
BRANCH   9  10
ATOM     10  C   UNL     1      48.965   6.187  19.312  0.00  0.00    +0.000 C 
BRANCH  10  11
ATOM     11  C   UNL     1      48.649   4.955  18.474  0.00  0.00    +0.000 A 
ATOM     12  C   UNL     1      49.633   3.996  18.235  0.00  0.00    +0.000 A 
ATOM     13  C   UNL     1      49.351   2.945  17.367  0.00  0.00    +0.000 A 
ATOM     14  C   UNL     1      48.098   2.872  16.770  0.00  0.00    +0.000 A 
ATOM     15  C   UNL     1      47.170   3.852  17.076  0.00  0.00    +0.000 A 
ATOM     16  N   UNL     1      47.416   4.887  17.910  0.00  0.00    +0.000 NA
ENDBRANCH  10  11
ENDBRANCH   9  10
ENDBRANCH   7   9
ENDBRANCH   1   7
BRANCH   4  17
ATOM     17  C   UNL     1      47.705   7.571  12.214  0.00  0.00    +0.000 C 
BRANCH  17  18
ATOM     18  N   UNL     1      46.921   6.380  11.988  0.00  0.00    +0.000 N 
ATOM     19  C   UNL     1      45.562   6.410  11.831  0.00  0.00    +0.000 C 
ATOM     20  O   UNL     1      44.918   7.456  11.874  0.00  0.00    +0.000 OA
ATOM     21  H   UNL     1      47.375   5.508  12.239  0.00  0.00    +0.000 HD
BRANCH  19  22
ATOM     22  C   UNL     1      44.921   5.125  11.530  0.00  0.00    +0.000 A 
ATOM     23  C   UNL     1      44.145   4.498  12.495  0.00  0.00    +0.000 A 
ATOM     24  S   UNL     1      43.467   3.023  11.971  0.00  0.00    +0.000 S 
ATOM     25  C   UNL     1      44.216   3.156  10.448  0.00  0.00    +0.000 A 
ATOM     26  N   UNL     1      44.075   2.181   9.509  0.00  0.00    +0.000 NA
ATOM     27  C   UNL     1      44.712   2.405   8.410  0.00  0.00    +0.000 A 
ATOM     28  N   UNL     1      45.467   3.521   8.156  0.00  0.00    +0.000 N 
ATOM     29  C   UNL     1      45.601   4.548   9.056  0.00  0.00    +0.000 A 
ATOM     30  O   UNL     1      46.215   5.570   8.766  0.00  0.00    +0.000 OA
ATOM     31  C   UNL     1      44.940   4.326  10.328  0.00  0.00    +0.000 A 
ATOM     32  H   UNL     1      45.923   3.650   7.265  0.00  0.00    +0.000 HD
ENDBRANCH  19  22
ENDBRANCH  17  18
ENDBRANCH   4  17
TORSDOF 7
ENDMDL
MODEL 4
REMARK VINA RESULT:    -7.523      1.855      2.300
REMARK INTER + INTRA:         -11.200
REMARK INTER:                 -10.166
REMARK INTRA:                  -1.034
REMARK UNBOUND:                -0.599
REMARK  Name = 
REMARK  8 active torsions:
REMARK  status: ('A' for Active; 'I' for Inactive)
REMARK    1  A    between atoms: C_1  and  N_2
REMARK    2  A    between atoms: N_2  and  C_3
REMARK    3  A    between atoms: N_2  and  C_24
REMARK    4  A    between atoms: C_3  and  C_4
REMARK    5  A    between atoms: C_7  and  C_8
REMARK    6  A    between atoms: C_8  and  N_9
REMARK    7  A    between atoms: C_10  and  C_12
REMARK    8  A    between atoms: C_24  and  C_25
REMARK                            x       y       z     vdW  Elec       q    Type
REMARK                         _______ _______ _______ _____ _____    ______ ____
ROOT
ATOM      1  C   UNL     1      46.290   5.387  12.343  0.00  0.00    +0.000 A 
ATOM      2  C   UNL     1      46.623   6.521  11.594  0.00  0.00    +0.000 A 
ATOM      3  C   UNL     1      47.659   7.350  12.006  0.00  0.00    +0.000 A 
ATOM      4  C   UNL     1      48.312   7.058  13.199  0.00  0.00    +0.000 A 
ATOM      5  N   UNL     1      48.002   5.970  13.952  0.00  0.00    +0.000 NA
ATOM      6  C   UNL     1      47.016   5.159  13.503  0.00  0.00    +0.000 A 
ENDROOT
BRANCH   1   7
ATOM      7  C   UNL     1      45.205   4.443  11.878  0.00  0.00    +0.000 C 
BRANCH   7   9
ATOM      8  C   UNL     1      43.190   5.683  11.273  0.00  0.00    +0.000 C 
ATOM      9  N   UNL     1      44.375   4.962  10.773  0.00  0.00    +0.000 NA
BRANCH   9  10
ATOM     10  C   UNL     1      43.929   3.829   9.917  0.00  0.00    +0.000 C 
BRANCH  10  11
ATOM     11  C   UNL     1      44.972   3.372   8.906  0.00  0.00    +0.000 A 
ATOM     12  C   UNL     1      45.344   2.031   8.838  0.00  0.00    +0.000 A 
ATOM     13  C   UNL     1      46.385   1.664   7.990  0.00  0.00    +0.000 A 
ATOM     14  C   UNL     1      47.019   2.638   7.228  0.00  0.00    +0.000 A 
ATOM     15  C   UNL     1      46.575   3.944   7.338  0.00  0.00    +0.000 A 
ATOM     16  N   UNL     1      45.571   4.332   8.155  0.00  0.00    +0.000 NA
ENDBRANCH  10  11
ENDBRANCH   9  10
ENDBRANCH   7   9
ENDBRANCH   1   7
BRANCH   4  17
ATOM     17  C   UNL     1      49.422   7.952  13.692  0.00  0.00    +0.000 C 
BRANCH  17  18
ATOM     18  N   UNL     1      50.431   7.220  14.419  0.00  0.00    +0.000 N 
ATOM     19  C   UNL     1      51.451   7.837  15.091  0.00  0.00    +0.000 C 
ATOM     20  O   UNL     1      51.576   9.060  15.117  0.00  0.00    +0.000 OA
ATOM     21  H   UNL     1      50.520   6.239  14.170  0.00  0.00    +0.000 HD
BRANCH  19  22
ATOM     22  C   UNL     1      52.351   6.957  15.845  0.00  0.00    +0.000 A 
ATOM     23  C   UNL     1      53.725   7.072  15.684  0.00  0.00    +0.000 A 
ATOM     24  S   UNL     1      54.617   5.982  16.646  0.00  0.00    +0.000 S 
ATOM     25  C   UNL     1      53.196   5.296  17.285  0.00  0.00    +0.000 A 
ATOM     26  N   UNL     1      53.251   4.258  18.162  0.00  0.00    +0.000 NA
ATOM     27  C   UNL     1      52.098   3.827  18.549  0.00  0.00    +0.000 A 
ATOM     28  N   UNL     1      50.894   4.347  18.151  0.00  0.00    +0.000 N 
ATOM     29  C   UNL     1      50.792   5.420  17.302  0.00  0.00    +0.000 A 
ATOM     30  O   UNL     1      49.702   5.913  17.030  0.00  0.00    +0.000 OA
ATOM     31  C   UNL     1      52.060   5.916  16.801  0.00  0.00    +0.000 A 
ATOM     32  H   UNL     1      50.024   3.980  18.508  0.00  0.00    +0.000 HD
ENDBRANCH  19  22
ENDBRANCH  17  18
ENDBRANCH   4  17
TORSDOF 7
ENDMDL
MODEL 5
REMARK VINA RESULT:    -7.342      1.897      2.482
REMARK INTER + INTRA:         -10.946
REMARK INTER:                  -9.863
REMARK INTRA:                  -1.082
REMARK UNBOUND:                -0.599
REMARK  Name = 
REMARK  8 active torsions:
REMARK  status: ('A' for Active; 'I' for Inactive)
REMARK    1  A    between atoms: C_1  and  N_2
REMARK    2  A    between atoms: N_2  and  C_3
REMARK    3  A    between atoms: N_2  and  C_24
REMARK    4  A    between atoms: C_3  and  C_4
REMARK    5  A    between atoms: C_7  and  C_8
REMARK    6  A    between atoms: C_8  and  N_9
REMARK    7  A    between atoms: C_10  and  C_12
REMARK    8  A    between atoms: C_24  and  C_25
REMARK                            x       y       z     vdW  Elec       q    Type
REMARK                         _______ _______ _______ _____ _____    ______ ____
ROOT
ATOM      1  C   UNL     1      46.095   4.917  12.499  0.00  0.00    +0.000 A 
ATOM      2  C   UNL     1      46.390   6.107  11.824  0.00  0.00    +0.000 A 
ATOM      3  C   UNL     1      47.374   6.958  12.310  0.00  0.00    +0.000 A 
ATOM      4  C   UNL     1      48.013   6.628  13.500  0.00  0.00    +0.000 A 
ATOM      5  N   UNL     1      47.739   5.486  14.183  0.00  0.00    +0.000 NA
ATOM      6  C   UNL     1      46.804   4.657  13.663  0.00  0.00    +0.000 A 
ENDROOT
BRANCH   1   7
ATOM      7  C   UNL     1      45.067   3.952  11.953  0.00  0.00    +0.000 C 
BRANCH   7   9
ATOM      8  C   UNL     1      42.980   5.055  11.328  0.00  0.00    +0.000 C 
ATOM      9  N   UNL     1      44.253   4.488  10.845  0.00  0.00    +0.000 NA
BRANCH   9  10
ATOM     10  C   UNL     1      43.961   3.397   9.876  0.00  0.00    +0.000 C 
BRANCH  10  11
ATOM     11  C   UNL     1      45.123   3.068   8.949  0.00  0.00    +0.000 A 
ATOM     12  C   UNL     1      45.723   4.072   8.189  0.00  0.00    +0.000 A 
ATOM     13  C   UNL     1      46.700   3.722   7.262  0.00  0.00    +0.000 A 
ATOM     14  C   UNL     1      47.061   2.387   7.124  0.00  0.00    +0.000 A 
ATOM     15  C   UNL     1      46.432   1.453   7.930  0.00  0.00    +0.000 A 
ATOM     16  N   UNL     1      45.477   1.761   8.834  0.00  0.00    +0.000 NA
ENDBRANCH  10  11
ENDBRANCH   9  10
ENDBRANCH   7   9
ENDBRANCH   1   7
BRANCH   4  17
ATOM     17  C   UNL     1      49.067   7.543  14.072  0.00  0.00    +0.000 C 
BRANCH  17  18
ATOM     18  N   UNL     1      50.030   6.832  14.878  0.00  0.00    +0.000 N 
ATOM     19  C   UNL     1      50.069   6.931  16.242  0.00  0.00    +0.000 C 
ATOM     20  O   UNL     1      49.284   7.636  16.872  0.00  0.00    +0.000 OA
ATOM     21  H   UNL     1      50.847   6.493  14.379  0.00  0.00    +0.000 HD
BRANCH  19  22
ATOM     22  C   UNL     1      51.056   6.084  16.922  0.00  0.00    +0.000 A 
ATOM     23  C   UNL     1      50.639   5.168  17.877  0.00  0.00    +0.000 A 
ATOM     24  S   UNL     1      51.915   4.261  18.554  0.00  0.00    +0.000 S 
ATOM     25  C   UNL     1      53.073   5.087  17.617  0.00  0.00    +0.000 A 
ATOM     26  N   UNL     1      54.400   4.816  17.743  0.00  0.00    +0.000 NA
ATOM     27  C   UNL     1      55.163   5.530  16.986  0.00  0.00    +0.000 A 
ATOM     28  N   UNL     1      54.720   6.481  16.104  0.00  0.00    +0.000 N 
ATOM     29  C   UNL     1      53.390   6.757  15.913  0.00  0.00    +0.000 A 
ATOM     30  O   UNL     1      53.022   7.556  15.057  0.00  0.00    +0.000 OA
ATOM     31  C   UNL     1      52.489   6.013  16.774  0.00  0.00    +0.000 A 
ATOM     32  H   UNL     1      55.367   6.992  15.520  0.00  0.00    +0.000 HD
ENDBRANCH  19  22
ENDBRANCH  17  18
ENDBRANCH   4  17
TORSDOF 7
ENDMDL
MODEL 6
REMARK VINA RESULT:    -7.263      3.668      9.592
REMARK INTER + INTRA:         -10.834
REMARK INTER:                  -9.942
REMARK INTRA:                  -0.891
REMARK UNBOUND:                -0.599
REMARK  Name = 
REMARK  8 active torsions:
REMARK  status: ('A' for Active; 'I' for Inactive)
REMARK    1  A    between atoms: C_1  and  N_2
REMARK    2  A    between atoms: N_2  and  C_3
REMARK    3  A    between atoms: N_2  and  C_24
REMARK    4  A    between atoms: C_3  and  C_4
REMARK    5  A    between atoms: C_7  and  C_8
REMARK    6  A    between atoms: C_8  and  N_9
REMARK    7  A    between atoms: C_10  and  C_12
REMARK    8  A    between atoms: C_24  and  C_25
REMARK                            x       y       z     vdW  Elec       q    Type
REMARK                         _______ _______ _______ _____ _____    ______ ____
ROOT
ATOM      1  C   UNL     1      51.340   4.153  17.729  0.00  0.00    +0.000 A 
ATOM      2  C   UNL     1      50.445   5.229  17.705  0.00  0.00    +0.000 A 
ATOM      3  C   UNL     1      49.111   5.019  17.376  0.00  0.00    +0.000 A 
ATOM      4  C   UNL     1      48.706   3.737  17.022  0.00  0.00    +0.000 A 
ATOM      5  N   UNL     1      49.555   2.676  17.025  0.00  0.00    +0.000 NA
ATOM      6  C   UNL     1      50.839   2.904  17.390  0.00  0.00    +0.000 A 
ENDROOT
BRANCH   1   7
ATOM      7  C   UNL     1      52.781   4.354  18.140  0.00  0.00    +0.000 C 
BRANCH   7   9
ATOM      8  C   UNL     1      53.478   3.669  20.379  0.00  0.00    +0.000 C 
ATOM      9  N   UNL     1      53.338   3.265  18.967  0.00  0.00    +0.000 NA
BRANCH   9  10
ATOM     10  C   UNL     1      54.675   2.880  18.438  0.00  0.00    +0.000 C 
BRANCH  10  11
ATOM     11  C   UNL     1      54.775   1.418  18.022  0.00  0.00    +0.000 A 
ATOM     12  C   UNL     1      55.220   1.080  16.745  0.00  0.00    +0.000 A 
ATOM     13  C   UNL     1      55.184  -0.255  16.352  0.00  0.00    +0.000 A 
ATOM     14  C   UNL     1      54.719  -1.215  17.241  0.00  0.00    +0.000 A 
ATOM     15  C   UNL     1      54.314  -0.800  18.498  0.00  0.00    +0.000 A 
ATOM     16  N   UNL     1      54.331   0.488  18.907  0.00  0.00    +0.000 NA
ENDBRANCH  10  11
ENDBRANCH   9  10
ENDBRANCH   7   9
ENDBRANCH   1   7
BRANCH   4  17
ATOM     17  C   UNL     1      47.272   3.477  16.632  0.00  0.00    +0.000 C 
BRANCH  17  18
ATOM     18  N   UNL     1      46.794   4.419  15.648  0.00  0.00    +0.000 N 
ATOM     19  C   UNL     1      46.798   4.150  14.306  0.00  0.00    +0.000 C 
ATOM     20  O   UNL     1      47.213   3.087  13.850  0.00  0.00    +0.000 OA
ATOM     21  H   UNL     1      46.731   5.382  15.964  0.00  0.00    +0.000 HD
BRANCH  19  22
ATOM     22  C   UNL     1      46.207   5.179  13.443  0.00  0.00    +0.000 A 
ATOM     23  C   UNL     1      46.902   6.354  13.192  0.00  0.00    +0.000 A 
ATOM     24  S   UNL     1      46.074   7.429  12.159  0.00  0.00    +0.000 S 
ATOM     25  C   UNL     1      44.742   6.375  12.039  0.00  0.00    +0.000 A 
ATOM     26  N   UNL     1      43.641   6.715  11.317  0.00  0.00    +0.000 NA
ATOM     27  C   UNL     1      42.701   5.830  11.329  0.00  0.00    +0.000 A 
ATOM     28  N   UNL     1      42.768   4.629  11.986  0.00  0.00    +0.000 N 
ATOM     29  C   UNL     1      43.874   4.226  12.689  0.00  0.00    +0.000 A 
ATOM     30  O   UNL     1      43.934   3.110  13.196  0.00  0.00    +0.000 OA
ATOM     31  C   UNL     1      44.944   5.204  12.745  0.00  0.00    +0.000 A 
ATOM     32  H   UNL     1      42.007   3.966  11.938  0.00  0.00    +0.000 HD
ENDBRANCH  19  22
ENDBRANCH  17  18
ENDBRANCH   4  17
TORSDOF 7
ENDMDL
MODEL 7
REMARK VINA RESULT:    -6.941      2.788      4.411
REMARK INTER + INTRA:         -10.380
REMARK INTER:                  -9.311
REMARK INTRA:                  -1.069
REMARK UNBOUND:                -0.599
REMARK  Name = 
REMARK  8 active torsions:
REMARK  status: ('A' for Active; 'I' for Inactive)
REMARK    1  A    between atoms: C_1  and  N_2
REMARK    2  A    between atoms: N_2  and  C_3
REMARK    3  A    between atoms: N_2  and  C_24
REMARK    4  A    between atoms: C_3  and  C_4
REMARK    5  A    between atoms: C_7  and  C_8
REMARK    6  A    between atoms: C_8  and  N_9
REMARK    7  A    between atoms: C_10  and  C_12
REMARK    8  A    between atoms: C_24  and  C_25
REMARK                            x       y       z     vdW  Elec       q    Type
REMARK                         _______ _______ _______ _____ _____    ______ ____
ROOT
ATOM      1  C   UNL     1      47.862   6.190  14.740  0.00  0.00    +0.000 A 
ATOM      2  C   UNL     1      47.194   4.980  14.516  0.00  0.00    +0.000 A 
ATOM      3  C   UNL     1      47.269   3.958  15.454  0.00  0.00    +0.000 A 
ATOM      4  C   UNL     1      48.060   4.146  16.582  0.00  0.00    +0.000 A 
ATOM      5  N   UNL     1      48.728   5.305  16.821  0.00  0.00    +0.000 NA
ATOM      6  C   UNL     1      48.603   6.297  15.909  0.00  0.00    +0.000 A 
ENDROOT
BRANCH   1   7
ATOM      7  C   UNL     1      47.744   7.333  13.758  0.00  0.00    +0.000 C 
BRANCH   7   9
ATOM      8  C   UNL     1      48.590   7.495  11.473  0.00  0.00    +0.000 C 
ATOM      9  N   UNL     1      47.559   6.916  12.354  0.00  0.00    +0.000 NA
BRANCH   9  10
ATOM     10  C   UNL     1      46.217   7.353  11.883  0.00  0.00    +0.000 C 
BRANCH  10  11
ATOM     11  C   UNL     1      45.195   6.226  11.802  0.00  0.00    +0.000 A 
ATOM     12  C   UNL     1      45.090   5.455  10.645  0.00  0.00    +0.000 A 
ATOM     13  C   UNL     1      44.067   4.515  10.555  0.00  0.00    +0.000 A 
ATOM     14  C   UNL     1      43.187   4.361  11.619  0.00  0.00    +0.000 A 
ATOM     15  C   UNL     1      43.372   5.151  12.740  0.00  0.00    +0.000 A 
ATOM     16  N   UNL     1      44.351   6.076  12.856  0.00  0.00    +0.000 NA
ENDBRANCH  10  11
ENDBRANCH   9  10
ENDBRANCH   7   9
ENDBRANCH   1   7
BRANCH   4  17
ATOM     17  C   UNL     1      48.187   3.047  17.608  0.00  0.00    +0.000 C 
BRANCH  17  18
ATOM     18  N   UNL     1      49.563   2.761  17.936  0.00  0.00    +0.000 N 
ATOM     19  C   UNL     1      50.388   2.050  17.107  0.00  0.00    +0.000 C 
ATOM     20  O   UNL     1      50.008   1.606  16.026  0.00  0.00    +0.000 OA
ATOM     21  H   UNL     1      49.804   2.854  18.918  0.00  0.00    +0.000 HD
BRANCH  19  22
ATOM     22  C   UNL     1      51.780   1.912  17.547  0.00  0.00    +0.000 A 
ATOM     23  C   UNL     1      52.330   0.648  17.715  0.00  0.00    +0.000 A 
ATOM     24  S   UNL     1      53.959   0.675  18.218  0.00  0.00    +0.000 S 
ATOM     25  C   UNL     1      53.976   2.377  18.262  0.00  0.00    +0.000 A 
ATOM     26  N   UNL     1      55.084   3.058  18.659  0.00  0.00    +0.000 NA
ATOM     27  C   UNL     1      54.949   4.341  18.662  0.00  0.00    +0.000 A 
ATOM     28  N   UNL     1      53.810   5.008  18.290  0.00  0.00    +0.000 N 
ATOM     29  C   UNL     1      52.684   4.364  17.842  0.00  0.00    +0.000 A 
ATOM     30  O   UNL     1      51.711   4.993  17.438  0.00  0.00    +0.000 OA
ATOM     31  C   UNL     1      52.768   2.916  17.861  0.00  0.00    +0.000 A 
ATOM     32  H   UNL     1      53.773   6.017  18.291  0.00  0.00    +0.000 HD
ENDBRANCH  19  22
ENDBRANCH  17  18
ENDBRANCH   4  17
TORSDOF 7
ENDMDL
MODEL 8
REMARK VINA RESULT:    -6.743      4.067      9.936
REMARK INTER + INTRA:         -10.101
REMARK INTER:                  -8.987
REMARK INTRA:                  -1.114
REMARK UNBOUND:                -0.599
REMARK  Name = 
REMARK  8 active torsions:
REMARK  status: ('A' for Active; 'I' for Inactive)
REMARK    1  A    between atoms: C_1  and  N_2
REMARK    2  A    between atoms: N_2  and  C_3
REMARK    3  A    between atoms: N_2  and  C_24
REMARK    4  A    between atoms: C_3  and  C_4
REMARK    5  A    between atoms: C_7  and  C_8
REMARK    6  A    between atoms: C_8  and  N_9
REMARK    7  A    between atoms: C_10  and  C_12
REMARK    8  A    between atoms: C_24  and  C_25
REMARK                            x       y       z     vdW  Elec       q    Type
REMARK                         _______ _______ _______ _____ _____    ______ ____
ROOT
ATOM      1  C   UNL     1      51.724   3.167  17.756  0.00  0.00    +0.000 A 
ATOM      2  C   UNL     1      51.004   2.065  17.280  0.00  0.00    +0.000 A 
ATOM      3  C   UNL     1      49.641   2.173  17.039  0.00  0.00    +0.000 A 
ATOM      4  C   UNL     1      49.006   3.375  17.333  0.00  0.00    +0.000 A 
ATOM      5  N   UNL     1      49.676   4.458  17.807  0.00  0.00    +0.000 NA
ATOM      6  C   UNL     1      51.011   4.334  17.993  0.00  0.00    +0.000 A 
ENDROOT
BRANCH   1   7
ATOM      7  C   UNL     1      53.218   3.084  17.968  0.00  0.00    +0.000 C 
BRANCH   7   9
ATOM      8  C   UNL     1      53.892   3.215  20.312  0.00  0.00    +0.000 C 
ATOM      9  N   UNL     1      53.624   2.324  19.167  0.00  0.00    +0.000 NA
BRANCH   9  10
ATOM     10  C   UNL     1      54.852   1.541  18.863  0.00  0.00    +0.000 C 
BRANCH  10  11
ATOM     11  C   UNL     1      54.800   0.099  19.350  0.00  0.00    +0.000 A 
ATOM     12  C   UNL     1      55.740  -0.367  20.268  0.00  0.00    +0.000 A 
ATOM     13  C   UNL     1      55.742  -1.719  20.601  0.00  0.00    +0.000 A 
ATOM     14  C   UNL     1      54.805  -2.565  20.021  0.00  0.00    +0.000 A 
ATOM     15  C   UNL     1      53.893  -2.020  19.134  0.00  0.00    +0.000 A 
ATOM     16  N   UNL     1      53.869  -0.714  18.787  0.00  0.00    +0.000 NA
ENDBRANCH  10  11
ENDBRANCH   9  10
ENDBRANCH   7   9
ENDBRANCH   1   7
BRANCH   4  17
ATOM     17  C   UNL     1      47.520   3.520  17.112  0.00  0.00    +0.000 C 
BRANCH  17  18
ATOM     18  N   UNL     1      47.211   4.511  16.109  0.00  0.00    +0.000 N 
ATOM     19  C   UNL     1      47.133   4.213  14.776  0.00  0.00    +0.000 C 
ATOM     20  O   UNL     1      47.323   3.078  14.344  0.00  0.00    +0.000 OA
ATOM     21  H   UNL     1      47.343   5.476  16.398  0.00  0.00    +0.000 HD
BRANCH  19  22
ATOM     22  C   UNL     1      46.732   5.314  13.893  0.00  0.00    +0.000 A 
ATOM     23  C   UNL     1      45.510   5.264  13.236  0.00  0.00    +0.000 A 
ATOM     24  S   UNL     1      45.202   6.630  12.263  0.00  0.00    +0.000 S 
ATOM     25  C   UNL     1      46.708   7.320  12.659  0.00  0.00    +0.000 A 
ATOM     26  N   UNL     1      47.100   8.505  12.119  0.00  0.00    +0.000 NA
ATOM     27  C   UNL     1      48.270   8.899  12.493  0.00  0.00    +0.000 A 
ATOM     28  N   UNL     1      49.080   8.224  13.369  0.00  0.00    +0.000 N 
ATOM     29  C   UNL     1      48.707   7.049  13.971  0.00  0.00    +0.000 A 
ATOM     30  O   UNL     1      49.420   6.512  14.813  0.00  0.00    +0.000 OA
ATOM     31  C   UNL     1      47.416   6.538  13.550  0.00  0.00    +0.000 A 
ATOM     32  H   UNL     1      49.978   8.597  13.642  0.00  0.00    +0.000 HD
ENDBRANCH  19  22
ENDBRANCH  17  18
ENDBRANCH   4  17
TORSDOF 7
ENDMDL
MODEL 9
REMARK VINA RESULT:    -6.608      3.700      8.728
REMARK INTER + INTRA:          -9.911
REMARK INTER:                  -8.458
REMARK INTRA:                  -1.453
REMARK UNBOUND:                -0.599
REMARK  Name = 
REMARK  8 active torsions:
REMARK  status: ('A' for Active; 'I' for Inactive)
REMARK    1  A    between atoms: C_1  and  N_2
REMARK    2  A    between atoms: N_2  and  C_3
REMARK    3  A    between atoms: N_2  and  C_24
REMARK    4  A    between atoms: C_3  and  C_4
REMARK    5  A    between atoms: C_7  and  C_8
REMARK    6  A    between atoms: C_8  and  N_9
REMARK    7  A    between atoms: C_10  and  C_12
REMARK    8  A    between atoms: C_24  and  C_25
REMARK                            x       y       z     vdW  Elec       q    Type
REMARK                         _______ _______ _______ _____ _____    ______ ____
ROOT
ATOM      1  C   UNL     1      49.668   7.569  16.336  0.00  0.00    +0.000 A 
ATOM      2  C   UNL     1      49.515   6.661  15.282  0.00  0.00    +0.000 A 
ATOM      3  C   UNL     1      48.609   6.922  14.262  0.00  0.00    +0.000 A 
ATOM      4  C   UNL     1      47.828   8.070  14.343  0.00  0.00    +0.000 A 
ATOM      5  N   UNL     1      47.946   8.964  15.359  0.00  0.00    +0.000 NA
ATOM      6  C   UNL     1      48.866   8.702  16.317  0.00  0.00    +0.000 A 
ENDROOT
BRANCH   1   7
ATOM      7  C   UNL     1      50.690   7.329  17.424  0.00  0.00    +0.000 C 
BRANCH   7   9
ATOM      8  C   UNL     1      50.462   7.631  19.836  0.00  0.00    +0.000 C 
ATOM      9  N   UNL     1      50.132   6.782  18.676  0.00  0.00    +0.000 NA
BRANCH   9  10
ATOM     10  C   UNL     1      50.678   5.416  18.903  0.00  0.00    +0.000 C 
BRANCH  10  11
ATOM     11  C   UNL     1      49.897   4.315  18.197  0.00  0.00    +0.000 A 
ATOM     12  C   UNL     1      50.568   3.241  17.613  0.00  0.00    +0.000 A 
ATOM     13  C   UNL     1      49.839   2.316  16.871  0.00  0.00    +0.000 A 
ATOM     14  C   UNL     1      48.466   2.478  16.739  0.00  0.00    +0.000 A 
ATOM     15  C   UNL     1      47.872   3.560  17.367  0.00  0.00    +0.000 A 
ATOM     16  N   UNL     1      48.553   4.478  18.090  0.00  0.00    +0.000 NA
ENDBRANCH  10  11
ENDBRANCH   9  10
ENDBRANCH   7   9
ENDBRANCH   1   7
BRANCH   4  17
ATOM     17  C   UNL     1      46.813   8.372  13.267  0.00  0.00    +0.000 C 
BRANCH  17  18
ATOM     18  N   UNL     1      46.394   7.185  12.562  0.00  0.00    +0.000 N 
ATOM     19  C   UNL     1      45.467   7.212  11.556  0.00  0.00    +0.000 C 
ATOM     20  O   UNL     1      44.928   8.253  11.187  0.00  0.00    +0.000 OA
ATOM     21  H   UNL     1      46.592   6.307  13.033  0.00  0.00    +0.000 HD
BRANCH  19  22
ATOM     22  C   UNL     1      45.206   5.933  10.886  0.00  0.00    +0.000 A 
ATOM     23  C   UNL     1      45.607   5.748   9.569  0.00  0.00    +0.000 A 
ATOM     24  S   UNL     1      45.235   4.201   8.955  0.00  0.00    +0.000 S 
ATOM     25  C   UNL     1      44.496   3.737  10.417  0.00  0.00    +0.000 A 
ATOM     26  N   UNL     1      43.920   2.512  10.554  0.00  0.00    +0.000 NA
ATOM     27  C   UNL     1      43.382   2.304  11.708  0.00  0.00    +0.000 A 
ATOM     28  N   UNL     1      43.378   3.202  12.743  0.00  0.00    +0.000 N 
ATOM     29  C   UNL     1      43.983   4.431  12.664  0.00  0.00    +0.000 A 
ATOM     30  O   UNL     1      44.033   5.178  13.636  0.00  0.00    +0.000 OA
ATOM     31  C   UNL     1      44.566   4.734  11.371  0.00  0.00    +0.000 A 
ATOM     32  H   UNL     1      42.959   2.970  13.633  0.00  0.00    +0.000 HD
ENDBRANCH  19  22
ENDBRANCH  17  18
ENDBRANCH   4  17
TORSDOF 7
ENDMDL
