MODEL 1
REMARK VINA RESULT:    -8.819      0.000      0.000
REMARK INTER + INTRA:         -12.718
REMARK INTER:                 -11.912
REMARK INTRA:                  -0.806
REMARK UNBOUND:                -0.806
REMARK  Name = 
REMARK  6 active torsions:
REMARK  status: ('A' for Active; 'I' for Inactive)
REMARK    1  A    between atoms: C_2  and  C_3
REMARK    2  A    between atoms: C_6  and  N_7
REMARK    3  A    between atoms: N_7  and  C_8
REMARK    4  A    between atoms: C_8  and  C_9
REMARK    5  A    between atoms: C_13  and  C_14
REMARK    6  A    between atoms: C_18  and  C_19
REMARK                            x       y       z     vdW  Elec       q    Type
REMARK                         _______ _______ _______ _____ _____    ______ ____
ROOT
ATOM      1  C   UNL     1      45.000   5.866  11.743  0.00  0.00    +0.000 A 
ATOM      2  C   UNL     1      45.196   7.146  11.200  0.00  0.00    +0.000 A 
ATOM      3  C   UNL     1      46.057   8.055  11.803  0.00  0.00    +0.000 A 
ATOM      4  C   UNL     1      46.792   7.673  12.924  0.00  0.00    +0.000 A 
ATOM      5  C   UNL     1      46.715   6.365  13.436  0.00  0.00    +0.000 A 
ATOM      6  C   UNL     1      45.803   5.486  12.829  0.00  0.00    +0.000 A 
ENDROOT
BRANCH   5   7
ATOM      7  C   UNL     1      47.549   5.920  14.568  0.00  0.00    +0.000 A 
ATOM      8  C   UNL     1      48.745   6.565  14.901  0.00  0.00    +0.000 A 
ATOM      9  N   UNL     1      49.544   6.235  15.943  0.00  0.00    +0.000 NA
ATOM     10  C   UNL     1      49.124   5.211  16.721  0.00  0.00    +0.000 A 
ATOM     11  C   UNL     1      47.960   4.490  16.493  0.00  0.00    +0.000 A 
ATOM     12  C   UNL     1      47.179   4.845  15.389  0.00  0.00    +0.000 A 
BRANCH  11  13
ATOM     13  C   UNL     1      47.605   3.407  17.439  0.00  0.00    +0.000 C 
ATOM     14  N   UNL     1      48.556   2.954  18.306  0.00  0.00    +0.000 N 
ATOM     15  O   UNL     1      46.484   2.912  17.441  0.00  0.00    +0.000 OA
ATOM     16  H   UNL     1      49.493   3.311  18.398  0.00  0.00    +0.000 HD
ATOM     17  H   UNL     1      48.276   2.208  18.934  0.00  0.00    +0.000 HD
ENDBRANCH  11  13
ENDBRANCH   5   7
BRANCH   1  18
ATOM     18  C   UNL     1      43.854   4.988  11.271  0.00  0.00    +0.000 C 
ATOM     19  C   UNL     1      43.096   4.150  12.282  0.00  0.00    +0.000 C 
ATOM     20  C   UNL     1      42.498   5.436  11.822  0.00  0.00    +0.000 C 
BRANCH  18  21
ATOM     21  N   UNL     1      43.873   4.645   9.857  0.00  0.00    +0.000 N 
ATOM     22  H   UNL     1      43.376   5.237   9.199  0.00  0.00    +0.000 HD
BRANCH  21  26
ATOM     23  C   UNL     1      46.622   2.634   7.577  0.00  0.00    +0.000 A 
ATOM     24  C   UNL     1      46.435   3.999   7.508  0.00  0.00    +0.000 A 
ATOM     25  N   UNL     1      45.539   4.651   8.289  0.00  0.00    +0.000 NA
ATOM     26  C   UNL     1      44.806   3.906   9.147  0.00  0.00    +0.000 A 
ATOM     27  C   UNL     1      44.994   2.527   9.201  0.00  0.00    +0.000 A 
ATOM     28  N   UNL     1      45.904   1.857   8.428  0.00  0.00    +0.000 NA
BRANCH  23  30
ATOM     29  N   UNL     1      48.352   1.532   5.989  0.00  0.00    +0.000 NA
ATOM     30  C   UNL     1      47.590   1.997   6.728  0.00  0.00    +0.000 C 
ENDBRANCH  23  30
ENDBRANCH  21  26
ENDBRANCH  18  21
ENDBRANCH   1  18
TORSDOF 6
ENDMDL
MODEL 2
REMARK VINA RESULT:    -8.351      3.313      4.366
REMARK INTER + INTRA:         -12.086
REMARK INTER:                 -11.178
REMARK INTRA:                  -0.907
REMARK UNBOUND:                -0.806
REMARK  Name = 
REMARK  6 active torsions:
REMARK  status: ('A' for Active; 'I' for Inactive)
REMARK    1  A    between atoms: C_2  and  C_3
REMARK    2  A    between atoms: C_6  and  N_7
REMARK    3  A    between atoms: N_7  and  C_8
REMARK    4  A    between atoms: C_8  and  C_9
REMARK    5  A    between atoms: C_13  and  C_14
REMARK    6  A    between atoms: C_18  and  C_19
REMARK                            x       y       z     vdW  Elec       q    Type
REMARK                         _______ _______ _______ _____ _____    ______ ____
ROOT
ATOM      1  C   UNL     1      45.029   5.376  12.089  0.00  0.00    +0.000 A 
ATOM      2  C   UNL     1      45.392   4.569  13.179  0.00  0.00    +0.000 A 
ATOM      3  C   UNL     1      46.616   4.735  13.816  0.00  0.00    +0.000 A 
ATOM      4  C   UNL     1      47.470   5.761  13.415  0.00  0.00    +0.000 A 
ATOM      5  C   UNL     1      47.101   6.666  12.404  0.00  0.00    +0.000 A 
ATOM      6  C   UNL     1      45.877   6.442  11.753  0.00  0.00    +0.000 A 
ENDROOT
BRANCH   5   7
ATOM      7  C   UNL     1      47.956   7.806  12.028  0.00  0.00    +0.000 A 
ATOM      8  C   UNL     1      47.474   9.120  12.021  0.00  0.00    +0.000 A 
ATOM      9  N   UNL     1      48.206  10.217  11.720  0.00  0.00    +0.000 NA
ATOM     10  C   UNL     1      49.510  10.007  11.424  0.00  0.00    +0.000 A 
ATOM     11  C   UNL     1      50.106   8.753  11.392  0.00  0.00    +0.000 A 
ATOM     12  C   UNL     1      49.306   7.643  11.682  0.00  0.00    +0.000 A 
BRANCH  11  13
ATOM     13  C   UNL     1      51.550   8.667  11.078  0.00  0.00    +0.000 C 
ATOM     14  N   UNL     1      52.140   7.438  11.029  0.00  0.00    +0.000 N 
ATOM     15  O   UNL     1      52.215   9.677  10.877  0.00  0.00    +0.000 OA
ATOM     16  H   UNL     1      51.677   6.553  11.156  0.00  0.00    +0.000 HD
ATOM     17  H   UNL     1      53.132   7.421  10.817  0.00  0.00    +0.000 HD
ENDBRANCH  11  13
ENDBRANCH   5   7
BRANCH   1  18
ATOM     18  C   UNL     1      43.844   5.011  11.211  0.00  0.00    +0.000 C 
ATOM     19  C   UNL     1      42.676   4.257  11.816  0.00  0.00    +0.000 C 
ATOM     20  C   UNL     1      42.558   5.732  11.621  0.00  0.00    +0.000 C 
BRANCH  18  21
ATOM     21  N   UNL     1      44.115   4.978   9.781  0.00  0.00    +0.000 N 
ATOM     22  H   UNL     1      43.941   5.811   9.227  0.00  0.00    +0.000 HD
BRANCH  21  26
ATOM     23  C   UNL     1      46.705   2.757   7.510  0.00  0.00    +0.000 A 
ATOM     24  C   UNL     1      46.654   4.135   7.470  0.00  0.00    +0.000 A 
ATOM     25  N   UNL     1      45.809   4.855   8.249  0.00  0.00    +0.000 NA
ATOM     26  C   UNL     1      44.986   4.167   9.073  0.00  0.00    +0.000 A 
ATOM     27  C   UNL     1      45.038   2.776   9.097  0.00  0.00    +0.000 A 
ATOM     28  N   UNL     1      45.895   2.037   8.327  0.00  0.00    +0.000 NA
BRANCH  23  30
ATOM     29  N   UNL     1      48.391   1.540   5.960  0.00  0.00    +0.000 NA
ATOM     30  C   UNL     1      47.625   2.047   6.666  0.00  0.00    +0.000 C 
ENDBRANCH  23  30
ENDBRANCH  21  26
ENDBRANCH  18  21
ENDBRANCH   1  18
TORSDOF 6
ENDMDL
MODEL 3
REMARK VINA RESULT:    -7.793      1.585      1.998
REMARK INTER + INTRA:         -11.333
REMARK INTER:                 -11.082
REMARK INTRA:                  -0.251
REMARK UNBOUND:                -0.806
REMARK  Name = 
REMARK  6 active torsions:
REMARK  status: ('A' for Active; 'I' for Inactive)
REMARK    1  A    between atoms: C_2  and  C_3
REMARK    2  A    between atoms: C_6  and  N_7
REMARK    3  A    between atoms: N_7  and  C_8
REMARK    4  A    between atoms: C_8  and  C_9
REMARK    5  A    between atoms: C_13  and  C_14
REMARK    6  A    between atoms: C_18  and  C_19
REMARK                            x       y       z     vdW  Elec       q    Type
REMARK                         _______ _______ _______ _____ _____    ______ ____
ROOT
ATOM      1  C   UNL     1      45.205   5.159  11.891  0.00  0.00    +0.000 A 
ATOM      2  C   UNL     1      45.989   6.125  11.243  0.00  0.00    +0.000 A 
ATOM      3  C   UNL     1      47.134   6.638  11.842  0.00  0.00    +0.000 A 
ATOM      4  C   UNL     1      47.552   6.138  13.074  0.00  0.00    +0.000 A 
ATOM      5  C   UNL     1      46.862   5.089  13.708  0.00  0.00    +0.000 A 
ATOM      6  C   UNL     1      45.686   4.626  13.096  0.00  0.00    +0.000 A 
ENDROOT
BRANCH   5   7
ATOM      7  C   UNL     1      47.340   4.493  14.969  0.00  0.00    +0.000 A 
ATOM      8  C   UNL     1      47.770   3.163  15.040  0.00  0.00    +0.000 A 
ATOM      9  N   UNL     1      48.251   2.559  16.151  0.00  0.00    +0.000 NA
ATOM     10  C   UNL     1      48.331   3.323  17.265  0.00  0.00    +0.000 A 
ATOM     11  C   UNL     1      47.932   4.651  17.324  0.00  0.00    +0.000 A 
ATOM     12  C   UNL     1      47.414   5.229  16.161  0.00  0.00    +0.000 A 
BRANCH  11  13
ATOM     13  C   UNL     1      48.098   5.380  18.602  0.00  0.00    +0.000 C 
ATOM     14  N   UNL     1      47.042   5.446  19.463  0.00  0.00    +0.000 N 
ATOM     15  O   UNL     1      49.157   5.930  18.884  0.00  0.00    +0.000 OA
ATOM     16  H   UNL     1      46.144   5.010  19.334  0.00  0.00    +0.000 HD
ATOM     17  H   UNL     1      47.193   5.960  20.325  0.00  0.00    +0.000 HD
ENDBRANCH  11  13
ENDBRANCH   5   7
BRANCH   1  18
ATOM     18  C   UNL     1      43.813   4.819  11.385  0.00  0.00    +0.000 C 
ATOM     19  C   UNL     1      42.606   5.202  12.219  0.00  0.00    +0.000 C 
ATOM     20  C   UNL     1      42.981   6.061  11.059  0.00  0.00    +0.000 C 
BRANCH  18  21
ATOM     21  N   UNL     1      43.752   3.748  10.401  0.00  0.00    +0.000 N 
ATOM     22  H   UNL     1      42.847   3.367  10.142  0.00  0.00    +0.000 HD
BRANCH  21  26
ATOM     23  C   UNL     1      46.503   2.607   7.585  0.00  0.00    +0.000 A 
ATOM     24  C   UNL     1      45.955   1.736   8.505  0.00  0.00    +0.000 A 
ATOM     25  N   UNL     1      45.026   2.126   9.412  0.00  0.00    +0.000 NA
ATOM     26  C   UNL     1      44.654   3.426   9.401  0.00  0.00    +0.000 A 
ATOM     27  C   UNL     1      45.222   4.299   8.476  0.00  0.00    +0.000 A 
ATOM     28  N   UNL     1      46.151   3.917   7.546  0.00  0.00    +0.000 NA
BRANCH  23  30
ATOM     29  N   UNL     1      48.242   1.689   5.893  0.00  0.00    +0.000 NA
ATOM     30  C   UNL     1      47.481   2.136   6.644  0.00  0.00    +0.000 C 
ENDBRANCH  23  30
ENDBRANCH  21  26
ENDBRANCH  18  21
ENDBRANCH   1  18
TORSDOF 6
ENDMDL
MODEL 4
REMARK VINA RESULT:    -7.632      1.343      1.668
REMARK INTER + INTRA:         -11.115
REMARK INTER:                 -10.425
REMARK INTRA:                  -0.690
REMARK UNBOUND:                -0.806
REMARK  Name = 
REMARK  6 active torsions:
REMARK  status: ('A' for Active; 'I' for Inactive)
REMARK    1  A    between atoms: C_2  and  C_3
REMARK    2  A    between atoms: C_6  and  N_7
REMARK    3  A    between atoms: N_7  and  C_8
REMARK    4  A    between atoms: C_8  and  C_9
REMARK    5  A    between atoms: C_13  and  C_14
REMARK    6  A    between atoms: C_18  and  C_19
REMARK                            x       y       z     vdW  Elec       q    Type
REMARK                         _______ _______ _______ _____ _____    ______ ____
ROOT
ATOM      1  C   UNL     1      44.792   6.439  11.543  0.00  0.00    +0.000 A 
ATOM      2  C   UNL     1      44.324   7.710  11.175  0.00  0.00    +0.000 A 
ATOM      3  C   UNL     1      44.923   8.864  11.666  0.00  0.00    +0.000 A 
ATOM      4  C   UNL     1      46.050   8.765  12.481  0.00  0.00    +0.000 A 
ATOM      5  C   UNL     1      46.624   7.517  12.783  0.00  0.00    +0.000 A 
ATOM      6  C   UNL     1      45.967   6.371  12.307  0.00  0.00    +0.000 A 
ENDROOT
BRANCH   5   7
ATOM      7  C   UNL     1      47.864   7.401  13.572  0.00  0.00    +0.000 A 
ATOM      8  C   UNL     1      49.032   8.084  13.217  0.00  0.00    +0.000 A 
ATOM      9  N   UNL     1      50.194   8.051  13.910  0.00  0.00    +0.000 NA
ATOM     10  C   UNL     1      50.200   7.309  15.041  0.00  0.00    +0.000 A 
ATOM     11  C   UNL     1      49.108   6.583  15.497  0.00  0.00    +0.000 A 
ATOM     12  C   UNL     1      47.936   6.620  14.737  0.00  0.00    +0.000 A 
BRANCH  11  13
ATOM     13  C   UNL     1      49.242   5.832  16.767  0.00  0.00    +0.000 C 
ATOM     14  N   UNL     1      50.419   5.195  17.033  0.00  0.00    +0.000 N 
ATOM     15  O   UNL     1      48.313   5.767  17.564  0.00  0.00    +0.000 OA
ATOM     16  H   UNL     1      51.244   5.209  16.456  0.00  0.00    +0.000 HD
ATOM     17  H   UNL     1      50.470   4.687  17.909  0.00  0.00    +0.000 HD
ENDBRANCH  11  13
ENDBRANCH   5   7
BRANCH   1  18
ATOM     18  C   UNL     1      43.971   5.194  11.256  0.00  0.00    +0.000 C 
ATOM     19  C   UNL     1      43.687   4.217  12.381  0.00  0.00    +0.000 C 
ATOM     20  C   UNL     1      42.626   5.190  11.988  0.00  0.00    +0.000 C 
BRANCH  18  21
ATOM     21  N   UNL     1      43.925   4.785   9.860  0.00  0.00    +0.000 N 
ATOM     22  H   UNL     1      43.382   5.335   9.203  0.00  0.00    +0.000 HD
BRANCH  21  26
ATOM     23  C   UNL     1      46.628   2.741   7.554  0.00  0.00    +0.000 A 
ATOM     24  C   UNL     1      46.526   4.117   7.561  0.00  0.00    +0.000 A 
ATOM     25  N   UNL     1      45.644   4.777   8.350  0.00  0.00    +0.000 NA
ATOM     26  C   UNL     1      44.836   4.032   9.138  0.00  0.00    +0.000 A 
ATOM     27  C   UNL     1      44.940   2.643   9.116  0.00  0.00    +0.000 A 
ATOM     28  N   UNL     1      45.835   1.963   8.334  0.00  0.00    +0.000 NA
BRANCH  23  30
ATOM     29  N   UNL     1      48.352   1.513   6.055  0.00  0.00    +0.000 NA
ATOM     30  C   UNL     1      47.586   2.095   6.700  0.00  0.00    +0.000 C 
ENDBRANCH  23  30
ENDBRANCH  21  26
ENDBRANCH  18  21
ENDBRANCH   1  18
TORSDOF 6
ENDMDL
MODEL 5
REMARK VINA RESULT:    -7.465      2.769      3.690
REMARK INTER + INTRA:         -10.889
REMARK INTER:                 -10.245
REMARK INTRA:                  -0.644
REMARK UNBOUND:                -0.806
REMARK  Name = 
REMARK  6 active torsions:
REMARK  status: ('A' for Active; 'I' for Inactive)
REMARK    1  A    between atoms: C_2  and  C_3
REMARK    2  A    between atoms: C_6  and  N_7
REMARK    3  A    between atoms: N_7  and  C_8
REMARK    4  A    between atoms: C_8  and  C_9
REMARK    5  A    between atoms: C_13  and  C_14
REMARK    6  A    between atoms: C_18  and  C_19
REMARK                            x       y       z     vdW  Elec       q    Type
REMARK                         _______ _______ _______ _____ _____    ______ ____
ROOT
ATOM      1  C   UNL     1      44.658   6.530  11.365  0.00  0.00    +0.000 A 
ATOM      2  C   UNL     1      44.026   7.759  11.119  0.00  0.00    +0.000 A 
ATOM      3  C   UNL     1      44.602   8.956  11.529  0.00  0.00    +0.000 A 
ATOM      4  C   UNL     1      45.859   8.947  12.131  0.00  0.00    +0.000 A 
ATOM      5  C   UNL     1      46.582   7.752  12.295  0.00  0.00    +0.000 A 
ATOM      6  C   UNL     1      45.951   6.557  11.910  0.00  0.00    +0.000 A 
ENDROOT
BRANCH   5   7
ATOM      7  C   UNL     1      47.947   7.736  12.853  0.00  0.00    +0.000 A 
ATOM      8  C   UNL     1      48.263   7.019  14.012  0.00  0.00    +0.000 A 
ATOM      9  N   UNL     1      49.496   6.932  14.562  0.00  0.00    +0.000 NA
ATOM     10  C   UNL     1      50.491   7.580  13.913  0.00  0.00    +0.000 A 
ATOM     11  C   UNL     1      50.305   8.329  12.759  0.00  0.00    +0.000 A 
ATOM     12  C   UNL     1      49.010   8.417  12.240  0.00  0.00    +0.000 A 
BRANCH  11  13
ATOM     13  C   UNL     1      51.487   8.968  12.136  0.00  0.00    +0.000 C 
ATOM     14  N   UNL     1      52.382   9.616  12.936  0.00  0.00    +0.000 N 
ATOM     15  O   UNL     1      51.658   8.933  10.923  0.00  0.00    +0.000 OA
ATOM     16  H   UNL     1      52.342   9.679  13.940  0.00  0.00    +0.000 HD
ATOM     17  H   UNL     1      53.174  10.046  12.472  0.00  0.00    +0.000 HD
ENDBRANCH  11  13
ENDBRANCH   5   7
BRANCH   1  18
ATOM     18  C   UNL     1      43.908   5.220  11.193  0.00  0.00    +0.000 C 
ATOM     19  C   UNL     1      43.720   4.310  12.391  0.00  0.00    +0.000 C 
ATOM     20  C   UNL     1      42.589   5.187  11.969  0.00  0.00    +0.000 C 
BRANCH  18  21
ATOM     21  N   UNL     1      43.846   4.712   9.831  0.00  0.00    +0.000 N 
ATOM     22  H   UNL     1      43.245   5.176   9.158  0.00  0.00    +0.000 HD
BRANCH  21  26
ATOM     23  C   UNL     1      46.625   2.709   7.580  0.00  0.00    +0.000 A 
ATOM     24  C   UNL     1      46.486   4.082   7.566  0.00  0.00    +0.000 A 
ATOM     25  N   UNL     1      45.579   4.730   8.337  0.00  0.00    +0.000 NA
ATOM     26  C   UNL     1      44.785   3.974   9.128  0.00  0.00    +0.000 A 
ATOM     27  C   UNL     1      44.925   2.588   9.127  0.00  0.00    +0.000 A 
ATOM     28  N   UNL     1      45.846   1.922   8.363  0.00  0.00    +0.000 NA
BRANCH  23  30
ATOM     29  N   UNL     1      48.360   1.505   6.074  0.00  0.00    +0.000 NA
ATOM     30  C   UNL     1      47.608   2.077   6.744  0.00  0.00    +0.000 C 
ENDBRANCH  23  30
ENDBRANCH  21  26
ENDBRANCH  18  21
ENDBRANCH   1  18
TORSDOF 6
ENDMDL
MODEL 6
REMARK VINA RESULT:    -7.195      2.992      4.396
REMARK INTER + INTRA:         -10.525
REMARK INTER:                 -10.135
REMARK INTRA:                  -0.390
REMARK UNBOUND:                -0.806
REMARK  Name = 
REMARK  6 active torsions:
REMARK  status: ('A' for Active; 'I' for Inactive)
REMARK    1  A    between atoms: C_2  and  C_3
REMARK    2  A    between atoms: C_6  and  N_7
REMARK    3  A    between atoms: N_7  and  C_8
REMARK    4  A    between atoms: C_8  and  C_9
REMARK    5  A    between atoms: C_13  and  C_14
REMARK    6  A    between atoms: C_18  and  C_19
REMARK                            x       y       z     vdW  Elec       q    Type
REMARK                         _______ _______ _______ _____ _____    ______ ____
ROOT
ATOM      1  C   UNL     1      44.881   4.910  12.195  0.00  0.00    +0.000 A 
ATOM      2  C   UNL     1      45.294   3.750  12.870  0.00  0.00    +0.000 A 
ATOM      3  C   UNL     1      46.575   3.646  13.398  0.00  0.00    +0.000 A 
ATOM      4  C   UNL     1      47.445   4.732  13.320  0.00  0.00    +0.000 A 
ATOM      5  C   UNL     1      47.038   5.954  12.755  0.00  0.00    +0.000 A 
ATOM      6  C   UNL     1      45.752   6.010  12.192  0.00  0.00    +0.000 A 
ENDROOT
BRANCH   5   7
ATOM      7  C   UNL     1      47.917   7.138  12.741  0.00  0.00    +0.000 A 
ATOM      8  C   UNL     1      49.171   7.134  13.363  0.00  0.00    +0.000 A 
ATOM      9  N   UNL     1      50.043   8.168  13.364  0.00  0.00    +0.000 NA
ATOM     10  C   UNL     1      49.661   9.277  12.689  0.00  0.00    +0.000 A 
ATOM     11  C   UNL     1      48.443   9.407  12.036  0.00  0.00    +0.000 A 
ATOM     12  C   UNL     1      47.559   8.325  12.085  0.00  0.00    +0.000 A 
BRANCH  11  13
ATOM     13  C   UNL     1      48.162  10.668  11.313  0.00  0.00    +0.000 C 
ATOM     14  N   UNL     1      49.146  11.220  10.546  0.00  0.00    +0.000 N 
ATOM     15  O   UNL     1      47.073  11.222  11.407  0.00  0.00    +0.000 OA
ATOM     16  H   UNL     1      50.061  10.831  10.388  0.00  0.00    +0.000 HD
ATOM     17  H   UNL     1      48.918  12.086  10.072  0.00  0.00    +0.000 HD
ENDBRANCH  11  13
ENDBRANCH   5   7
BRANCH   1  18
ATOM     18  C   UNL     1      43.607   4.917  11.367  0.00  0.00    +0.000 C 
ATOM     19  C   UNL     1      42.355   5.553  11.938  0.00  0.00    +0.000 C 
ATOM     20  C   UNL     1      43.173   6.328  10.961  0.00  0.00    +0.000 C 
BRANCH  18  21
ATOM     21  N   UNL     1      43.543   3.915  10.314  0.00  0.00    +0.000 N 
ATOM     22  H   UNL     1      42.637   3.654   9.937  0.00  0.00    +0.000 HD
BRANCH  21  26
ATOM     23  C   UNL     1      46.460   2.623   7.742  0.00  0.00    +0.000 A 
ATOM     24  C   UNL     1      45.752   1.777   8.569  0.00  0.00    +0.000 A 
ATOM     25  N   UNL     1      44.771   2.218   9.395  0.00  0.00    +0.000 NA
ATOM     26  C   UNL     1      44.512   3.545   9.396  0.00  0.00    +0.000 A 
ATOM     27  C   UNL     1      45.241   4.393   8.565  0.00  0.00    +0.000 A 
ATOM     28  N   UNL     1      46.224   3.960   7.717  0.00  0.00    +0.000 NA
BRANCH  23  30
ATOM     29  N   UNL     1      48.362   1.718   6.228  0.00  0.00    +0.000 NA
ATOM     30  C   UNL     1      47.486   2.098   6.883  0.00  0.00    +0.000 C 
ENDBRANCH  23  30
ENDBRANCH  21  26
ENDBRANCH  18  21
ENDBRANCH   1  18
TORSDOF 6
ENDMDL
MODEL 7
REMARK VINA RESULT:    -6.927      2.709      8.028
REMARK INTER + INTRA:         -10.162
REMARK INTER:                  -9.576
REMARK INTRA:                  -0.586
REMARK UNBOUND:                -0.806
REMARK  Name = 
REMARK  6 active torsions:
REMARK  status: ('A' for Active; 'I' for Inactive)
REMARK    1  A    between atoms: C_2  and  C_3
REMARK    2  A    between atoms: C_6  and  N_7
REMARK    3  A    between atoms: N_7  and  C_8
REMARK    4  A    between atoms: C_8  and  C_9
REMARK    5  A    between atoms: C_13  and  C_14
REMARK    6  A    between atoms: C_18  and  C_19
REMARK                            x       y       z     vdW  Elec       q    Type
REMARK                         _______ _______ _______ _____ _____    ______ ____
ROOT
ATOM      1  C   UNL     1      47.894   7.679  12.807  0.00  0.00    +0.000 A 
ATOM      2  C   UNL     1      47.131   8.835  13.036  0.00  0.00    +0.000 A 
ATOM      3  C   UNL     1      45.755   8.835  12.838  0.00  0.00    +0.000 A 
ATOM      4  C   UNL     1      45.109   7.655  12.472  0.00  0.00    +0.000 A 
ATOM      5  C   UNL     1      45.816   6.446  12.343  0.00  0.00    +0.000 A 
ATOM      6  C   UNL     1      47.210   6.491  12.507  0.00  0.00    +0.000 A 
ENDROOT
BRANCH   5   7
ATOM      7  C   UNL     1      45.135   5.174  12.041  0.00  0.00    +0.000 A 
ATOM      8  C   UNL     1      44.353   4.510  12.993  0.00  0.00    +0.000 A 
ATOM      9  N   UNL     1      43.674   3.360  12.779  0.00  0.00    +0.000 NA
ATOM     10  C   UNL     1      43.755   2.837  11.534  0.00  0.00    +0.000 A 
ATOM     11  C   UNL     1      44.500   3.396  10.504  0.00  0.00    +0.000 A 
ATOM     12  C   UNL     1      45.210   4.570  10.776  0.00  0.00    +0.000 A 
BRANCH  11  13
ATOM     13  C   UNL     1      44.481   2.734   9.180  0.00  0.00    +0.000 C 
ATOM     14  N   UNL     1      44.384   3.506   8.060  0.00  0.00    +0.000 N 
ATOM     15  O   UNL     1      44.537   1.513   9.083  0.00  0.00    +0.000 OA
ATOM     16  H   UNL     1      44.356   4.512   8.035  0.00  0.00    +0.000 HD
ATOM     17  H   UNL     1      44.368   3.016   7.173  0.00  0.00    +0.000 HD
ENDBRANCH  11  13
ENDBRANCH   5   7
BRANCH   1  18
ATOM     18  C   UNL     1      49.410   7.750  12.732  0.00  0.00    +0.000 C 
ATOM     19  C   UNL     1      50.089   7.698  11.377  0.00  0.00    +0.000 C 
ATOM     20  C   UNL     1      49.910   9.021  12.042  0.00  0.00    +0.000 C 
BRANCH  18  21
ATOM     21  N   UNL     1      50.112   7.382  13.952  0.00  0.00    +0.000 N 
ATOM     22  H   UNL     1      51.109   7.561  14.021  0.00  0.00    +0.000 HD
BRANCH  21  26
ATOM     23  C   UNL     1      48.519   6.726  17.671  0.00  0.00    +0.000 A 
ATOM     24  C   UNL     1      48.733   5.721  16.751  0.00  0.00    +0.000 A 
ATOM     25  N   UNL     1      49.285   5.952  15.535  0.00  0.00    +0.000 NA
ATOM     26  C   UNL     1      49.615   7.229  15.236  0.00  0.00    +0.000 A 
ATOM     27  C   UNL     1      49.385   8.239  16.168  0.00  0.00    +0.000 A 
ATOM     28  N   UNL     1      48.840   8.018  17.404  0.00  0.00    +0.000 NA
BRANCH  23  30
ATOM     29  N   UNL     1      47.443   6.109  19.949  0.00  0.00    +0.000 NA
ATOM     30  C   UNL     1      47.934   6.422  18.948  0.00  0.00    +0.000 C 
ENDBRANCH  23  30
ENDBRANCH  21  26
ENDBRANCH  18  21
ENDBRANCH   1  18
TORSDOF 6
ENDMDL
MODEL 8
REMARK VINA RESULT:    -6.696      3.242      7.585
REMARK INTER + INTRA:          -9.850
REMARK INTER:                  -8.953
REMARK INTRA:                  -0.897
REMARK UNBOUND:                -0.806
REMARK  Name = 
REMARK  6 active torsions:
REMARK  status: ('A' for Active; 'I' for Inactive)
REMARK    1  A    between atoms: C_2  and  C_3
REMARK    2  A    between atoms: C_6  and  N_7
REMARK    3  A    between atoms: N_7  and  C_8
REMARK    4  A    between atoms: C_8  and  C_9
REMARK    5  A    between atoms: C_13  and  C_14
REMARK    6  A    between atoms: C_18  and  C_19
REMARK                            x       y       z     vdW  Elec       q    Type
REMARK                         _______ _______ _______ _____ _____    ______ ____
ROOT
ATOM      1  C   UNL     1      48.568   7.854  14.493  0.00  0.00    +0.000 A 
ATOM      2  C   UNL     1      49.638   7.981  13.593  0.00  0.00    +0.000 A 
ATOM      3  C   UNL     1      49.531   7.522  12.285  0.00  0.00    +0.000 A 
ATOM      4  C   UNL     1      48.324   6.989  11.836  0.00  0.00    +0.000 A 
ATOM      5  C   UNL     1      47.191   6.947  12.667  0.00  0.00    +0.000 A 
ATOM      6  C   UNL     1      47.346   7.379  13.994  0.00  0.00    +0.000 A 
ENDROOT
BRANCH   5   7
ATOM      7  C   UNL     1      45.885   6.466  12.180  0.00  0.00    +0.000 A 
ATOM      8  C   UNL     1      44.877   7.349  11.774  0.00  0.00    +0.000 A 
ATOM      9  N   UNL     1      43.670   6.981  11.286  0.00  0.00    +0.000 NA
ATOM     10  C   UNL     1      43.446   5.652  11.173  0.00  0.00    +0.000 A 
ATOM     11  C   UNL     1      44.361   4.677  11.546  0.00  0.00    +0.000 A 
ATOM     12  C   UNL     1      45.586   5.099  12.072  0.00  0.00    +0.000 A 
BRANCH  11  13
ATOM     13  C   UNL     1      43.998   3.256  11.346  0.00  0.00    +0.000 C 
ATOM     14  N   UNL     1      43.861   2.452  12.439  0.00  0.00    +0.000 N 
ATOM     15  O   UNL     1      43.836   2.797  10.221  0.00  0.00    +0.000 OA
ATOM     16  H   UNL     1      43.950   2.738  13.400  0.00  0.00    +0.000 HD
ATOM     17  H   UNL     1      43.618   1.483  12.261  0.00  0.00    +0.000 HD
ENDBRANCH  11  13
ENDBRANCH   5   7
BRANCH   1  18
ATOM     18  C   UNL     1      48.774   8.075  15.982  0.00  0.00    +0.000 C 
ATOM     19  C   UNL     1      49.810   9.079  16.448  0.00  0.00    +0.000 C 
ATOM     20  C   UNL     1      48.374   9.482  16.433  0.00  0.00    +0.000 C 
BRANCH  18  21
ATOM     21  N   UNL     1      48.322   6.990  16.841  0.00  0.00    +0.000 N 
ATOM     22  H   UNL     1      47.359   6.982  17.161  0.00  0.00    +0.000 HD
BRANCH  21  26
ATOM     23  C   UNL     1      50.042   3.286  17.192  0.00  0.00    +0.000 A 
ATOM     24  C   UNL     1      50.682   4.455  17.549  0.00  0.00    +0.000 A 
ATOM     25  N   UNL     1      50.088   5.670  17.451  0.00  0.00    +0.000 NA
ATOM     26  C   UNL     1      48.825   5.706  16.967  0.00  0.00    +0.000 A 
ATOM     27  C   UNL     1      48.192   4.521  16.599  0.00  0.00    +0.000 A 
ATOM     28  N   UNL     1      48.775   3.287  16.704  0.00  0.00    +0.000 NA
BRANCH  23  30
ATOM     29  N   UNL     1      51.215   0.981  17.380  0.00  0.00    +0.000 NA
ATOM     30  C   UNL     1      50.720   2.026  17.322  0.00  0.00    +0.000 C 
ENDBRANCH  23  30
ENDBRANCH  21  26
ENDBRANCH  18  21
ENDBRANCH   1  18
TORSDOF 6
ENDMDL
MODEL 9
REMARK VINA RESULT:    -6.437      3.516      4.613
REMARK INTER + INTRA:          -9.501
REMARK INTER:                  -8.793
REMARK INTRA:                  -0.708
REMARK UNBOUND:                -0.806
REMARK  Name = 
REMARK  6 active torsions:
REMARK  status: ('A' for Active; 'I' for Inactive)
REMARK    1  A    between atoms: C_2  and  C_3
REMARK    2  A    between atoms: C_6  and  N_7
REMARK    3  A    between atoms: N_7  and  C_8
REMARK    4  A    between atoms: C_8  and  C_9
REMARK    5  A    between atoms: C_13  and  C_14
REMARK    6  A    between atoms: C_18  and  C_19
REMARK                            x       y       z     vdW  Elec       q    Type
REMARK                         _______ _______ _______ _____ _____    ______ ____
ROOT
ATOM      1  C   UNL     1      45.992   6.470  12.139  0.00  0.00    +0.000 A 
ATOM      2  C   UNL     1      45.148   7.586  12.252  0.00  0.00    +0.000 A 
ATOM      3  C   UNL     1      45.666   8.857  12.472  0.00  0.00    +0.000 A 
ATOM      4  C   UNL     1      47.047   9.043  12.513  0.00  0.00    +0.000 A 
ATOM      5  C   UNL     1      47.934   7.974  12.290  0.00  0.00    +0.000 A 
ATOM      6  C   UNL     1      47.376   6.697  12.115  0.00  0.00    +0.000 A 
ENDROOT
BRANCH   5   7
ATOM      7  C   UNL     1      49.394   8.170  12.245  0.00  0.00    +0.000 A 
ATOM      8  C   UNL     1      50.100   8.712  13.326  0.00  0.00    +0.000 A 
ATOM      9  N   UNL     1      51.441   8.890  13.369  0.00  0.00    +0.000 NA
ATOM     10  C   UNL     1      52.137   8.489  12.280  0.00  0.00    +0.000 A 
ATOM     11  C   UNL     1      51.553   7.943  11.145  0.00  0.00    +0.000 A 
ATOM     12  C   UNL     1      50.162   7.803  11.130  0.00  0.00    +0.000 A 
BRANCH  11  13
ATOM     13  C   UNL     1      52.435   7.522  10.032  0.00  0.00    +0.000 C 
ATOM     14  N   UNL     1      52.733   8.425   9.053  0.00  0.00    +0.000 N 
ATOM     15  O   UNL     1      52.882   6.383   9.975  0.00  0.00    +0.000 OA
ATOM     16  H   UNL     1      52.436   9.386   9.023  0.00  0.00    +0.000 HD
ATOM     17  H   UNL     1      53.335   8.098   8.305  0.00  0.00    +0.000 HD
ENDBRANCH  11  13
ENDBRANCH   5   7
BRANCH   1  18
ATOM     18  C   UNL     1      45.430   5.060  12.199  0.00  0.00    +0.000 C 
ATOM     19  C   UNL     1      46.023   4.066  13.177  0.00  0.00    +0.000 C 
ATOM     20  C   UNL     1      44.747   4.751  13.532  0.00  0.00    +0.000 C 
BRANCH  18  21
ATOM     21  N   UNL     1      44.711   4.625  11.011  0.00  0.00    +0.000 N 
ATOM     22  H   UNL     1      43.743   4.906  10.890  0.00  0.00    +0.000 HD
BRANCH  21  26
ATOM     23  C   UNL     1      46.211   3.308   7.431  0.00  0.00    +0.000 A 
ATOM     24  C   UNL     1      45.556   2.487   8.326  0.00  0.00    +0.000 A 
ATOM     25  N   UNL     1      45.042   2.946   9.493  0.00  0.00    +0.000 NA
ATOM     26  C   UNL     1      45.208   4.259   9.771  0.00  0.00    +0.000 A 
ATOM     27  C   UNL     1      45.881   5.077   8.866  0.00  0.00    +0.000 A 
ATOM     28  N   UNL     1      46.393   4.630   7.678  0.00  0.00    +0.000 NA
BRANCH  23  30
ATOM     29  N   UNL     1      47.217   2.352   5.240  0.00  0.00    +0.000 NA
ATOM     30  C   UNL     1      46.730   2.767   6.206  0.00  0.00    +0.000 C 
ENDBRANCH  23  30
ENDBRANCH  21  26
ENDBRANCH  18  21
ENDBRANCH   1  18
TORSDOF 6
ENDMDL
