MODEL 1
REMARK VINA RESULT:    -8.209      0.000      0.000
REMARK INTER + INTRA:         -10.225
REMARK INTER:                  -9.648
REMARK INTRA:                  -0.577
REMARK UNBOUND:                -0.577
REMARK  Name = 
REMARK  3 active torsions:
REMARK  status: ('A' for Active; 'I' for Inactive)
REMARK    1  A    between atoms: C_2  and  C_4
REMARK    2  A    between atoms: N_8  and  C_9
REMARK    3  A    between atoms: C_9  and  C_10
REMARK                            x       y       z     vdW  Elec       q    Type
REMARK                         _______ _______ _______ _____ _____    ______ ____
ROOT
ATOM      1  C   UNL     1      46.529   2.648   7.539  0.00  0.00    +0.000 A 
ATOM      2  C   UNL     1      46.280   4.006   7.714  0.00  0.00    +0.000 A 
ATOM      3  C   UNL     1      45.392   4.417   8.714  0.00  0.00    +0.000 A 
ATOM      4  C   UNL     1      44.762   3.463   9.506  0.00  0.00    +0.000 A 
ATOM      5  N   UNL     1      43.779   3.777  10.448  0.00  0.00    +0.000 N 
ATOM      6  N   UNL     1      44.996   2.145   9.345  0.00  0.00    +0.000 NA
ATOM      7  C   UNL     1      45.867   1.763   8.374  0.00  0.00    +0.000 A 
ATOM      8  H   UNL     1      43.552   2.893  10.901  0.00  0.00    +0.000 HD
ENDROOT
BRANCH   1  10
ATOM      9  N   UNL     1      47.689   2.921   5.417  0.00  0.00    +0.000 N 
ATOM     10  C   UNL     1      47.418   2.112   6.487  0.00  0.00    +0.000 C 
ATOM     11  O   UNL     1      47.918   0.997   6.577  0.00  0.00    +0.000 OA
ATOM     12  H   UNL     1      48.367   2.574   4.753  0.00  0.00    +0.000 HD
ATOM     13  H   UNL     1      47.507   3.915   5.422  0.00  0.00    +0.000 HD
ENDBRANCH   1  10
BRANCH   5  14
ATOM     14  C   UNL     1      43.805   4.962  11.324  0.00  0.00    +0.000 C 
ATOM     15  C   UNL     1      42.460   5.312  11.957  0.00  0.00    +0.000 C 
ATOM     16  C   UNL     1      43.084   6.250  10.980  0.00  0.00    +0.000 C 
BRANCH  14  17
ATOM     17  C   UNL     1      45.044   5.039  12.206  0.00  0.00    +0.000 A 
ATOM     18  C   UNL     1      45.916   6.139  12.186  0.00  0.00    +0.000 A 
ATOM     19  C   UNL     1      47.016   6.196  13.039  0.00  0.00    +0.000 A 
ATOM     20  C   UNL     1      47.227   5.140  13.907  0.00  0.00    +0.000 A 
ATOM     21  N   UNL     1      46.432   4.054  13.965  0.00  0.00    +0.000 NA
ATOM     22  C   UNL     1      45.369   4.035  13.121  0.00  0.00    +0.000 A 
ENDBRANCH  14  17
ENDBRANCH   5  14
TORSDOF 3
ENDMDL
MODEL 2
REMARK VINA RESULT:    -6.182      3.317      6.246
REMARK INTER + INTRA:          -7.843
REMARK INTER:                  -7.534
REMARK INTRA:                  -0.309
REMARK UNBOUND:                -0.577
REMARK  Name = 
REMARK  3 active torsions:
REMARK  status: ('A' for Active; 'I' for Inactive)
REMARK    1  A    between atoms: C_2  and  C_4
REMARK    2  A    between atoms: N_8  and  C_9
REMARK    3  A    between atoms: C_9  and  C_10
REMARK                            x       y       z     vdW  Elec       q    Type
REMARK                         _______ _______ _______ _____ _____    ______ ____
ROOT
ATOM      1  C   UNL     1      48.306   6.846  13.608  0.00  0.00    +0.000 A 
ATOM      2  C   UNL     1      47.629   5.689  13.985  0.00  0.00    +0.000 A 
ATOM      3  C   UNL     1      46.515   5.276  13.248  0.00  0.00    +0.000 A 
ATOM      4  C   UNL     1      46.092   6.033  12.161  0.00  0.00    +0.000 A 
ATOM      5  N   UNL     1      44.927   5.757  11.441  0.00  0.00    +0.000 N 
ATOM      6  N   UNL     1      46.740   7.155  11.786  0.00  0.00    +0.000 NA
ATOM      7  C   UNL     1      47.826   7.539  12.510  0.00  0.00    +0.000 A 
ATOM      8  H   UNL     1      44.914   6.438  10.683  0.00  0.00    +0.000 HD
ENDROOT
BRANCH   1  10
ATOM      9  N   UNL     1      50.623   7.591  13.640  0.00  0.00    +0.000 N 
ATOM     10  C   UNL     1      49.468   7.386  14.345  0.00  0.00    +0.000 C 
ATOM     11  O   UNL     1      49.398   7.666  15.535  0.00  0.00    +0.000 OA
ATOM     12  H   UNL     1      51.378   8.043  14.138  0.00  0.00    +0.000 HD
ATOM     13  H   UNL     1      50.651   7.612  12.630  0.00  0.00    +0.000 HD
ENDBRANCH   1  10
BRANCH   5  14
ATOM     14  C   UNL     1      44.453   4.404  11.100  0.00  0.00    +0.000 C 
ATOM     15  C   UNL     1      42.955   4.186  11.305  0.00  0.00    +0.000 C 
ATOM     16  C   UNL     1      43.934   3.432  12.140  0.00  0.00    +0.000 C 
BRANCH  14  17
ATOM     17  C   UNL     1      45.083   3.841   9.832  0.00  0.00    +0.000 A 
ATOM     18  C   UNL     1      45.170   2.462   9.583  0.00  0.00    +0.000 A 
ATOM     19  C   UNL     1      45.712   1.983   8.392  0.00  0.00    +0.000 A 
ATOM     20  C   UNL     1      46.161   2.901   7.461  0.00  0.00    +0.000 A 
ATOM     21  N   UNL     1      46.115   4.235   7.648  0.00  0.00    +0.000 NA
ATOM     22  C   UNL     1      45.578   4.664   8.818  0.00  0.00    +0.000 A 
ENDBRANCH  14  17
ENDBRANCH   5  14
TORSDOF 3
ENDMDL
MODEL 3
REMARK VINA RESULT:    -5.812      3.164      6.563
REMARK INTER + INTRA:          -7.409
REMARK INTER:                  -7.954
REMARK INTRA:                   0.545
REMARK UNBOUND:                -0.577
REMARK  Name = 
REMARK  3 active torsions:
REMARK  status: ('A' for Active; 'I' for Inactive)
REMARK    1  A    between atoms: C_2  and  C_4
REMARK    2  A    between atoms: N_8  and  C_9
REMARK    3  A    between atoms: C_9  and  C_10
REMARK                            x       y       z     vdW  Elec       q    Type
REMARK                         _______ _______ _______ _____ _____    ______ ____
ROOT
ATOM      1  C   UNL     1      48.105   5.846  15.210  0.00  0.00    +0.000 A 
ATOM      2  C   UNL     1      47.817   6.300  13.926  0.00  0.00    +0.000 A 
ATOM      3  C   UNL     1      46.897   5.598  13.141  0.00  0.00    +0.000 A 
ATOM      4  C   UNL     1      46.298   4.450  13.647  0.00  0.00    +0.000 A 
ATOM      5  N   UNL     1      45.458   3.627  12.893  0.00  0.00    +0.000 N 
ATOM      6  N   UNL     1      46.570   4.001  14.889  0.00  0.00    +0.000 NA
ATOM      7  C   UNL     1      47.460   4.699  15.642  0.00  0.00    +0.000 A 
ATOM      8  H   UNL     1      45.135   2.910  13.540  0.00  0.00    +0.000 HD
ENDROOT
BRANCH   1  10
ATOM      9  N   UNL     1      48.669   7.576  16.826  0.00  0.00    +0.000 N 
ATOM     10  C   UNL     1      49.089   6.495  16.101  0.00  0.00    +0.000 C 
ATOM     11  O   UNL     1      50.233   6.069  16.211  0.00  0.00    +0.000 OA
ATOM     12  H   UNL     1      49.327   7.951  17.495  0.00  0.00    +0.000 HD
ATOM     13  H   UNL     1      47.692   7.801  16.956  0.00  0.00    +0.000 HD
ENDBRANCH   1  10
BRANCH   5  14
ATOM     14  C   UNL     1      44.464   4.111  11.919  0.00  0.00    +0.000 C 
ATOM     15  C   UNL     1      43.797   5.433  12.299  0.00  0.00    +0.000 C 
ATOM     16  C   UNL     1      42.983   4.186  12.229  0.00  0.00    +0.000 C 
BRANCH  14  17
ATOM     17  C   UNL     1      44.893   3.926  10.469  0.00  0.00    +0.000 A 
ATOM     18  C   UNL     1      44.672   2.731   9.765  0.00  0.00    +0.000 A 
ATOM     19  C   UNL     1      45.037   2.611   8.427  0.00  0.00    +0.000 A 
ATOM     20  C   UNL     1      45.622   3.701   7.807  0.00  0.00    +0.000 A 
ATOM     21  N   UNL     1      45.869   4.869   8.432  0.00  0.00    +0.000 NA
ATOM     22  C   UNL     1      45.497   4.949   9.735  0.00  0.00    +0.000 A 
ENDBRANCH  14  17
ENDBRANCH   5  14
TORSDOF 3
ENDMDL
MODEL 4
REMARK VINA RESULT:    -5.343      3.243      5.149
REMARK INTER + INTRA:          -6.857
REMARK INTER:                  -6.752
REMARK INTRA:                  -0.105
REMARK UNBOUND:                -0.577
REMARK  Name = 
REMARK  3 active torsions:
REMARK  status: ('A' for Active; 'I' for Inactive)
REMARK    1  A    between atoms: C_2  and  C_4
REMARK    2  A    between atoms: N_8  and  C_9
REMARK    3  A    between atoms: C_9  and  C_10
REMARK                            x       y       z     vdW  Elec       q    Type
REMARK                         _______ _______ _______ _____ _____    ______ ____
ROOT
ATOM      1  C   UNL     1      44.618   4.374  11.474  0.00  0.00    +0.000 A 
ATOM      2  C   UNL     1      45.544   5.142  10.773  0.00  0.00    +0.000 A 
ATOM      3  C   UNL     1      46.030   6.321  11.348  0.00  0.00    +0.000 A 
ATOM      4  C   UNL     1      45.570   6.715  12.600  0.00  0.00    +0.000 A 
ATOM      5  N   UNL     1      45.915   7.931  13.196  0.00  0.00    +0.000 N 
ATOM      6  N   UNL     1      44.674   5.978  13.287  0.00  0.00    +0.000 NA
ATOM      7  C   UNL     1      44.217   4.831  12.717  0.00  0.00    +0.000 A 
ATOM      8  H   UNL     1      45.478   7.910  14.116  0.00  0.00    +0.000 HD
ENDROOT
BRANCH   1  10
ATOM      9  N   UNL     1      44.690   2.487   9.937  0.00  0.00    +0.000 N 
ATOM     10  C   UNL     1      44.017   3.134  10.937  0.00  0.00    +0.000 C 
ATOM     11  O   UNL     1      42.968   2.685  11.385  0.00  0.00    +0.000 OA
ATOM     12  H   UNL     1      44.311   1.597   9.645  0.00  0.00    +0.000 HD
ATOM     13  H   UNL     1      45.658   2.678   9.717  0.00  0.00    +0.000 HD
ENDBRANCH   1  10
BRANCH   5  14
ATOM     14  C   UNL     1      47.252   8.547  13.130  0.00  0.00    +0.000 C 
ATOM     15  C   UNL     1      47.258   9.998  12.654  0.00  0.00    +0.000 C 
ATOM     16  C   UNL     1      47.908   8.943  11.824  0.00  0.00    +0.000 C 
BRANCH  14  17
ATOM     17  C   UNL     1      48.146   8.185  14.310  0.00  0.00    +0.000 A 
ATOM     18  C   UNL     1      48.155   8.926  15.502  0.00  0.00    +0.000 A 
ATOM     19  C   UNL     1      48.952   8.541  16.578  0.00  0.00    +0.000 A 
ATOM     20  C   UNL     1      49.734   7.409  16.441  0.00  0.00    +0.000 A 
ATOM     21  N   UNL     1      49.776   6.664  15.319  0.00  0.00    +0.000 NA
ATOM     22  C   UNL     1      48.984   7.068  14.294  0.00  0.00    +0.000 A 
ENDBRANCH  14  17
ENDBRANCH   5  14
TORSDOF 3
ENDMDL
MODEL 5
REMARK VINA RESULT:    -5.312      2.547      3.587
REMARK INTER + INTRA:          -6.821
REMARK INTER:                  -6.261
REMARK INTRA:                  -0.560
REMARK UNBOUND:                -0.577
REMARK  Name = 
REMARK  3 active torsions:
REMARK  status: ('A' for Active; 'I' for Inactive)
REMARK    1  A    between atoms: C_2  and  C_4
REMARK    2  A    between atoms: N_8  and  C_9
REMARK    3  A    between atoms: C_9  and  C_10
REMARK                            x       y       z     vdW  Elec       q    Type
REMARK                         _______ _______ _______ _____ _____    ______ ____
ROOT
ATOM      1  C   UNL     1      45.090   3.336   9.947  0.00  0.00    +0.000 A 
ATOM      2  C   UNL     1      45.221   4.606   9.391  0.00  0.00    +0.000 A 
ATOM      3  C   UNL     1      45.285   5.720  10.234  0.00  0.00    +0.000 A 
ATOM      4  C   UNL     1      45.201   5.544  11.611  0.00  0.00    +0.000 A 
ATOM      5  N   UNL     1      45.142   6.605  12.518  0.00  0.00    +0.000 N 
ATOM      6  N   UNL     1      45.074   4.319  12.160  0.00  0.00    +0.000 NA
ATOM      7  C   UNL     1      45.020   3.246  11.326  0.00  0.00    +0.000 A 
ATOM      8  H   UNL     1      45.143   6.170  13.438  0.00  0.00    +0.000 HD
ENDROOT
BRANCH   1  10
ATOM      9  N   UNL     1      46.052   1.742   8.379  0.00  0.00    +0.000 N 
ATOM     10  C   UNL     1      44.974   2.103   9.140  0.00  0.00    +0.000 C 
ATOM     11  O   UNL     1      43.964   1.410   9.169  0.00  0.00    +0.000 OA
ATOM     12  H   UNL     1      45.989   0.852   7.905  0.00  0.00    +0.000 HD
ATOM     13  H   UNL     1      46.974   2.135   8.515  0.00  0.00    +0.000 HD
ENDBRANCH   1  10
BRANCH   5  14
ATOM     14  C   UNL     1      45.912   7.856  12.395  0.00  0.00    +0.000 C 
ATOM     15  C   UNL     1      45.263   9.068  13.061  0.00  0.00    +0.000 C 
ATOM     16  C   UNL     1      45.429   9.038  11.579  0.00  0.00    +0.000 C 
BRANCH  14  17
ATOM     17  C   UNL     1      47.412   7.666  12.578  0.00  0.00    +0.000 A 
ATOM     18  C   UNL     1      48.348   8.096  11.624  0.00  0.00    +0.000 A 
ATOM     19  C   UNL     1      49.715   7.947  11.844  0.00  0.00    +0.000 A 
ATOM     20  C   UNL     1      50.128   7.365  13.029  0.00  0.00    +0.000 A 
ATOM     21  N   UNL     1      49.278   6.923  13.978  0.00  0.00    +0.000 NA
ATOM     22  C   UNL     1      47.954   7.088  13.729  0.00  0.00    +0.000 A 
ENDBRANCH  14  17
ENDBRANCH   5  14
TORSDOF 3
ENDMDL
