MODEL 1
REMARK VINA RESULT:    -6.798      0.000      0.000
REMARK INTER + INTRA:         -11.189
REMARK INTER:                  -9.579
REMARK INTRA:                  -1.609
REMARK UNBOUND:                -1.609
REMARK  Name = 
REMARK  8 active torsions:
REMARK  status: ('A' for Active; 'I' for Inactive)
REMARK    1  A    between atoms: C_1  and  O_2
REMARK    2  A    between atoms: O_2  and  C_3
REMARK    3  A    between atoms: C_10  and  C_11
REMARK    4  A    between atoms: N_13  and  C_14
REMARK    5  A    between atoms: C_14  and  C_15
REMARK    6  A    between atoms: C_18  and  N_19
REMARK    7  A    between atoms: N_19  and  C_20
REMARK    8  A    between atoms: C_20  and  C_21
REMARK                            x       y       z     vdW  Elec       q    Type
REMARK                         _______ _______ _______ _____ _____    ______ ____
ROOT
ATOM      1  C   UNL     1      48.150   8.781  14.597  0.00  0.00    +0.000 C 
ENDROOT
BRANCH   1   2
ATOM      2  C   UNL     1      47.360   8.299  13.413  0.00  0.00    +0.000 A 
ATOM      3  C   UNL     1      47.957   7.475  12.458  0.00  0.00    +0.000 A 
ATOM      4  C   UNL     1      47.200   6.932  11.415  0.00  0.00    +0.000 A 
ATOM      5  C   UNL     1      45.835   7.206  11.279  0.00  0.00    +0.000 A 
ATOM      6  C   UNL     1      45.264   8.096  12.197  0.00  0.00    +0.000 A 
ATOM      7  C   UNL     1      46.015   8.645  13.247  0.00  0.00    +0.000 A 
BRANCH   5   8
ATOM      8  N   UNL     1      44.992   6.528  10.397  0.00  0.00    +0.000 N 
ATOM      9  H   UNL     1      44.818   7.017   9.525  0.00  0.00    +0.000 HD
BRANCH   8  10
ATOM     10  C   UNL     1      44.976   5.073  10.323  0.00  0.00    +0.000 C 
BRANCH  10  11
ATOM     11  C   UNL     1      43.554   4.510  10.516  0.00  0.00    +0.000 C 
ATOM     12  C   UNL     1      42.736   5.279  11.569  0.00  0.00    +0.000 C 
ATOM     13  C   UNL     1      43.276   5.076  12.988  0.00  0.00    +0.000 C 
ATOM     14  N   UNL     1      43.384   3.659  13.351  0.00  0.00    +0.000 NA
ATOM     15  C   UNL     1      44.174   2.897  12.386  0.00  0.00    +0.000 C 
ATOM     16  C   UNL     1      43.626   3.037  10.961  0.00  0.00    +0.000 C 
ATOM     17  H   UNL     1      42.445   3.261  13.398  0.00  0.00    +0.000 HD
ENDBRANCH  10  11
ENDBRANCH   8  10
ENDBRANCH   5   8
ENDBRANCH   1   2
BRANCH   1  20
ATOM     18  C   UNL     1      49.442   7.023  15.702  0.00  0.00    +0.000 C 
ATOM     19  O   UNL     1      50.388   7.216  14.941  0.00  0.00    +0.000 OA
ATOM     20  N   UNL     1      48.289   7.754  15.594  0.00  0.00    +0.000 N 
ATOM     21  H   UNL     1      47.501   7.565  16.196  0.00  0.00    +0.000 HD
BRANCH  18  29
ATOM     22  C   UNL     1      47.480   4.315  16.541  0.00  0.00    +0.000 A 
ATOM     23  N   UNL     1      46.874   3.263  17.128  0.00  0.00    +0.000 NA
ATOM     24  C   UNL     1      47.416   2.762  18.240  0.00  0.00    +0.000 A 
ATOM     25  N   UNL     1      48.521   3.180  18.849  0.00  0.00    +0.000 NA
ATOM     26  C   UNL     1      49.090   4.235  18.241  0.00  0.00    +0.000 A 
ATOM     27  S   UNL     1      50.517   4.894  18.881  0.00  0.00    +0.000 S 
ATOM     28  C   UNL     1      50.568   6.082  17.668  0.00  0.00    +0.000 A 
ATOM     29  C   UNL     1      49.511   6.013  16.767  0.00  0.00    +0.000 A 
ATOM     30  C   UNL     1      48.642   4.884  17.094  0.00  0.00    +0.000 A 
BRANCH  22  32
ATOM     31  C   UNL     1      47.163   3.995  14.232  0.00  0.00    +0.000 C 
ATOM     32  O   UNL     1      46.938   4.816  15.374  0.00  0.00    +0.000 OA
ENDBRANCH  22  32
ENDBRANCH  18  29
ENDBRANCH   1  20
TORSDOF 7
ENDMDL
MODEL 2
REMARK VINA RESULT:    -6.734      2.090      2.913
REMARK INTER + INTRA:         -11.099
REMARK INTER:                  -9.581
REMARK INTRA:                  -1.518
REMARK UNBOUND:                -1.609
REMARK  Name = 
REMARK  8 active torsions:
REMARK  status: ('A' for Active; 'I' for Inactive)
REMARK    1  A    between atoms: C_1  and  O_2
REMARK    2  A    between atoms: O_2  and  C_3
REMARK    3  A    between atoms: C_10  and  C_11
REMARK    4  A    between atoms: N_13  and  C_14
REMARK    5  A    between atoms: C_14  and  C_15
REMARK    6  A    between atoms: C_18  and  N_19
REMARK    7  A    between atoms: N_19  and  C_20
REMARK    8  A    between atoms: C_20  and  C_21
REMARK                            x       y       z     vdW  Elec       q    Type
REMARK                         _______ _______ _______ _____ _____    ______ ____
ROOT
ATOM      1  C   UNL     1      46.960   8.155  13.411  0.00  0.00    +0.000 C 
ENDROOT
BRANCH   1   2
ATOM      2  C   UNL     1      46.164   7.216  12.549  0.00  0.00    +0.000 A 
ATOM      3  C   UNL     1      46.710   6.714  11.366  0.00  0.00    +0.000 A 
ATOM      4  C   UNL     1      46.022   5.755  10.617  0.00  0.00    +0.000 A 
ATOM      5  C   UNL     1      44.766   5.280  11.009  0.00  0.00    +0.000 A 
ATOM      6  C   UNL     1      44.193   5.849  12.154  0.00  0.00    +0.000 A 
ATOM      7  C   UNL     1      44.876   6.810  12.912  0.00  0.00    +0.000 A 
BRANCH   5   8
ATOM      8  N   UNL     1      44.137   4.179  10.427  0.00  0.00    +0.000 N 
ATOM      9  H   UNL     1      43.360   4.415   9.817  0.00  0.00    +0.000 HD
BRANCH   8  10
ATOM     10  C   UNL     1      44.877   2.975  10.075  0.00  0.00    +0.000 C 
BRANCH  10  11
ATOM     11  C   UNL     1      44.507   2.473   8.665  0.00  0.00    +0.000 C 
ATOM     12  C   UNL     1      45.255   1.188   8.265  0.00  0.00    +0.000 C 
ATOM     13  C   UNL     1      46.753   1.426   8.057  0.00  0.00    +0.000 C 
ATOM     14  N   UNL     1      47.023   2.500   7.097  0.00  0.00    +0.000 NA
ATOM     15  C   UNL     1      46.349   3.747   7.453  0.00  0.00    +0.000 C 
ATOM     16  C   UNL     1      44.837   3.552   7.617  0.00  0.00    +0.000 C 
ATOM     17  H   UNL     1      46.702   2.204   6.174  0.00  0.00    +0.000 HD
ENDBRANCH  10  11
ENDBRANCH   8  10
ENDBRANCH   5   8
ENDBRANCH   1   2
BRANCH   1  20
ATOM     18  C   UNL     1      48.774   6.955  14.529  0.00  0.00    +0.000 C 
ATOM     19  O   UNL     1      49.470   7.030  13.518  0.00  0.00    +0.000 OA
ATOM     20  N   UNL     1      47.511   7.483  14.557  0.00  0.00    +0.000 N 
ATOM     21  H   UNL     1      46.930   7.384  15.376  0.00  0.00    +0.000 HD
BRANCH  18  29
ATOM     22  C   UNL     1      47.626   4.354  16.479  0.00  0.00    +0.000 A 
ATOM     23  N   UNL     1      47.384   3.439  17.441  0.00  0.00    +0.000 NA
ATOM     24  C   UNL     1      48.240   3.357  18.463  0.00  0.00    +0.000 A 
ATOM     25  N   UNL     1      49.339   4.080  18.645  0.00  0.00    +0.000 NA
ATOM     26  C   UNL     1      49.540   4.986  17.673  0.00  0.00    +0.000 A 
ATOM     27  S   UNL     1      50.905   5.992  17.742  0.00  0.00    +0.000 S 
ATOM     28  C   UNL     1      50.457   6.780  16.305  0.00  0.00    +0.000 A 
ATOM     29  C   UNL     1      49.270   6.311  15.753  0.00  0.00    +0.000 A 
ATOM     30  C   UNL     1      48.738   5.213  16.558  0.00  0.00    +0.000 A 
BRANCH  22  32
ATOM     31  C   UNL     1      47.169   3.646  14.282  0.00  0.00    +0.000 C 
ATOM     32  O   UNL     1      46.761   4.421  15.406  0.00  0.00    +0.000 OA
ENDBRANCH  22  32
ENDBRANCH  18  29
ENDBRANCH   1  20
TORSDOF 7
ENDMDL
MODEL 3
REMARK VINA RESULT:    -6.714      2.710      4.579
REMARK INTER + INTRA:         -11.070
REMARK INTER:                  -9.754
REMARK INTRA:                  -1.316
REMARK UNBOUND:                -1.609
REMARK  Name = 
REMARK  8 active torsions:
REMARK  status: ('A' for Active; 'I' for Inactive)
REMARK    1  A    between atoms: C_1  and  O_2
REMARK    2  A    between atoms: O_2  and  C_3
REMARK    3  A    between atoms: C_10  and  C_11
REMARK    4  A    between atoms: N_13  and  C_14
REMARK    5  A    between atoms: C_14  and  C_15
REMARK    6  A    between atoms: C_18  and  N_19
REMARK    7  A    between atoms: N_19  and  C_20
REMARK    8  A    between atoms: C_20  and  C_21
REMARK                            x       y       z     vdW  Elec       q    Type
REMARK                         _______ _______ _______ _____ _____    ______ ____
ROOT
ATOM      1  C   UNL     1      46.744   4.350  14.777  0.00  0.00    +0.000 C 
ENDROOT
BRANCH   1   2
ATOM      2  C   UNL     1      46.222   4.640  13.398  0.00  0.00    +0.000 A 
ATOM      3  C   UNL     1      46.530   5.848  12.770  0.00  0.00    +0.000 A 
ATOM      4  C   UNL     1      46.142   6.079  11.446  0.00  0.00    +0.000 A 
ATOM      5  C   UNL     1      45.421   5.128  10.716  0.00  0.00    +0.000 A 
ATOM      6  C   UNL     1      45.050   3.953  11.382  0.00  0.00    +0.000 A 
ATOM      7  C   UNL     1      45.435   3.712  12.708  0.00  0.00    +0.000 A 
BRANCH   5   8
ATOM      8  N   UNL     1      45.199   5.212   9.341  0.00  0.00    +0.000 N 
ATOM      9  H   UNL     1      44.689   6.041   9.050  0.00  0.00    +0.000 HD
BRANCH   8  10
ATOM     10  C   UNL     1      46.157   4.686   8.379  0.00  0.00    +0.000 C 
BRANCH  10  11
ATOM     11  C   UNL     1      45.483   3.743   7.363  0.00  0.00    +0.000 C 
ATOM     12  C   UNL     1      44.818   2.520   8.021  0.00  0.00    +0.000 C 
ATOM     13  C   UNL     1      45.843   1.549   8.616  0.00  0.00    +0.000 C 
ATOM     14  N   UNL     1      46.850   1.126   7.637  0.00  0.00    +0.000 NA
ATOM     15  C   UNL     1      47.522   2.259   7.005  0.00  0.00    +0.000 C 
ATOM     16  C   UNL     1      46.524   3.224   6.353  0.00  0.00    +0.000 C 
ATOM     17  H   UNL     1      46.391   0.569   6.915  0.00  0.00    +0.000 HD
ENDBRANCH  10  11
ENDBRANCH   8  10
ENDBRANCH   5   8
ENDBRANCH   1   2
BRANCH   1  20
ATOM     18  C   UNL     1      48.461   5.279  16.250  0.00  0.00    +0.000 C 
ATOM     19  O   UNL     1      48.724   4.157  16.680  0.00  0.00    +0.000 OA
ATOM     20  N   UNL     1      47.485   5.462  15.308  0.00  0.00    +0.000 N 
ATOM     21  H   UNL     1      47.247   6.390  14.988  0.00  0.00    +0.000 HD
BRANCH  18  29
ATOM     22  C   UNL     1      50.136   7.826  14.640  0.00  0.00    +0.000 A 
ATOM     23  N   UNL     1      50.898   8.882  14.289  0.00  0.00    +0.000 NA
ATOM     24  C   UNL     1      51.409   9.642  15.261  0.00  0.00    +0.000 A 
ATOM     25  N   UNL     1      51.243   9.485  16.570  0.00  0.00    +0.000 NA
ATOM     26  C   UNL     1      50.487   8.416  16.880  0.00  0.00    +0.000 A 
ATOM     27  S   UNL     1      50.165   8.070  18.509  0.00  0.00    +0.000 S 
ATOM     28  C   UNL     1      49.258   6.697  18.087  0.00  0.00    +0.000 A 
ATOM     29  C   UNL     1      49.189   6.467  16.717  0.00  0.00    +0.000 A 
ATOM     30  C   UNL     1      49.901   7.518  15.992  0.00  0.00    +0.000 A 
BRANCH  22  32
ATOM     31  C   UNL     1      49.735   7.608  12.332  0.00  0.00    +0.000 C 
ATOM     32  O   UNL     1      49.582   7.056  13.637  0.00  0.00    +0.000 OA
ENDBRANCH  22  32
ENDBRANCH  18  29
ENDBRANCH   1  20
TORSDOF 7
ENDMDL
MODEL 4
REMARK VINA RESULT:    -6.573      2.961      4.280
REMARK INTER + INTRA:         -10.873
REMARK INTER:                  -9.883
REMARK INTRA:                  -0.989
REMARK UNBOUND:                -1.609
REMARK  Name = 
REMARK  8 active torsions:
REMARK  status: ('A' for Active; 'I' for Inactive)
REMARK    1  A    between atoms: C_1  and  O_2
REMARK    2  A    between atoms: O_2  and  C_3
REMARK    3  A    between atoms: C_10  and  C_11
REMARK    4  A    between atoms: N_13  and  C_14
REMARK    5  A    between atoms: C_14  and  C_15
REMARK    6  A    between atoms: C_18  and  N_19
REMARK    7  A    between atoms: N_19  and  C_20
REMARK    8  A    between atoms: C_20  and  C_21
REMARK                            x       y       z     vdW  Elec       q    Type
REMARK                         _______ _______ _______ _____ _____    ______ ____
ROOT
ATOM      1  C   UNL     1      46.789   4.397  14.813  0.00  0.00    +0.000 C 
ENDROOT
BRANCH   1   2
ATOM      2  C   UNL     1      46.276   4.723  13.438  0.00  0.00    +0.000 A 
ATOM      3  C   UNL     1      46.738   5.857  12.767  0.00  0.00    +0.000 A 
ATOM      4  C   UNL     1      46.351   6.107  11.447  0.00  0.00    +0.000 A 
ATOM      5  C   UNL     1      45.483   5.251  10.761  0.00  0.00    +0.000 A 
ATOM      6  C   UNL     1      44.964   4.160  11.471  0.00  0.00    +0.000 A 
ATOM      7  C   UNL     1      45.346   3.901  12.795  0.00  0.00    +0.000 A 
BRANCH   5   8
ATOM      8  N   UNL     1      45.238   5.331   9.390  0.00  0.00    +0.000 N 
ATOM      9  H   UNL     1      44.791   6.193   9.094  0.00  0.00    +0.000 HD
BRANCH   8  10
ATOM     10  C   UNL     1      46.129   4.712   8.418  0.00  0.00    +0.000 C 
BRANCH  10  11
ATOM     11  C   UNL     1      45.369   3.756   7.478  0.00  0.00    +0.000 C 
ATOM     12  C   UNL     1      44.584   2.665   8.230  0.00  0.00    +0.000 C 
ATOM     13  C   UNL     1      45.505   1.654   8.918  0.00  0.00    +0.000 C 
ATOM     14  N   UNL     1      46.469   1.050   7.993  0.00  0.00    +0.000 NA
ATOM     15  C   UNL     1      47.253   2.054   7.274  0.00  0.00    +0.000 C 
ATOM     16  C   UNL     1      46.358   3.052   6.530  0.00  0.00    +0.000 C 
ATOM     17  H   UNL     1      45.960   0.482   7.315  0.00  0.00    +0.000 HD
ENDBRANCH  10  11
ENDBRANCH   8  10
ENDBRANCH   5   8
ENDBRANCH   1   2
BRANCH   1  20
ATOM     18  C   UNL     1      48.525   5.283  16.289  0.00  0.00    +0.000 C 
ATOM     19  O   UNL     1      48.815   4.147  16.660  0.00  0.00    +0.000 OA
ATOM     20  N   UNL     1      47.525   5.494  15.378  0.00  0.00    +0.000 N 
ATOM     21  H   UNL     1      47.266   6.432  15.108  0.00  0.00    +0.000 HD
BRANCH  18  29
ATOM     22  C   UNL     1      48.825   6.729  19.404  0.00  0.00    +0.000 A 
ATOM     23  N   UNL     1      49.060   7.528  20.466  0.00  0.00    +0.000 NA
ATOM     24  C   UNL     1      49.806   8.620  20.281  0.00  0.00    +0.000 A 
ATOM     25  N   UNL     1      50.370   9.020  19.146  0.00  0.00    +0.000 NA
ATOM     26  C   UNL     1      50.104   8.205  18.110  0.00  0.00    +0.000 A 
ATOM     27  S   UNL     1      50.753   8.561  16.584  0.00  0.00    +0.000 S 
ATOM     28  C   UNL     1      50.005   7.200  15.896  0.00  0.00    +0.000 A 
ATOM     29  C   UNL     1      49.246   6.459  16.795  0.00  0.00    +0.000 A 
ATOM     30  C   UNL     1      49.332   7.046  18.131  0.00  0.00    +0.000 A 
BRANCH  22  32
ATOM     31  C   UNL     1      48.755   4.573  20.343  0.00  0.00    +0.000 C 
ATOM     32  O   UNL     1      48.080   5.584  19.599  0.00  0.00    +0.000 OA
ENDBRANCH  22  32
ENDBRANCH  18  29
ENDBRANCH   1  20
TORSDOF 7
ENDMDL
MODEL 5
REMARK VINA RESULT:    -6.400      4.222      9.012
REMARK INTER + INTRA:         -10.629
REMARK INTER:                  -9.724
REMARK INTRA:                  -0.905
REMARK UNBOUND:                -1.609
REMARK  Name = 
REMARK  8 active torsions:
REMARK  status: ('A' for Active; 'I' for Inactive)
REMARK    1  A    between atoms: C_1  and  O_2
REMARK    2  A    between atoms: O_2  and  C_3
REMARK    3  A    between atoms: C_10  and  C_11
REMARK    4  A    between atoms: N_13  and  C_14
REMARK    5  A    between atoms: C_14  and  C_15
REMARK    6  A    between atoms: C_18  and  N_19
REMARK    7  A    between atoms: N_19  and  C_20
REMARK    8  A    between atoms: C_20  and  C_21
REMARK                            x       y       z     vdW  Elec       q    Type
REMARK                         _______ _______ _______ _____ _____    ______ ____
ROOT
ATOM      1  C   UNL     1      47.202   3.368  16.784  0.00  0.00    +0.000 C 
ENDROOT
BRANCH   1   2
ATOM      2  C   UNL     1      48.682   3.258  17.024  0.00  0.00    +0.000 A 
ATOM      3  C   UNL     1      49.390   4.340  17.550  0.00  0.00    +0.000 A 
ATOM      4  C   UNL     1      50.743   4.209  17.880  0.00  0.00    +0.000 A 
ATOM      5  C   UNL     1      51.436   3.011  17.680  0.00  0.00    +0.000 A 
ATOM      6  C   UNL     1      50.735   1.957  17.079  0.00  0.00    +0.000 A 
ATOM      7  C   UNL     1      49.378   2.078  16.745  0.00  0.00    +0.000 A 
BRANCH   5   8
ATOM      8  N   UNL     1      52.711   2.759  18.186  0.00  0.00    +0.000 N 
ATOM      9  H   UNL     1      53.014   3.412  18.901  0.00  0.00    +0.000 HD
BRANCH   8  10
ATOM     10  C   UNL     1      53.231   1.403  18.303  0.00  0.00    +0.000 C 
BRANCH  10  11
ATOM     11  C   UNL     1      54.747   1.351  18.028  0.00  0.00    +0.000 C 
ATOM     12  C   UNL     1      55.086   0.939  16.583  0.00  0.00    +0.000 C 
ATOM     13  C   UNL     1      54.733  -0.523  16.297  0.00  0.00    +0.000 C 
ATOM     14  N   UNL     1      55.347  -1.448  17.255  0.00  0.00    +0.000 NA
ATOM     15  C   UNL     1      55.030  -1.105  18.640  0.00  0.00    +0.000 C 
ATOM     16  C   UNL     1      55.421   0.340  18.974  0.00  0.00    +0.000 C 
ATOM     17  H   UNL     1      56.360  -1.423  17.132  0.00  0.00    +0.000 HD
ENDBRANCH  10  11
ENDBRANCH   8  10
ENDBRANCH   5   8
ENDBRANCH   1   2
BRANCH   1  20
ATOM     18  C   UNL     1      46.897   4.274  14.533  0.00  0.00    +0.000 C 
ATOM     19  O   UNL     1      47.183   3.186  14.037  0.00  0.00    +0.000 OA
ATOM     20  N   UNL     1      46.889   4.450  15.890  0.00  0.00    +0.000 N 
ATOM     21  H   UNL     1      46.692   5.356  16.290  0.00  0.00    +0.000 HD
BRANCH  18  29
ATOM     22  C   UNL     1      44.091   5.100  12.708  0.00  0.00    +0.000 A 
ATOM     23  N   UNL     1      43.175   5.635  11.874  0.00  0.00    +0.000 NA
ATOM     24  C   UNL     1      43.471   6.789  11.270  0.00  0.00    +0.000 A 
ATOM     25  N   UNL     1      44.586   7.498  11.404  0.00  0.00    +0.000 NA
ATOM     26  C   UNL     1      45.477   6.928  12.234  0.00  0.00    +0.000 A 
ATOM     27  S   UNL     1      46.956   7.705  12.529  0.00  0.00    +0.000 S 
ATOM     28  C   UNL     1      47.462   6.453  13.560  0.00  0.00    +0.000 A 
ATOM     29  C   UNL     1      46.537   5.425  13.693  0.00  0.00    +0.000 A 
ATOM     30  C   UNL     1      45.332   5.726  12.922  0.00  0.00    +0.000 A 
BRANCH  22  32
ATOM     31  C   UNL     1      43.617   2.805  12.488  0.00  0.00    +0.000 C 
ATOM     32  O   UNL     1      43.776   3.923  13.358  0.00  0.00    +0.000 OA
ENDBRANCH  22  32
ENDBRANCH  18  29
ENDBRANCH   1  20
TORSDOF 7
ENDMDL
MODEL 6
REMARK VINA RESULT:    -6.365      3.169      4.524
REMARK INTER + INTRA:         -10.579
REMARK INTER:                  -9.797
REMARK INTRA:                  -0.782
REMARK UNBOUND:                -1.609
REMARK  Name = 
REMARK  8 active torsions:
REMARK  status: ('A' for Active; 'I' for Inactive)
REMARK    1  A    between atoms: C_1  and  O_2
REMARK    2  A    between atoms: O_2  and  C_3
REMARK    3  A    between atoms: C_10  and  C_11
REMARK    4  A    between atoms: N_13  and  C_14
REMARK    5  A    between atoms: C_14  and  C_15
REMARK    6  A    between atoms: C_18  and  N_19
REMARK    7  A    between atoms: N_19  and  C_20
REMARK    8  A    between atoms: C_20  and  C_21
REMARK                            x       y       z     vdW  Elec       q    Type
REMARK                         _______ _______ _______ _____ _____    ______ ____
ROOT
ATOM      1  C   UNL     1      46.120   4.459  14.405  0.00  0.00    +0.000 C 
ENDROOT
BRANCH   1   2
ATOM      2  C   UNL     1      45.851   4.715  12.949  0.00  0.00    +0.000 A 
ATOM      3  C   UNL     1      46.273   5.906  12.355  0.00  0.00    +0.000 A 
ATOM      4  C   UNL     1      46.126   6.104  10.979  0.00  0.00    +0.000 A 
ATOM      5  C   UNL     1      45.541   5.136  10.156  0.00  0.00    +0.000 A 
ATOM      6  C   UNL     1      45.051   3.978  10.775  0.00  0.00    +0.000 A 
ATOM      7  C   UNL     1      45.194   3.771  12.154  0.00  0.00    +0.000 A 
BRANCH   5   8
ATOM      8  N   UNL     1      45.565   5.185   8.761  0.00  0.00    +0.000 N 
ATOM      9  H   UNL     1      45.318   6.089   8.371  0.00  0.00    +0.000 HD
BRANCH   8  10
ATOM     10  C   UNL     1      46.513   4.397   7.986  0.00  0.00    +0.000 C 
BRANCH  10  11
ATOM     11  C   UNL     1      45.795   3.419   7.036  0.00  0.00    +0.000 C 
ATOM     12  C   UNL     1      45.466   2.065   7.694  0.00  0.00    +0.000 C 
ATOM     13  C   UNL     1      46.723   1.242   7.990  0.00  0.00    +0.000 C 
ATOM     14  N   UNL     1      47.562   1.049   6.803  0.00  0.00    +0.000 NA
ATOM     15  C   UNL     1      47.916   2.314   6.161  0.00  0.00    +0.000 C 
ATOM     16  C   UNL     1      46.674   3.139   5.802  0.00  0.00    +0.000 C 
ATOM     17  H   UNL     1      47.054   0.470   6.134  0.00  0.00    +0.000 HD
ENDBRANCH  10  11
ENDBRANCH   8  10
ENDBRANCH   5   8
ENDBRANCH   1   2
BRANCH   1  20
ATOM     18  C   UNL     1      47.869   4.925  16.049  0.00  0.00    +0.000 C 
ATOM     19  O   UNL     1      47.518   3.959  16.724  0.00  0.00    +0.000 OA
ATOM     20  N   UNL     1      47.223   5.246  14.886  0.00  0.00    +0.000 N 
ATOM     21  H   UNL     1      47.491   6.064  14.357  0.00  0.00    +0.000 HD
BRANCH  18  29
ATOM     22  C   UNL     1      50.979   4.244  17.373  0.00  0.00    +0.000 A 
ATOM     23  N   UNL     1      52.200   4.278  17.945  0.00  0.00    +0.000 NA
ATOM     24  C   UNL     1      52.765   5.469  18.158  0.00  0.00    +0.000 A 
ATOM     25  N   UNL     1      52.258   6.659  17.854  0.00  0.00    +0.000 NA
ATOM     26  C   UNL     1      51.037   6.585  17.297  0.00  0.00    +0.000 A 
ATOM     27  S   UNL     1      50.244   8.013  16.837  0.00  0.00    +0.000 S 
ATOM     28  C   UNL     1      48.891   7.142  16.292  0.00  0.00    +0.000 A 
ATOM     29  C   UNL     1      49.005   5.766  16.454  0.00  0.00    +0.000 A 
ATOM     30  C   UNL     1      50.307   5.431  17.028  0.00  0.00    +0.000 A 
BRANCH  22  32
ATOM     31  C   UNL     1      51.280   1.911  17.350  0.00  0.00    +0.000 C 
ATOM     32  O   UNL     1      50.406   3.014  17.125  0.00  0.00    +0.000 OA
ENDBRANCH  22  32
ENDBRANCH  18  29
ENDBRANCH   1  20
TORSDOF 7
ENDMDL
MODEL 7
REMARK VINA RESULT:    -6.196      2.721      3.442
REMARK INTER + INTRA:         -10.341
REMARK INTER:                  -9.267
REMARK INTRA:                  -1.074
REMARK UNBOUND:                -1.609
REMARK  Name = 
REMARK  8 active torsions:
REMARK  status: ('A' for Active; 'I' for Inactive)
REMARK    1  A    between atoms: C_1  and  O_2
REMARK    2  A    between atoms: O_2  and  C_3
REMARK    3  A    between atoms: C_10  and  C_11
REMARK    4  A    between atoms: N_13  and  C_14
REMARK    5  A    between atoms: C_14  and  C_15
REMARK    6  A    between atoms: C_18  and  N_19
REMARK    7  A    between atoms: N_19  and  C_20
REMARK    8  A    between atoms: C_20  and  C_21
REMARK                            x       y       z     vdW  Elec       q    Type
REMARK                         _______ _______ _______ _____ _____    ______ ____
ROOT
ATOM      1  C   UNL     1      47.654   8.894  13.849  0.00  0.00    +0.000 C 
ENDROOT
BRANCH   1   2
ATOM      2  C   UNL     1      46.950   7.705  13.258  0.00  0.00    +0.000 A 
ATOM      3  C   UNL     1      47.476   6.423  13.424  0.00  0.00    +0.000 A 
ATOM      4  C   UNL     1      46.770   5.303  12.974  0.00  0.00    +0.000 A 
ATOM      5  C   UNL     1      45.534   5.423  12.331  0.00  0.00    +0.000 A 
ATOM      6  C   UNL     1      45.054   6.719  12.100  0.00  0.00    +0.000 A 
ATOM      7  C   UNL     1      45.754   7.848  12.548  0.00  0.00    +0.000 A 
BRANCH   5   8
ATOM      8  N   UNL     1      44.693   4.343  12.059  0.00  0.00    +0.000 N 
ATOM      9  H   UNL     1      43.709   4.585  11.999  0.00  0.00    +0.000 HD
BRANCH   8  10
ATOM     10  C   UNL     1      45.125   3.230  11.225  0.00  0.00    +0.000 C 
BRANCH  10  11
ATOM     11  C   UNL     1      44.228   3.069   9.982  0.00  0.00    +0.000 C 
ATOM     12  C   UNL     1      44.566   1.820   9.148  0.00  0.00    +0.000 C 
ATOM     13  C   UNL     1      45.927   1.933   8.456  0.00  0.00    +0.000 C 
ATOM     14  N   UNL     1      46.043   3.145   7.639  0.00  0.00    +0.000 NA
ATOM     15  C   UNL     1      45.752   4.358   8.401  0.00  0.00    +0.000 C 
ATOM     16  C   UNL     1      44.371   4.298   9.065  0.00  0.00    +0.000 C 
ATOM     17  H   UNL     1      45.388   3.079   6.860  0.00  0.00    +0.000 HD
ENDBRANCH  10  11
ENDBRANCH   8  10
ENDBRANCH   5   8
ENDBRANCH   1   2
BRANCH   1  20
ATOM     18  C   UNL     1      48.509   8.597  16.122  0.00  0.00    +0.000 C 
ATOM     19  O   UNL     1      49.591   8.210  15.683  0.00  0.00    +0.000 OA
ATOM     20  N   UNL     1      47.491   8.950  15.277  0.00  0.00    +0.000 N 
ATOM     21  H   UNL     1      46.592   9.229  15.643  0.00  0.00    +0.000 HD
BRANCH  18  29
ATOM     22  C   UNL     1      47.916   6.297  18.620  0.00  0.00    +0.000 A 
ATOM     23  N   UNL     1      47.604   5.644  19.759  0.00  0.00    +0.000 NA
ATOM     24  C   UNL     1      47.400   6.365  20.864  0.00  0.00    +0.000 A 
ATOM     25  N   UNL     1      47.480   7.686  20.983  0.00  0.00    +0.000 NA
ATOM     26  C   UNL     1      47.782   8.301  19.827  0.00  0.00    +0.000 A 
ATOM     27  S   UNL     1      47.935   9.991  19.798  0.00  0.00    +0.000 S 
ATOM     28  C   UNL     1      48.273   9.980  18.134  0.00  0.00    +0.000 A 
ATOM     29  C   UNL     1      48.267   8.711  17.566  0.00  0.00    +0.000 A 
ATOM     30  C   UNL     1      48.004   7.701  18.590  0.00  0.00    +0.000 A 
BRANCH  22  32
ATOM     31  C   UNL     1      47.568   4.256  17.504  0.00  0.00    +0.000 C 
ATOM     32  O   UNL     1      48.158   5.553  17.484  0.00  0.00    +0.000 OA
ENDBRANCH  22  32
ENDBRANCH  18  29
ENDBRANCH   1  20
TORSDOF 7
ENDMDL
MODEL 8
REMARK VINA RESULT:    -6.097      2.936      8.271
REMARK INTER + INTRA:         -10.201
REMARK INTER:                  -9.007
REMARK INTRA:                  -1.194
REMARK UNBOUND:                -1.609
REMARK  Name = 
REMARK  8 active torsions:
REMARK  status: ('A' for Active; 'I' for Inactive)
REMARK    1  A    between atoms: C_1  and  O_2
REMARK    2  A    between atoms: O_2  and  C_3
REMARK    3  A    between atoms: C_10  and  C_11
REMARK    4  A    between atoms: N_13  and  C_14
REMARK    5  A    between atoms: C_14  and  C_15
REMARK    6  A    between atoms: C_18  and  N_19
REMARK    7  A    between atoms: N_19  and  C_20
REMARK    8  A    between atoms: C_20  and  C_21
REMARK                            x       y       z     vdW  Elec       q    Type
REMARK                         _______ _______ _______ _____ _____    ______ ____
ROOT
ATOM      1  C   UNL     1      47.156   3.308  16.808  0.00  0.00    +0.000 C 
ENDROOT
BRANCH   1   2
ATOM      2  C   UNL     1      48.558   3.417  17.338  0.00  0.00    +0.000 A 
ATOM      3  C   UNL     1      49.512   2.454  17.005  0.00  0.00    +0.000 A 
ATOM      4  C   UNL     1      50.844   2.607  17.402  0.00  0.00    +0.000 A 
ATOM      5  C   UNL     1      51.264   3.709  18.155  0.00  0.00    +0.000 A 
ATOM      6  C   UNL     1      50.283   4.628  18.549  0.00  0.00    +0.000 A 
ATOM      7  C   UNL     1      48.945   4.483  18.156  0.00  0.00    +0.000 A 
BRANCH   5   8
ATOM      8  N   UNL     1      52.603   4.022  18.390  0.00  0.00    +0.000 N 
ATOM      9  H   UNL     1      53.045   3.458  19.109  0.00  0.00    +0.000 HD
BRANCH   8  10
ATOM     10  C   UNL     1      53.477   4.487  17.323  0.00  0.00    +0.000 C 
BRANCH  10  11
ATOM     11  C   UNL     1      53.899   5.955  17.532  0.00  0.00    +0.000 C 
ATOM     12  C   UNL     1      52.747   6.954  17.312  0.00  0.00    +0.000 C 
ATOM     13  C   UNL     1      52.314   7.029  15.846  0.00  0.00    +0.000 C 
ATOM     14  N   UNL     1      53.432   7.324  14.944  0.00  0.00    +0.000 NA
ATOM     15  C   UNL     1      54.539   6.383  15.105  0.00  0.00    +0.000 C 
ATOM     16  C   UNL     1      55.032   6.324  16.556  0.00  0.00    +0.000 C 
ATOM     17  H   UNL     1      53.769   8.268  15.138  0.00  0.00    +0.000 HD
ENDBRANCH  10  11
ENDBRANCH   8  10
ENDBRANCH   5   8
ENDBRANCH   1   2
BRANCH   1  20
ATOM     18  C   UNL     1      46.915   4.219  14.551  0.00  0.00    +0.000 C 
ATOM     19  O   UNL     1      47.258   3.144  14.061  0.00  0.00    +0.000 OA
ATOM     20  N   UNL     1      46.845   4.385  15.908  0.00  0.00    +0.000 N 
ATOM     21  H   UNL     1      46.601   5.282  16.304  0.00  0.00    +0.000 HD
BRANCH  18  29
ATOM     22  C   UNL     1      44.133   4.997  12.670  0.00  0.00    +0.000 A 
ATOM     23  N   UNL     1      43.226   5.517  11.817  0.00  0.00    +0.000 NA
ATOM     24  C   UNL     1      43.514   6.675  11.218  0.00  0.00    +0.000 A 
ATOM     25  N   UNL     1      44.614   7.403  11.374  0.00  0.00    +0.000 NA
ATOM     26  C   UNL     1      45.497   6.848  12.222  0.00  0.00    +0.000 A 
ATOM     27  S   UNL     1      46.957   7.650  12.546  0.00  0.00    +0.000 S 
ATOM     28  C   UNL     1      47.464   6.407  13.588  0.00  0.00    +0.000 A 
ATOM     29  C   UNL     1      46.553   5.364  13.704  0.00  0.00    +0.000 A 
ATOM     30  C   UNL     1      45.359   5.644  12.908  0.00  0.00    +0.000 A 
BRANCH  22  32
ATOM     31  C   UNL     1      43.624   2.712  12.436  0.00  0.00    +0.000 C 
ATOM     32  O   UNL     1      43.825   3.816  13.314  0.00  0.00    +0.000 OA
ENDBRANCH  22  32
ENDBRANCH  18  29
ENDBRANCH   1  20
TORSDOF 7
ENDMDL
MODEL 9
REMARK VINA RESULT:    -5.983      4.198      8.947
REMARK INTER + INTRA:         -10.040
REMARK INTER:                  -8.793
REMARK INTRA:                  -1.247
REMARK UNBOUND:                -1.609
REMARK  Name = 
REMARK  8 active torsions:
REMARK  status: ('A' for Active; 'I' for Inactive)
REMARK    1  A    between atoms: C_1  and  O_2
REMARK    2  A    between atoms: O_2  and  C_3
REMARK    3  A    between atoms: C_10  and  C_11
REMARK    4  A    between atoms: N_13  and  C_14
REMARK    5  A    between atoms: C_14  and  C_15
REMARK    6  A    between atoms: C_18  and  N_19
REMARK    7  A    between atoms: N_19  and  C_20
REMARK    8  A    between atoms: C_20  and  C_21
REMARK                            x       y       z     vdW  Elec       q    Type
REMARK                         _______ _______ _______ _____ _____    ______ ____
ROOT
ATOM      1  C   UNL     1      47.565   3.368  17.180  0.00  0.00    +0.000 C 
ENDROOT
BRANCH   1   2
ATOM      2  C   UNL     1      49.065   3.313  17.271  0.00  0.00    +0.000 A 
ATOM      3  C   UNL     1      49.795   4.473  17.533  0.00  0.00    +0.000 A 
ATOM      4  C   UNL     1      51.178   4.411  17.730  0.00  0.00    +0.000 A 
ATOM      5  C   UNL     1      51.878   3.203  17.654  0.00  0.00    +0.000 A 
ATOM      6  C   UNL     1      51.146   2.058  17.313  0.00  0.00    +0.000 A 
ATOM      7  C   UNL     1      49.759   2.110  17.115  0.00  0.00    +0.000 A 
BRANCH   5   8
ATOM      8  N   UNL     1      53.207   3.049  18.052  0.00  0.00    +0.000 N 
ATOM      9  H   UNL     1      53.665   3.914  18.320  0.00  0.00    +0.000 HD
BRANCH   8  10
ATOM     10  C   UNL     1      53.664   1.848  18.738  0.00  0.00    +0.000 C 
BRANCH  10  11
ATOM     11  C   UNL     1      55.025   1.368  18.196  0.00  0.00    +0.000 C 
ATOM     12  C   UNL     1      54.998   1.048  16.690  0.00  0.00    +0.000 C 
ATOM     13  C   UNL     1      54.156  -0.191  16.373  0.00  0.00    +0.000 C 
ATOM     14  N   UNL     1      54.573  -1.367  17.143  0.00  0.00    +0.000 NA
ATOM     15  C   UNL     1      54.590  -1.111  18.582  0.00  0.00    +0.000 C 
ATOM     16  C   UNL     1      55.469   0.094  18.938  0.00  0.00    +0.000 C 
ATOM     17  H   UNL     1      55.510  -1.638  16.845  0.00  0.00    +0.000 HD
ENDBRANCH  10  11
ENDBRANCH   8  10
ENDBRANCH   5   8
ENDBRANCH   1   2
BRANCH   1  20
ATOM     18  C   UNL     1      47.070   4.042  14.882  0.00  0.00    +0.000 C 
ATOM     19  O   UNL     1      47.400   2.933  14.467  0.00  0.00    +0.000 OA
ATOM     20  N   UNL     1      47.129   4.342  16.217  0.00  0.00    +0.000 N 
ATOM     21  H   UNL     1      46.894   5.267  16.547  0.00  0.00    +0.000 HD
BRANCH  18  29
ATOM     22  C   UNL     1      48.306   7.110  13.909  0.00  0.00    +0.000 A 
ATOM     23  N   UNL     1      48.509   8.349  13.416  0.00  0.00    +0.000 NA
ATOM     24  C   UNL     1      47.582   8.866  12.606  0.00  0.00    +0.000 A 
ATOM     25  N   UNL     1      46.456   8.284  12.207  0.00  0.00    +0.000 NA
ATOM     26  C   UNL     1      46.284   7.057  12.728  0.00  0.00    +0.000 A 
ATOM     27  S   UNL     1      44.900   6.165  12.317  0.00  0.00    +0.000 S 
ATOM     28  C   UNL     1      45.383   4.870  13.305  0.00  0.00    +0.000 A 
ATOM     29  C   UNL     1      46.584   5.087  13.970  0.00  0.00    +0.000 A 
ATOM     30  C   UNL     1      47.140   6.387  13.598  0.00  0.00    +0.000 A 
BRANCH  22  32
ATOM     31  C   UNL     1      50.134   7.523  15.333  0.00  0.00    +0.000 C 
ATOM     32  O   UNL     1      49.278   6.561  14.722  0.00  0.00    +0.000 OA
ENDBRANCH  22  32
ENDBRANCH  18  29
ENDBRANCH   1  20
TORSDOF 7
ENDMDL
