MODEL 1
REMARK VINA RESULT:    -8.010      0.000      0.000
REMARK INTER + INTRA:         -13.237
REMARK INTER:                 -11.756
REMARK INTRA:                  -1.482
REMARK UNBOUND:                -1.482
REMARK  Name = 
REMARK  10 active torsions:
REMARK  status: ('A' for Active; 'I' for Inactive)
REMARK    1  A    between atoms: C_1  and  C_2
REMARK    2  A    between atoms: C_2  and  C_3
REMARK    3  A    between atoms: C_5  and  O_6
REMARK    4  A    between atoms: O_6  and  C_7
REMARK    5  A    between atoms: C_9  and  N_10
REMARK    6  A    between atoms: N_10  and  C_11
REMARK    7  A    between atoms: C_11  and  C_12
REMARK    8  A    between atoms: C_12  and  C_15
REMARK    9  A    between atoms: C_19  and  C_20
REMARK   10  A    between atoms: C_25  and  C_26
REMARK                            x       y       z     vdW  Elec       q    Type
REMARK                         _______ _______ _______ _____ _____    ______ ____
ROOT
ATOM      1  N   UNL     1      44.502   3.948  13.056  0.00  0.00    +0.000 N 
ATOM      2  H   UNL     1      44.418   3.537  13.988  0.00  0.00    +0.000 HD
ENDROOT
BRANCH   1   5
ATOM      3  C   UNL     1      47.380   6.111  13.886  0.00  0.00    +0.000 A 
ATOM      4  C   UNL     1      46.553   4.995  13.761  0.00  0.00    +0.000 A 
ATOM      5  C   UNL     1      45.295   5.103  13.155  0.00  0.00    +0.000 A 
ATOM      6  C   UNL     1      44.939   6.319  12.560  0.00  0.00    +0.000 A 
ATOM      7  C   UNL     1      45.758   7.452  12.665  0.00  0.00    +0.000 A 
ATOM      8  C   UNL     1      46.975   7.341  13.355  0.00  0.00    +0.000 A 
BRANCH   7   9
ATOM      9  C   UNL     1      45.334   8.752  12.025  0.00  0.00    +0.000 C 
ATOM     10  F   UNL     1      44.651   9.577  12.873  0.00  0.00    +0.000 F 
ATOM     11  F   UNL     1      46.385   9.485  11.566  0.00  0.00    +0.000 F 
ATOM     12  F   UNL     1      44.509   8.563  10.959  0.00  0.00    +0.000 F 
ENDBRANCH   7   9
BRANCH   3  13
ATOM     13  O   UNL     1      48.646   6.049  14.413  0.00  0.00    +0.000 OA
BRANCH  13  18
ATOM     14  C   UNL     1      48.954   7.138  18.151  0.00  0.00    +0.000 C 
ATOM     15  C   UNL     1      49.183   6.300  16.914  0.00  0.00    +0.000 C 
ATOM     16  C   UNL     1      48.926   4.827  17.108  0.00  0.00    +0.000 C 
ATOM     17  C   UNL     1      50.340   6.720  16.041  0.00  0.00    +0.000 C 
ATOM     18  C   UNL     1      48.933   6.918  15.537  0.00  0.00    +0.000 C 
ENDBRANCH  13  18
ENDBRANCH   3  13
ENDBRANCH   1   5
BRANCH   1  19
ATOM     19  C   UNL     1      44.924   2.912  12.074  0.00  0.00    +0.000 C 
BRANCH  19  20
ATOM     20  C   UNL     1      44.166   2.907  10.714  0.00  0.00    +0.000 C 
ATOM     21  F   UNL     1      43.511   1.720  10.549  0.00  0.00    +0.000 F 
ATOM     22  F   UNL     1      43.156   3.830  10.825  0.00  0.00    +0.000 F 
BRANCH  20  23
ATOM     23  C   UNL     1      45.070   3.226   9.546  0.00  0.00    +0.000 A 
ATOM     24  C   UNL     1      45.233   4.537   9.087  0.00  0.00    +0.000 A 
ATOM     25  C   UNL     1      46.051   4.769   7.992  0.00  0.00    +0.000 A 
ATOM     26  N   UNL     1      46.720   3.799   7.332  0.00  0.00    +0.000 NA
ATOM     27  C   UNL     1      46.555   2.530   7.800  0.00  0.00    +0.000 A 
ATOM     28  C   UNL     1      45.755   2.201   8.885  0.00  0.00    +0.000 A 
BRANCH  27  29
ATOM     29  C   UNL     1      47.290   1.450   7.072  0.00  0.00    +0.000 C 
ATOM     30  N   UNL     1      48.302   1.877   6.258  0.00  0.00    +0.000 N 
ATOM     31  O   UNL     1      47.015   0.262   7.196  0.00  0.00    +0.000 OA
ATOM     32  H   UNL     1      48.501   2.869   6.191  0.00  0.00    +0.000 HD
ATOM     33  H   UNL     1      48.851   1.203   5.746  0.00  0.00    +0.000 HD
ENDBRANCH  27  29
ENDBRANCH  20  23
ENDBRANCH  19  20
ENDBRANCH   1  19
TORSDOF 8
ENDMDL
MODEL 2
REMARK VINA RESULT:    -7.878      1.885      2.466
REMARK INTER + INTRA:         -13.044
REMARK INTER:                 -11.761
REMARK INTRA:                  -1.283
REMARK UNBOUND:                -1.482
REMARK  Name = 
REMARK  10 active torsions:
REMARK  status: ('A' for Active; 'I' for Inactive)
REMARK    1  A    between atoms: C_1  and  C_2
REMARK    2  A    between atoms: C_2  and  C_3
REMARK    3  A    between atoms: C_5  and  O_6
REMARK    4  A    between atoms: O_6  and  C_7
REMARK    5  A    between atoms: C_9  and  N_10
REMARK    6  A    between atoms: N_10  and  C_11
REMARK    7  A    between atoms: C_11  and  C_12
REMARK    8  A    between atoms: C_12  and  C_15
REMARK    9  A    between atoms: C_19  and  C_20
REMARK   10  A    between atoms: C_25  and  C_26
REMARK                            x       y       z     vdW  Elec       q    Type
REMARK                         _______ _______ _______ _____ _____    ______ ____
ROOT
ATOM      1  N   UNL     1      44.740   4.656  12.652  0.00  0.00    +0.000 N 
ATOM      2  H   UNL     1      44.004   4.743  13.356  0.00  0.00    +0.000 HD
ENDROOT
BRANCH   1   5
ATOM      3  C   UNL     1      47.496   5.301  15.028  0.00  0.00    +0.000 A 
ATOM      4  C   UNL     1      46.333   4.789  14.455  0.00  0.00    +0.000 A 
ATOM      5  C   UNL     1      45.921   5.203  13.181  0.00  0.00    +0.000 A 
ATOM      6  C   UNL     1      46.767   6.038  12.443  0.00  0.00    +0.000 A 
ATOM      7  C   UNL     1      47.946   6.559  12.994  0.00  0.00    +0.000 A 
ATOM      8  C   UNL     1      48.291   6.198  14.306  0.00  0.00    +0.000 A 
BRANCH   7   9
ATOM      9  C   UNL     1      48.825   7.470  12.173  0.00  0.00    +0.000 C 
ATOM     10  F   UNL     1      48.809   8.768  12.599  0.00  0.00    +0.000 F 
ATOM     11  F   UNL     1      50.134   7.096  12.184  0.00  0.00    +0.000 F 
ATOM     12  F   UNL     1      48.454   7.513  10.864  0.00  0.00    +0.000 F 
ENDBRANCH   7   9
BRANCH   3  13
ATOM     13  O   UNL     1      47.978   4.884  16.243  0.00  0.00    +0.000 OA
BRANCH  13  18
ATOM     14  C   UNL     1      50.244   1.807  17.052  0.00  0.00    +0.000 C 
ATOM     15  C   UNL     1      49.494   3.096  17.298  0.00  0.00    +0.000 C 
ATOM     16  C   UNL     1      50.326   4.185  17.928  0.00  0.00    +0.000 C 
ATOM     17  C   UNL     1      48.056   2.947  17.731  0.00  0.00    +0.000 C 
ATOM     18  C   UNL     1      48.354   3.489  16.356  0.00  0.00    +0.000 C 
ENDBRANCH  13  18
ENDBRANCH   3  13
ENDBRANCH   1   5
BRANCH   1  19
ATOM     19  C   UNL     1      44.803   3.259  12.145  0.00  0.00    +0.000 C 
BRANCH  19  20
ATOM     20  C   UNL     1      44.087   2.988  10.789  0.00  0.00    +0.000 C 
ATOM     21  F   UNL     1      43.505   1.753  10.807  0.00  0.00    +0.000 F 
ATOM     22  F   UNL     1      43.025   3.855  10.728  0.00  0.00    +0.000 F 
BRANCH  20  23
ATOM     23  C   UNL     1      45.006   3.167   9.603  0.00  0.00    +0.000 A 
ATOM     24  C   UNL     1      45.258   4.432   9.060  0.00  0.00    +0.000 A 
ATOM     25  C   UNL     1      46.085   4.536   7.953  0.00  0.00    +0.000 A 
ATOM     26  N   UNL     1      46.683   3.481   7.357  0.00  0.00    +0.000 NA
ATOM     27  C   UNL     1      46.432   2.260   7.905  0.00  0.00    +0.000 A 
ATOM     28  C   UNL     1      45.616   2.057   9.010  0.00  0.00    +0.000 A 
BRANCH  27  29
ATOM     29  C   UNL     1      47.087   1.087   7.249  0.00  0.00    +0.000 C 
ATOM     30  N   UNL     1      46.696  -0.138   7.714  0.00  0.00    +0.000 N 
ATOM     31  O   UNL     1      47.914   1.206   6.352  0.00  0.00    +0.000 OA
ATOM     32  H   UNL     1      46.003  -0.190   8.452  0.00  0.00    +0.000 HD
ATOM     33  H   UNL     1      47.086  -0.976   7.309  0.00  0.00    +0.000 HD
ENDBRANCH  27  29
ENDBRANCH  20  23
ENDBRANCH  19  20
ENDBRANCH   1  19
TORSDOF 8
ENDMDL
MODEL 3
REMARK VINA RESULT:    -7.719      3.909      7.937
REMARK INTER + INTRA:         -12.811
REMARK INTER:                 -11.834
REMARK INTRA:                  -0.977
REMARK UNBOUND:                -1.482
REMARK  Name = 
REMARK  10 active torsions:
REMARK  status: ('A' for Active; 'I' for Inactive)
REMARK    1  A    between atoms: C_1  and  C_2
REMARK    2  A    between atoms: C_2  and  C_3
REMARK    3  A    between atoms: C_5  and  O_6
REMARK    4  A    between atoms: O_6  and  C_7
REMARK    5  A    between atoms: C_9  and  N_10
REMARK    6  A    between atoms: N_10  and  C_11
REMARK    7  A    between atoms: C_11  and  C_12
REMARK    8  A    between atoms: C_12  and  C_15
REMARK    9  A    between atoms: C_19  and  C_20
REMARK   10  A    between atoms: C_25  and  C_26
REMARK                            x       y       z     vdW  Elec       q    Type
REMARK                         _______ _______ _______ _____ _____    ______ ____
ROOT
ATOM      1  N   UNL     1      46.751   3.795  14.737  0.00  0.00    +0.000 N 
ATOM      2  H   UNL     1      45.913   3.355  15.124  0.00  0.00    +0.000 HD
ENDROOT
BRANCH   1   5
ATOM      3  C   UNL     1      45.431   4.488  11.357  0.00  0.00    +0.000 A 
ATOM      4  C   UNL     1      45.817   3.819  12.517  0.00  0.00    +0.000 A 
ATOM      5  C   UNL     1      46.379   4.519  13.593  0.00  0.00    +0.000 A 
ATOM      6  C   UNL     1      46.424   5.916  13.532  0.00  0.00    +0.000 A 
ATOM      7  C   UNL     1      46.034   6.612  12.379  0.00  0.00    +0.000 A 
ATOM      8  C   UNL     1      45.556   5.880  11.281  0.00  0.00    +0.000 A 
BRANCH   7   9
ATOM      9  C   UNL     1      46.111   8.119  12.344  0.00  0.00    +0.000 C 
ATOM     10  F   UNL     1      45.898   8.701  13.562  0.00  0.00    +0.000 F 
ATOM     11  F   UNL     1      47.320   8.579  11.923  0.00  0.00    +0.000 F 
ATOM     12  F   UNL     1      45.185   8.669  11.512  0.00  0.00    +0.000 F 
ENDBRANCH   7   9
BRANCH   3  13
ATOM     13  O   UNL     1      44.818   3.862  10.301  0.00  0.00    +0.000 OA
BRANCH  13  18
ATOM     14  C   UNL     1      46.672   3.469   6.886  0.00  0.00    +0.000 C 
ATOM     15  C   UNL     1      45.731   3.120   8.015  0.00  0.00    +0.000 C 
ATOM     16  C   UNL     1      45.895   1.717   8.546  0.00  0.00    +0.000 C 
ATOM     17  C   UNL     1      44.338   3.691   7.910  0.00  0.00    +0.000 C 
ATOM     18  C   UNL     1      45.269   4.221   8.972  0.00  0.00    +0.000 C 
ENDBRANCH  13  18
ENDBRANCH   3  13
ENDBRANCH   1   5
BRANCH   1  19
ATOM     19  C   UNL     1      47.482   4.532  15.803  0.00  0.00    +0.000 C 
BRANCH  19  20
ATOM     20  C   UNL     1      47.883   3.703  17.059  0.00  0.00    +0.000 C 
ATOM     21  F   UNL     1      47.157   4.111  18.141  0.00  0.00    +0.000 F 
ATOM     22  F   UNL     1      47.452   2.419  16.835  0.00  0.00    +0.000 F 
BRANCH  20  23
ATOM     23  C   UNL     1      49.371   3.739  17.325  0.00  0.00    +0.000 A 
ATOM     24  C   UNL     1      50.051   4.948  17.502  0.00  0.00    +0.000 A 
ATOM     25  C   UNL     1      51.421   4.924  17.714  0.00  0.00    +0.000 A 
ATOM     26  N   UNL     1      52.156   3.792  17.770  0.00  0.00    +0.000 NA
ATOM     27  C   UNL     1      51.474   2.625  17.603  0.00  0.00    +0.000 A 
ATOM     28  C   UNL     1      50.105   2.550  17.384  0.00  0.00    +0.000 A 
BRANCH  27  29
ATOM     29  C   UNL     1      52.280   1.367  17.661  0.00  0.00    +0.000 C 
ATOM     30  N   UNL     1      51.612   0.264  18.115  0.00  0.00    +0.000 N 
ATOM     31  O   UNL     1      53.457   1.319  17.321  0.00  0.00    +0.000 OA
ATOM     32  H   UNL     1      50.637   0.347  18.378  0.00  0.00    +0.000 HD
ATOM     33  H   UNL     1      52.089  -0.624  18.168  0.00  0.00    +0.000 HD
ENDBRANCH  27  29
ENDBRANCH  20  23
ENDBRANCH  19  20
ENDBRANCH   1  19
TORSDOF 8
ENDMDL
MODEL 4
REMARK VINA RESULT:    -7.376      3.994      7.402
REMARK INTER + INTRA:         -12.307
REMARK INTER:                 -11.167
REMARK INTRA:                  -1.139
REMARK UNBOUND:                -1.482
REMARK  Name = 
REMARK  10 active torsions:
REMARK  status: ('A' for Active; 'I' for Inactive)
REMARK    1  A    between atoms: C_1  and  C_2
REMARK    2  A    between atoms: C_2  and  C_3
REMARK    3  A    between atoms: C_5  and  O_6
REMARK    4  A    between atoms: O_6  and  C_7
REMARK    5  A    between atoms: C_9  and  N_10
REMARK    6  A    between atoms: N_10  and  C_11
REMARK    7  A    between atoms: C_11  and  C_12
REMARK    8  A    between atoms: C_12  and  C_15
REMARK    9  A    between atoms: C_19  and  C_20
REMARK   10  A    between atoms: C_25  and  C_26
REMARK                            x       y       z     vdW  Elec       q    Type
REMARK                         _______ _______ _______ _____ _____    ______ ____
ROOT
ATOM      1  N   UNL     1      47.079   3.623  14.747  0.00  0.00    +0.000 N 
ATOM      2  H   UNL     1      46.411   2.921  15.072  0.00  0.00    +0.000 HD
ENDROOT
BRANCH   1   5
ATOM      3  C   UNL     1      46.555   6.144  12.097  0.00  0.00    +0.000 A 
ATOM      4  C   UNL     1      47.047   5.491  13.226  0.00  0.00    +0.000 A 
ATOM      5  C   UNL     1      46.549   4.235  13.599  0.00  0.00    +0.000 A 
ATOM      6  C   UNL     1      45.647   3.592  12.745  0.00  0.00    +0.000 A 
ATOM      7  C   UNL     1      45.145   4.225  11.599  0.00  0.00    +0.000 A 
ATOM      8  C   UNL     1      45.593   5.519  11.295  0.00  0.00    +0.000 A 
BRANCH   7   9
ATOM      9  C   UNL     1      44.160   3.506  10.710  0.00  0.00    +0.000 C 
ATOM     10  F   UNL     1      43.125   2.935  11.396  0.00  0.00    +0.000 F 
ATOM     11  F   UNL     1      43.583   4.323   9.787  0.00  0.00    +0.000 F 
ATOM     12  F   UNL     1      44.735   2.490  10.010  0.00  0.00    +0.000 F 
ENDBRANCH   7   9
BRANCH   3  13
ATOM     13  O   UNL     1      47.050   7.343  11.651  0.00  0.00    +0.000 OA
BRANCH  13  18
ATOM     14  C   UNL     1      50.017   8.867  13.683  0.00  0.00    +0.000 C 
ATOM     15  C   UNL     1      49.209   8.476  12.468  0.00  0.00    +0.000 C 
ATOM     16  C   UNL     1      49.990   7.724  11.420  0.00  0.00    +0.000 C 
ATOM     17  C   UNL     1      48.178   9.481  12.014  0.00  0.00    +0.000 C 
ATOM     18  C   UNL     1      47.715   8.183  12.627  0.00  0.00    +0.000 C 
ENDBRANCH  13  18
ENDBRANCH   3  13
ENDBRANCH   1   5
BRANCH   1  19
ATOM     19  C   UNL     1      47.478   4.511  15.872  0.00  0.00    +0.000 C 
BRANCH  19  20
ATOM     20  C   UNL     1      47.908   3.799  17.189  0.00  0.00    +0.000 C 
ATOM     21  F   UNL     1      47.259   4.355  18.254  0.00  0.00    +0.000 F 
ATOM     22  F   UNL     1      47.408   2.523  17.125  0.00  0.00    +0.000 F 
BRANCH  20  23
ATOM     23  C   UNL     1      49.408   3.788  17.377  0.00  0.00    +0.000 A 
ATOM     24  C   UNL     1      50.138   4.976  17.486  0.00  0.00    +0.000 A 
ATOM     25  C   UNL     1      51.515   4.908  17.629  0.00  0.00    +0.000 A 
ATOM     26  N   UNL     1      52.212   3.752  17.678  0.00  0.00    +0.000 NA
ATOM     27  C   UNL     1      51.482   2.606  17.579  0.00  0.00    +0.000 A 
ATOM     28  C   UNL     1      50.102   2.575  17.431  0.00  0.00    +0.000 A 
BRANCH  27  29
ATOM     29  C   UNL     1      52.246   1.322  17.629  0.00  0.00    +0.000 C 
ATOM     30  N   UNL     1      51.553   0.247  18.111  0.00  0.00    +0.000 N 
ATOM     31  O   UNL     1      53.412   1.230  17.262  0.00  0.00    +0.000 OA
ATOM     32  H   UNL     1      50.588   0.367  18.397  0.00  0.00    +0.000 HD
ATOM     33  H   UNL     1      52.000  -0.656  18.161  0.00  0.00    +0.000 HD
ENDBRANCH  27  29
ENDBRANCH  20  23
ENDBRANCH  19  20
ENDBRANCH   1  19
TORSDOF 8
ENDMDL
MODEL 5
REMARK VINA RESULT:    -6.883      3.719      8.550
REMARK INTER + INTRA:         -11.584
REMARK INTER:                 -10.474
REMARK INTRA:                  -1.111
REMARK UNBOUND:                -1.482
REMARK  Name = 
REMARK  10 active torsions:
REMARK  status: ('A' for Active; 'I' for Inactive)
REMARK    1  A    between atoms: C_1  and  C_2
REMARK    2  A    between atoms: C_2  and  C_3
REMARK    3  A    between atoms: C_5  and  O_6
REMARK    4  A    between atoms: O_6  and  C_7
REMARK    5  A    between atoms: C_9  and  N_10
REMARK    6  A    between atoms: N_10  and  C_11
REMARK    7  A    between atoms: C_11  and  C_12
REMARK    8  A    between atoms: C_12  and  C_15
REMARK    9  A    between atoms: C_19  and  C_20
REMARK   10  A    between atoms: C_25  and  C_26
REMARK                            x       y       z     vdW  Elec       q    Type
REMARK                         _______ _______ _______ _____ _____    ______ ____
ROOT
ATOM      1  N   UNL     1      47.062   3.368  14.616  0.00  0.00    +0.000 N 
ATOM      2  H   UNL     1      46.436   2.560  14.589  0.00  0.00    +0.000 HD
ENDROOT
BRANCH   1   5
ATOM      3  C   UNL     1      45.566   4.543  11.449  0.00  0.00    +0.000 A 
ATOM      4  C   UNL     1      45.949   3.723  12.509  0.00  0.00    +0.000 A 
ATOM      5  C   UNL     1      46.701   4.238  13.574  0.00  0.00    +0.000 A 
ATOM      6  C   UNL     1      46.945   5.615  13.618  0.00  0.00    +0.000 A 
ATOM      7  C   UNL     1      46.561   6.461  12.568  0.00  0.00    +0.000 A 
ATOM      8  C   UNL     1      45.886   5.906  11.470  0.00  0.00    +0.000 A 
BRANCH   7   9
ATOM      9  C   UNL     1      46.855   7.939  12.643  0.00  0.00    +0.000 C 
ATOM     10  F   UNL     1      46.096   8.687  11.787  0.00  0.00    +0.000 F 
ATOM     11  F   UNL     1      46.636   8.462  13.880  0.00  0.00    +0.000 F 
ATOM     12  F   UNL     1      48.147   8.230  12.331  0.00  0.00    +0.000 F 
ENDBRANCH   7   9
BRANCH   3  13
ATOM     13  O   UNL     1      44.777   4.107  10.414  0.00  0.00    +0.000 OA
BRANCH  13  18
ATOM     14  C   UNL     1      46.578   3.453   7.011  0.00  0.00    +0.000 C 
ATOM     15  C   UNL     1      45.621   3.214   8.156  0.00  0.00    +0.000 C 
ATOM     16  C   UNL     1      45.689   1.825   8.740  0.00  0.00    +0.000 C 
ATOM     17  C   UNL     1      44.272   3.879   8.034  0.00  0.00    +0.000 C 
ATOM     18  C   UNL     1      45.245   4.382   9.070  0.00  0.00    +0.000 C 
ENDBRANCH  13  18
ENDBRANCH   3  13
ENDBRANCH   1   5
BRANCH   1  19
ATOM     19  C   UNL     1      47.112   3.933  15.991  0.00  0.00    +0.000 C 
BRANCH  19  20
ATOM     20  C   UNL     1      47.956   3.138  17.030  0.00  0.00    +0.000 C 
ATOM     21  F   UNL     1      47.131   2.485  17.901  0.00  0.00    +0.000 F 
ATOM     22  F   UNL     1      48.576   2.127  16.339  0.00  0.00    +0.000 F 
BRANCH  20  23
ATOM     23  C   UNL     1      48.964   4.007  17.745  0.00  0.00    +0.000 A 
ATOM     24  C   UNL     1      50.319   3.661  17.797  0.00  0.00    +0.000 A 
ATOM     25  C   UNL     1      51.195   4.480  18.491  0.00  0.00    +0.000 A 
ATOM     26  N   UNL     1      50.826   5.614  19.126  0.00  0.00    +0.000 NA
ATOM     27  C   UNL     1      49.505   5.938  19.057  0.00  0.00    +0.000 A 
ATOM     28  C   UNL     1      48.553   5.179  18.389  0.00  0.00    +0.000 A 
BRANCH  27  29
ATOM     29  C   UNL     1      49.087   7.189  19.760  0.00  0.00    +0.000 C 
ATOM     30  N   UNL     1      48.316   8.045  19.024  0.00  0.00    +0.000 N 
ATOM     31  O   UNL     1      49.405   7.436  20.918  0.00  0.00    +0.000 OA
ATOM     32  H   UNL     1      48.071   7.798  18.072  0.00  0.00    +0.000 HD
ATOM     33  H   UNL     1      47.986   8.904  19.437  0.00  0.00    +0.000 HD
ENDBRANCH  27  29
ENDBRANCH  20  23
ENDBRANCH  19  20
ENDBRANCH   1  19
TORSDOF 8
ENDMDL
MODEL 6
REMARK VINA RESULT:    -6.790      3.325      4.520
REMARK INTER + INTRA:         -11.448
REMARK INTER:                 -10.272
REMARK INTRA:                  -1.175
REMARK UNBOUND:                -1.482
REMARK  Name = 
REMARK  10 active torsions:
REMARK  status: ('A' for Active; 'I' for Inactive)
REMARK    1  A    between atoms: C_1  and  C_2
REMARK    2  A    between atoms: C_2  and  C_3
REMARK    3  A    between atoms: C_5  and  O_6
REMARK    4  A    between atoms: O_6  and  C_7
REMARK    5  A    between atoms: C_9  and  N_10
REMARK    6  A    between atoms: N_10  and  C_11
REMARK    7  A    between atoms: C_11  and  C_12
REMARK    8  A    between atoms: C_12  and  C_15
REMARK    9  A    between atoms: C_19  and  C_20
REMARK   10  A    between atoms: C_25  and  C_26
REMARK                            x       y       z     vdW  Elec       q    Type
REMARK                         _______ _______ _______ _____ _____    ______ ____
ROOT
ATOM      1  N   UNL     1      45.858   4.374  13.100  0.00  0.00    +0.000 N 
ATOM      2  H   UNL     1      46.362   4.122  12.247  0.00  0.00    +0.000 HD
ENDROOT
BRANCH   1   5
ATOM      3  C   UNL     1      48.375   6.648  14.565  0.00  0.00    +0.000 A 
ATOM      4  C   UNL     1      47.446   6.087  13.690  0.00  0.00    +0.000 A 
ATOM      5  C   UNL     1      46.783   4.897  14.019  0.00  0.00    +0.000 A 
ATOM      6  C   UNL     1      46.972   4.355  15.295  0.00  0.00    +0.000 A 
ATOM      7  C   UNL     1      47.894   4.907  16.195  0.00  0.00    +0.000 A 
ATOM      8  C   UNL     1      48.611   6.050  15.808  0.00  0.00    +0.000 A 
BRANCH   7   9
ATOM      9  C   UNL     1      48.083   4.287  17.558  0.00  0.00    +0.000 C 
ATOM     10  F   UNL     1      47.250   4.803  18.510  0.00  0.00    +0.000 F 
ATOM     11  F   UNL     1      47.862   2.944  17.565  0.00  0.00    +0.000 F 
ATOM     12  F   UNL     1      49.342   4.466  18.043  0.00  0.00    +0.000 F 
ENDBRANCH   7   9
BRANCH   3  13
ATOM     13  O   UNL     1      49.005   7.843  14.322  0.00  0.00    +0.000 OA
BRANCH  13  18
ATOM     14  C   UNL     1      51.138   8.030  11.056  0.00  0.00    +0.000 C 
ATOM     15  C   UNL     1      50.172   8.487  12.124  0.00  0.00    +0.000 C 
ATOM     16  C   UNL     1      48.860   9.008  11.591  0.00  0.00    +0.000 C 
ATOM     17  C   UNL     1      50.789   9.177  13.316  0.00  0.00    +0.000 C 
ATOM     18  C   UNL     1      50.192   7.803  13.492  0.00  0.00    +0.000 C 
ENDBRANCH  13  18
ENDBRANCH   3  13
ENDBRANCH   1   5
BRANCH   1  19
ATOM     19  C   UNL     1      44.676   5.215  12.768  0.00  0.00    +0.000 C 
BRANCH  19  20
ATOM     20  C   UNL     1      44.478   5.557  11.262  0.00  0.00    +0.000 C 
ATOM     21  F   UNL     1      43.287   6.199  11.081  0.00  0.00    +0.000 F 
ATOM     22  F   UNL     1      45.418   6.506  10.949  0.00  0.00    +0.000 F 
BRANCH  20  23
ATOM     23  C   UNL     1      44.612   4.344  10.370  0.00  0.00    +0.000 A 
ATOM     24  C   UNL     1      43.985   3.134  10.686  0.00  0.00    +0.000 A 
ATOM     25  C   UNL     1      44.166   2.044   9.848  0.00  0.00    +0.000 A 
ATOM     26  N   UNL     1      44.913   2.074   8.723  0.00  0.00    +0.000 NA
ATOM     27  C   UNL     1      45.508   3.263   8.429  0.00  0.00    +0.000 A 
ATOM     28  C   UNL     1      45.388   4.406   9.208  0.00  0.00    +0.000 A 
BRANCH  27  29
ATOM     29  C   UNL     1      46.340   3.303   7.187  0.00  0.00    +0.000 C 
ATOM     30  N   UNL     1      46.863   2.103   6.794  0.00  0.00    +0.000 N 
ATOM     31  O   UNL     1      46.540   4.336   6.556  0.00  0.00    +0.000 OA
ATOM     32  H   UNL     1      46.667   1.273   7.341  0.00  0.00    +0.000 HD
ATOM     33  H   UNL     1      47.424   2.051   5.956  0.00  0.00    +0.000 HD
ENDBRANCH  27  29
ENDBRANCH  20  23
ENDBRANCH  19  20
ENDBRANCH   1  19
TORSDOF 8
ENDMDL
MODEL 7
REMARK VINA RESULT:    -6.677      4.251      8.074
REMARK INTER + INTRA:         -11.282
REMARK INTER:                 -10.188
REMARK INTRA:                  -1.094
REMARK UNBOUND:                -1.482
REMARK  Name = 
REMARK  10 active torsions:
REMARK  status: ('A' for Active; 'I' for Inactive)
REMARK    1  A    between atoms: C_1  and  C_2
REMARK    2  A    between atoms: C_2  and  C_3
REMARK    3  A    between atoms: C_5  and  O_6
REMARK    4  A    between atoms: O_6  and  C_7
REMARK    5  A    between atoms: C_9  and  N_10
REMARK    6  A    between atoms: N_10  and  C_11
REMARK    7  A    between atoms: C_11  and  C_12
REMARK    8  A    between atoms: C_12  and  C_15
REMARK    9  A    between atoms: C_19  and  C_20
REMARK   10  A    between atoms: C_25  and  C_26
REMARK                            x       y       z     vdW  Elec       q    Type
REMARK                         _______ _______ _______ _____ _____    ______ ____
ROOT
ATOM      1  N   UNL     1      47.972   5.528  15.606  0.00  0.00    +0.000 N 
ATOM      2  H   UNL     1      48.950   5.299  15.796  0.00  0.00    +0.000 HD
ENDROOT
BRANCH   1   5
ATOM      3  C   UNL     1      46.589   6.153  12.237  0.00  0.00    +0.000 A 
ATOM      4  C   UNL     1      46.730   5.704  13.549  0.00  0.00    +0.000 A 
ATOM      5  C   UNL     1      47.882   6.006  14.288  0.00  0.00    +0.000 A 
ATOM      6  C   UNL     1      48.827   6.874  13.730  0.00  0.00    +0.000 A 
ATOM      7  C   UNL     1      48.703   7.345  12.416  0.00  0.00    +0.000 A 
ATOM      8  C   UNL     1      47.582   6.957  11.665  0.00  0.00    +0.000 A 
BRANCH   7   9
ATOM      9  C   UNL     1      49.750   8.268  11.842  0.00  0.00    +0.000 C 
ATOM     10  F   UNL     1      50.552   7.667  10.913  0.00  0.00    +0.000 F 
ATOM     11  F   UNL     1      49.217   9.354  11.219  0.00  0.00    +0.000 F 
ATOM     12  F   UNL     1      50.596   8.752  12.792  0.00  0.00    +0.000 F 
ENDBRANCH   7   9
BRANCH   3  13
ATOM     13  O   UNL     1      45.457   5.941  11.491  0.00  0.00    +0.000 OA
BRANCH  13  18
ATOM     14  C   UNL     1      43.261   2.720  11.726  0.00  0.00    +0.000 C 
ATOM     15  C   UNL     1      43.602   4.163  11.432  0.00  0.00    +0.000 C 
ATOM     16  C   UNL     1      42.638   5.160  12.025  0.00  0.00    +0.000 C 
ATOM     17  C   UNL     1      44.168   4.437  10.060  0.00  0.00    +0.000 C 
ATOM     18  C   UNL     1      45.069   4.564  11.262  0.00  0.00    +0.000 C 
ENDBRANCH  13  18
ENDBRANCH   3  13
ENDBRANCH   1   5
BRANCH   1  19
ATOM     19  C   UNL     1      47.095   4.386  15.979  0.00  0.00    +0.000 C 
BRANCH  19  20
ATOM     20  C   UNL     1      47.753   3.268  16.840  0.00  0.00    +0.000 C 
ATOM     21  F   UNL     1      46.792   2.572  17.516  0.00  0.00    +0.000 F 
ATOM     22  F   UNL     1      48.271   2.351  15.960  0.00  0.00    +0.000 F 
BRANCH  20  23
ATOM     23  C   UNL     1      48.824   3.802  17.763  0.00  0.00    +0.000 A 
ATOM     24  C   UNL     1      48.517   4.691  18.799  0.00  0.00    +0.000 A 
ATOM     25  C   UNL     1      49.543   5.173  19.597  0.00  0.00    +0.000 A 
ATOM     26  N   UNL     1      50.841   4.830  19.445  0.00  0.00    +0.000 NA
ATOM     27  C   UNL     1      51.118   3.957  18.437  0.00  0.00    +0.000 A 
ATOM     28  C   UNL     1      50.159   3.424  17.586  0.00  0.00    +0.000 A 
BRANCH  27  29
ATOM     29  C   UNL     1      52.552   3.575  18.261  0.00  0.00    +0.000 C 
ATOM     30  N   UNL     1      52.911   2.377  18.813  0.00  0.00    +0.000 N 
ATOM     31  O   UNL     1      53.356   4.279  17.660  0.00  0.00    +0.000 OA
ATOM     32  H   UNL     1      52.212   1.824  19.295  0.00  0.00    +0.000 HD
ATOM     33  H   UNL     1      53.861   2.047  18.722  0.00  0.00    +0.000 HD
ENDBRANCH  27  29
ENDBRANCH  20  23
ENDBRANCH  19  20
ENDBRANCH   1  19
TORSDOF 8
ENDMDL
MODEL 8
REMARK VINA RESULT:    -6.638      3.847      7.799
REMARK INTER + INTRA:         -11.224
REMARK INTER:                  -9.983
REMARK INTRA:                  -1.241
REMARK UNBOUND:                -1.482
REMARK  Name = 
REMARK  10 active torsions:
REMARK  status: ('A' for Active; 'I' for Inactive)
REMARK    1  A    between atoms: C_1  and  C_2
REMARK    2  A    between atoms: C_2  and  C_3
REMARK    3  A    between atoms: C_5  and  O_6
REMARK    4  A    between atoms: O_6  and  C_7
REMARK    5  A    between atoms: C_9  and  N_10
REMARK    6  A    between atoms: N_10  and  C_11
REMARK    7  A    between atoms: C_11  and  C_12
REMARK    8  A    between atoms: C_12  and  C_15
REMARK    9  A    between atoms: C_19  and  C_20
REMARK   10  A    between atoms: C_25  and  C_26
REMARK                            x       y       z     vdW  Elec       q    Type
REMARK                         _______ _______ _______ _____ _____    ______ ____
ROOT
ATOM      1  N   UNL     1      46.420   4.352  15.067  0.00  0.00    +0.000 N 
ATOM      2  H   UNL     1      46.471   5.166  15.683  0.00  0.00    +0.000 HD
ENDROOT
BRANCH   1   5
ATOM      3  C   UNL     1      46.640   6.417  12.011  0.00  0.00    +0.000 A 
ATOM      4  C   UNL     1      46.859   5.926  13.298  0.00  0.00    +0.000 A 
ATOM      5  C   UNL     1      46.161   4.803  13.762  0.00  0.00    +0.000 A 
ATOM      6  C   UNL     1      45.341   4.107  12.868  0.00  0.00    +0.000 A 
ATOM      7  C   UNL     1      45.112   4.577  11.567  0.00  0.00    +0.000 A 
ATOM      8  C   UNL     1      45.755   5.754  11.154  0.00  0.00    +0.000 A 
BRANCH   7   9
ATOM      9  C   UNL     1      44.208   3.808  10.634  0.00  0.00    +0.000 C 
ATOM     10  F   UNL     1      42.994   3.504  11.184  0.00  0.00    +0.000 F 
ATOM     11  F   UNL     1      43.932   4.482   9.485  0.00  0.00    +0.000 F 
ATOM     12  F   UNL     1      44.743   2.615  10.255  0.00  0.00    +0.000 F 
ENDBRANCH   7   9
BRANCH   3  13
ATOM     13  O   UNL     1      47.341   7.473  11.484  0.00  0.00    +0.000 OA
BRANCH  13  18
ATOM     14  C   UNL     1      50.294   9.003  13.530  0.00  0.00    +0.000 C 
ATOM     15  C   UNL     1      49.519   8.558  12.312  0.00  0.00    +0.000 C 
ATOM     16  C   UNL     1      50.304   7.686  11.364  0.00  0.00    +0.000 C 
ATOM     17  C   UNL     1      48.565   9.573  11.733  0.00  0.00    +0.000 C 
ATOM     18  C   UNL     1      48.006   8.354  12.422  0.00  0.00    +0.000 C 
ENDBRANCH  13  18
ENDBRANCH   3  13
ENDBRANCH   1   5
BRANCH   1  19
ATOM     19  C   UNL     1      47.610   3.482  15.265  0.00  0.00    +0.000 C 
BRANCH  19  20
ATOM     20  C   UNL     1      47.936   3.089  16.736  0.00  0.00    +0.000 C 
ATOM     21  F   UNL     1      46.790   2.741  17.392  0.00  0.00    +0.000 F 
ATOM     22  F   UNL     1      48.654   1.921  16.679  0.00  0.00    +0.000 F 
BRANCH  20  23
ATOM     23  C   UNL     1      48.705   4.166  17.466  0.00  0.00    +0.000 A 
ATOM     24  C   UNL     1      50.096   4.106  17.598  0.00  0.00    +0.000 A 
ATOM     25  C   UNL     1      50.748   5.105  18.304  0.00  0.00    +0.000 A 
ATOM     26  N   UNL     1      50.121   6.156  18.876  0.00  0.00    +0.000 NA
ATOM     27  C   UNL     1      48.768   6.201  18.729  0.00  0.00    +0.000 A 
ATOM     28  C   UNL     1      48.029   5.246  18.043  0.00  0.00    +0.000 A 
BRANCH  27  29
ATOM     29  C   UNL     1      48.066   7.359  19.362  0.00  0.00    +0.000 C 
ATOM     30  N   UNL     1      47.228   8.058  18.537  0.00  0.00    +0.000 N 
ATOM     31  O   UNL     1      48.221   7.665  20.539  0.00  0.00    +0.000 OA
ATOM     32  H   UNL     1      47.125   7.766  17.573  0.00  0.00    +0.000 HD
ATOM     33  H   UNL     1      46.710   8.844  18.900  0.00  0.00    +0.000 HD
ENDBRANCH  27  29
ENDBRANCH  20  23
ENDBRANCH  19  20
ENDBRANCH   1  19
TORSDOF 8
ENDMDL
MODEL 9
REMARK VINA RESULT:    -6.521      1.982      3.010
REMARK INTER + INTRA:         -11.052
REMARK INTER:                  -9.815
REMARK INTRA:                  -1.237
REMARK UNBOUND:                -1.482
REMARK  Name = 
REMARK  10 active torsions:
REMARK  status: ('A' for Active; 'I' for Inactive)
REMARK    1  A    between atoms: C_1  and  C_2
REMARK    2  A    between atoms: C_2  and  C_3
REMARK    3  A    between atoms: C_5  and  O_6
REMARK    4  A    between atoms: O_6  and  C_7
REMARK    5  A    between atoms: C_9  and  N_10
REMARK    6  A    between atoms: N_10  and  C_11
REMARK    7  A    between atoms: C_11  and  C_12
REMARK    8  A    between atoms: C_12  and  C_15
REMARK    9  A    between atoms: C_19  and  C_20
REMARK   10  A    between atoms: C_25  and  C_26
REMARK                            x       y       z     vdW  Elec       q    Type
REMARK                         _______ _______ _______ _____ _____    ______ ____
ROOT
ATOM      1  N   UNL     1      45.610   4.927  13.186  0.00  0.00    +0.000 N 
ATOM      2  H   UNL     1      45.907   4.361  12.389  0.00  0.00    +0.000 HD
ENDROOT
BRANCH   1   5
ATOM      3  C   UNL     1      48.488   5.865  15.305  0.00  0.00    +0.000 A 
ATOM      4  C   UNL     1      47.380   5.187  14.799  0.00  0.00    +0.000 A 
ATOM      5  C   UNL     1      46.722   5.648  13.652  0.00  0.00    +0.000 A 
ATOM      6  C   UNL     1      47.277   6.723  12.948  0.00  0.00    +0.000 A 
ATOM      7  C   UNL     1      48.396   7.416  13.432  0.00  0.00    +0.000 A 
ATOM      8  C   UNL     1      48.984   6.988  14.632  0.00  0.00    +0.000 A 
BRANCH   7   9
ATOM      9  C   UNL     1      48.957   8.581  12.655  0.00  0.00    +0.000 C 
ATOM     10  F   UNL     1      50.313   8.525  12.496  0.00  0.00    +0.000 F 
ATOM     11  F   UNL     1      48.444   8.678  11.398  0.00  0.00    +0.000 F 
ATOM     12  F   UNL     1      48.711   9.777  13.257  0.00  0.00    +0.000 F 
ENDBRANCH   7   9
BRANCH   3  13
ATOM     13  O   UNL     1      49.208   5.422  16.386  0.00  0.00    +0.000 OA
BRANCH  13  18
ATOM     14  C   UNL     1      48.621   4.650  20.169  0.00  0.00    +0.000 C 
ATOM     15  C   UNL     1      49.110   5.405  18.955  0.00  0.00    +0.000 C 
ATOM     16  C   UNL     1      50.570   5.778  19.005  0.00  0.00    +0.000 C 
ATOM     17  C   UNL     1      48.135   6.389  18.358  0.00  0.00    +0.000 C 
ATOM     18  C   UNL     1      48.464   5.131  17.595  0.00  0.00    +0.000 C 
ENDBRANCH  13  18
ENDBRANCH   3  13
ENDBRANCH   1   5
BRANCH   1  19
ATOM     19  C   UNL     1      44.390   5.704  12.838  0.00  0.00    +0.000 C 
BRANCH  19  20
ATOM     20  C   UNL     1      44.080   5.851  11.320  0.00  0.00    +0.000 C 
ATOM     21  F   UNL     1      42.806   6.310  11.145  0.00  0.00    +0.000 F 
ATOM     22  F   UNL     1      44.868   6.874  10.856  0.00  0.00    +0.000 F 
BRANCH  20  23
ATOM     23  C   UNL     1      44.335   4.575  10.550  0.00  0.00    +0.000 A 
ATOM     24  C   UNL     1      43.763   3.360  10.942  0.00  0.00    +0.000 A 
ATOM     25  C   UNL     1      44.055   2.215  10.217  0.00  0.00    +0.000 A 
ATOM     26  N   UNL     1      44.863   2.193   9.135  0.00  0.00    +0.000 NA
ATOM     27  C   UNL     1      45.404   3.387   8.765  0.00  0.00    +0.000 A 
ATOM     28  C   UNL     1      45.172   4.584   9.430  0.00  0.00    +0.000 A 
BRANCH  27  29
ATOM     29  C   UNL     1      46.302   3.371   7.570  0.00  0.00    +0.000 C 
ATOM     30  N   UNL     1      46.889   2.167   7.295  0.00  0.00    +0.000 N 
ATOM     31  O   UNL     1      46.500   4.362   6.876  0.00  0.00    +0.000 OA
ATOM     32  H   UNL     1      46.692   1.372   7.892  0.00  0.00    +0.000 HD
ATOM     33  H   UNL     1      47.498   2.077   6.495  0.00  0.00    +0.000 HD
ENDBRANCH  27  29
ENDBRANCH  20  23
ENDBRANCH  19  20
ENDBRANCH   1  19
TORSDOF 8
ENDMDL
