MODEL 1
REMARK VINA RESULT:    -9.035      0.000      0.000
REMARK INTER + INTRA:         -12.539
REMARK INTER:                 -11.675
REMARK INTRA:                  -0.863
REMARK UNBOUND:                -0.863
REMARK  Name = 
REMARK  5 active torsions:
REMARK  status: ('A' for Active; 'I' for Inactive)
REMARK    1  A    between atoms: C_2  and  C_4
REMARK    2  A    between atoms: N_8  and  C_9
REMARK    3  A    between atoms: C_9  and  C_10
REMARK    4  A    between atoms: C_10  and  C_11
REMARK    5  A    between atoms: C_15  and  C_16
REMARK                            x       y       z     vdW  Elec       q    Type
REMARK                         _______ _______ _______ _____ _____    ______ ____
ROOT
ATOM      1  C   UNL     1      43.281   4.472  11.110  0.00  0.00    +0.000 C 
ENDROOT
BRANCH   1   6
ATOM      2  C   UNL     1      46.477   2.494   7.691  0.00  0.00    +0.000 A 
ATOM      3  C   UNL     1      45.666   1.860   8.624  0.00  0.00    +0.000 A 
ATOM      4  C   UNL     1      44.745   2.618   9.349  0.00  0.00    +0.000 A 
ATOM      5  C   UNL     1      44.657   3.993   9.141  0.00  0.00    +0.000 A 
ATOM      6  N   UNL     1      43.683   4.782   9.745  0.00  0.00    +0.000 N 
ATOM      7  N   UNL     1      45.469   4.627   8.270  0.00  0.00    +0.000 NA
ATOM      8  C   UNL     1      46.367   3.872   7.573  0.00  0.00    +0.000 A 
ATOM      9  H   UNL     1      43.910   5.752   9.542  0.00  0.00    +0.000 HD
BRANCH   2  11
ATOM     10  N   UNL     1      48.541   2.433   6.422  0.00  0.00    +0.000 N 
ATOM     11  C   UNL     1      47.423   1.756   6.830  0.00  0.00    +0.000 C 
ATOM     12  O   UNL     1      47.243   0.587   6.536  0.00  0.00    +0.000 OA
ATOM     13  H   UNL     1      49.243   1.890   5.932  0.00  0.00    +0.000 HD
ATOM     14  H   UNL     1      48.844   3.295   6.856  0.00  0.00    +0.000 HD
ENDBRANCH   2  11
ENDBRANCH   1   6
BRANCH   1  15
ATOM     15  C   UNL     1      43.441   5.689  12.032  0.00  0.00    +0.000 C 
BRANCH  15  16
ATOM     16  C   UNL     1      44.843   5.740  12.598  0.00  0.00    +0.000 A 
ATOM     17  C   UNL     1      45.323   4.699  13.399  0.00  0.00    +0.000 A 
ATOM     18  C   UNL     1      46.644   4.702  13.837  0.00  0.00    +0.000 A 
ATOM     19  C   UNL     1      47.504   5.740  13.468  0.00  0.00    +0.000 A 
ATOM     20  C   UNL     1      47.065   6.799  12.655  0.00  0.00    +0.000 A 
ATOM     21  C   UNL     1      45.715   6.787  12.247  0.00  0.00    +0.000 A 
BRANCH  20  22
ATOM     22  C   UNL     1      47.990   7.863  12.207  0.00  0.00    +0.000 A 
ATOM     23  C   UNL     1      47.599   9.206  12.135  0.00  0.00    +0.000 A 
ATOM     24  N   UNL     1      48.397  10.237  11.759  0.00  0.00    +0.000 NA
ATOM     25  C   UNL     1      49.673   9.924  11.440  0.00  0.00    +0.000 A 
ATOM     26  C   UNL     1      50.173   8.635  11.474  0.00  0.00    +0.000 A 
ATOM     27 CL   UNL     1      51.809   8.312  11.065  0.00  0.00    +0.000 Cl
ATOM     28  C   UNL     1      49.324   7.598  11.856  0.00  0.00    +0.000 A 
ENDBRANCH  20  22
ENDBRANCH  15  16
ENDBRANCH   1  15
TORSDOF 5
ENDMDL
MODEL 2
REMARK VINA RESULT:    -8.988      2.753      3.790
REMARK INTER + INTRA:         -12.479
REMARK INTER:                 -11.825
REMARK INTRA:                  -0.654
REMARK UNBOUND:                -0.863
REMARK  Name = 
REMARK  5 active torsions:
REMARK  status: ('A' for Active; 'I' for Inactive)
REMARK    1  A    between atoms: C_2  and  C_4
REMARK    2  A    between atoms: N_8  and  C_9
REMARK    3  A    between atoms: C_9  and  C_10
REMARK    4  A    between atoms: C_10  and  C_11
REMARK    5  A    between atoms: C_15  and  C_16
REMARK                            x       y       z     vdW  Elec       q    Type
REMARK                         _______ _______ _______ _____ _____    ______ ____
ROOT
ATOM      1  C   UNL     1      43.371   4.558  11.128  0.00  0.00    +0.000 C 
ENDROOT
BRANCH   1   6
ATOM      2  C   UNL     1      46.401   2.320   7.719  0.00  0.00    +0.000 A 
ATOM      3  C   UNL     1      45.584   1.756   8.691  0.00  0.00    +0.000 A 
ATOM      4  C   UNL     1      44.714   2.579   9.407  0.00  0.00    +0.000 A 
ATOM      5  C   UNL     1      44.680   3.949   9.150  0.00  0.00    +0.000 A 
ATOM      6  N   UNL     1      43.755   4.801   9.745  0.00  0.00    +0.000 N 
ATOM      7  N   UNL     1      45.499   4.514   8.240  0.00  0.00    +0.000 NA
ATOM      8  C   UNL     1      46.348   3.696   7.552  0.00  0.00    +0.000 A 
ATOM      9  H   UNL     1      44.020   5.752   9.502  0.00  0.00    +0.000 HD
BRANCH   2  11
ATOM     10  N   UNL     1      48.352   2.162   6.290  0.00  0.00    +0.000 N 
ATOM     11  C   UNL     1      47.295   1.511   6.866  0.00  0.00    +0.000 C 
ATOM     12  O   UNL     1      47.129   0.312   6.719  0.00  0.00    +0.000 OA
ATOM     13  H   UNL     1      49.028   1.583   5.805  0.00  0.00    +0.000 HD
ATOM     14  H   UNL     1      48.663   3.074   6.599  0.00  0.00    +0.000 HD
ENDBRANCH   2  11
ENDBRANCH   1   6
BRANCH   1  15
ATOM     15  C   UNL     1      43.596   5.801  12.000  0.00  0.00    +0.000 C 
BRANCH  15  16
ATOM     16  C   UNL     1      45.075   6.029  12.222  0.00  0.00    +0.000 A 
ATOM     17  C   UNL     1      45.811   6.818  11.333  0.00  0.00    +0.000 A 
ATOM     18  C   UNL     1      47.148   7.106  11.593  0.00  0.00    +0.000 A 
ATOM     19  C   UNL     1      47.760   6.618  12.750  0.00  0.00    +0.000 A 
ATOM     20  C   UNL     1      47.052   5.831  13.676  0.00  0.00    +0.000 A 
ATOM     21  C   UNL     1      45.707   5.532  13.376  0.00  0.00    +0.000 A 
BRANCH  20  22
ATOM     22  C   UNL     1      47.677   5.371  14.935  0.00  0.00    +0.000 A 
ATOM     23  C   UNL     1      48.767   6.036  15.510  0.00  0.00    +0.000 A 
ATOM     24  N   UNL     1      49.374   5.688  16.673  0.00  0.00    +0.000 NA
ATOM     25  C   UNL     1      48.868   4.613  17.318  0.00  0.00    +0.000 A 
ATOM     26  C   UNL     1      47.794   3.878  16.847  0.00  0.00    +0.000 A 
ATOM     27 CL   UNL     1      47.196   2.530  17.725  0.00  0.00    +0.000 Cl
ATOM     28  C   UNL     1      47.199   4.258  15.646  0.00  0.00    +0.000 A 
ENDBRANCH  20  22
ENDBRANCH  15  16
ENDBRANCH   1  15
TORSDOF 5
ENDMDL
MODEL 3
REMARK VINA RESULT:    -7.469      5.302      8.425
REMARK INTER + INTRA:         -10.516
REMARK INTER:                 -10.137
REMARK INTRA:                  -0.379
REMARK UNBOUND:                -0.863
REMARK  Name = 
REMARK  5 active torsions:
REMARK  status: ('A' for Active; 'I' for Inactive)
REMARK    1  A    between atoms: C_2  and  C_4
REMARK    2  A    between atoms: N_8  and  C_9
REMARK    3  A    between atoms: C_9  and  C_10
REMARK    4  A    between atoms: C_10  and  C_11
REMARK    5  A    between atoms: C_15  and  C_16
REMARK                            x       y       z     vdW  Elec       q    Type
REMARK                         _______ _______ _______ _____ _____    ______ ____
ROOT
ATOM      1  C   UNL     1      46.895   4.197  13.797  0.00  0.00    +0.000 C 
ENDROOT
BRANCH   1   6
ATOM      2  C   UNL     1      48.845   4.248  18.488  0.00  0.00    +0.000 A 
ATOM      3  C   UNL     1      47.905   5.088  17.905  0.00  0.00    +0.000 A 
ATOM      4  C   UNL     1      47.403   4.771  16.642  0.00  0.00    +0.000 A 
ATOM      5  C   UNL     1      47.853   3.631  15.979  0.00  0.00    +0.000 A 
ATOM      6  N   UNL     1      47.307   3.199  14.775  0.00  0.00    +0.000 N 
ATOM      7  N   UNL     1      48.797   2.831  16.515  0.00  0.00    +0.000 NA
ATOM      8  C   UNL     1      49.282   3.158  17.749  0.00  0.00    +0.000 A 
ATOM      9  H   UNL     1      47.887   2.436  14.435  0.00  0.00    +0.000 HD
BRANCH   2  11
ATOM     10  N   UNL     1      48.581   4.062  20.891  0.00  0.00    +0.000 N 
ATOM     11  C   UNL     1      49.372   4.469  19.851  0.00  0.00    +0.000 C 
ATOM     12  O   UNL     1      50.477   4.947  20.039  0.00  0.00    +0.000 OA
ATOM     13  H   UNL     1      48.995   4.106  21.815  0.00  0.00    +0.000 HD
ATOM     14  H   UNL     1      47.797   3.435  20.765  0.00  0.00    +0.000 HD
ENDBRANCH   2  11
ENDBRANCH   1   6
BRANCH   1  15
ATOM     15  C   UNL     1      45.425   4.596  13.987  0.00  0.00    +0.000 C 
BRANCH  15  16
ATOM     16  C   UNL     1      44.686   4.530  12.668  0.00  0.00    +0.000 A 
ATOM     17  C   UNL     1      43.433   5.133  12.527  0.00  0.00    +0.000 A 
ATOM     18  C   UNL     1      42.800   5.155  11.287  0.00  0.00    +0.000 A 
ATOM     19  C   UNL     1      43.420   4.585  10.173  0.00  0.00    +0.000 A 
ATOM     20  C   UNL     1      44.685   3.979  10.268  0.00  0.00    +0.000 A 
ATOM     21  C   UNL     1      45.292   3.946  11.541  0.00  0.00    +0.000 A 
BRANCH  20  22
ATOM     22  C   UNL     1      45.373   3.435   9.077  0.00  0.00    +0.000 A 
ATOM     23  C   UNL     1      45.806   4.257   8.029  0.00  0.00    +0.000 A 
ATOM     24  N   UNL     1      46.464   3.835   6.921  0.00  0.00    +0.000 NA
ATOM     25  C   UNL     1      46.721   2.510   6.842  0.00  0.00    +0.000 A 
ATOM     26  C   UNL     1      46.344   1.602   7.815  0.00  0.00    +0.000 A 
ATOM     27 CL   UNL     1      46.714  -0.067   7.655  0.00  0.00    +0.000 Cl
ATOM     28  C   UNL     1      45.662   2.068   8.937  0.00  0.00    +0.000 A 
ENDBRANCH  20  22
ENDBRANCH  15  16
ENDBRANCH   1  15
TORSDOF 5
ENDMDL
MODEL 4
REMARK VINA RESULT:    -7.375      4.557      7.767
REMARK INTER + INTRA:         -10.394
REMARK INTER:                  -9.872
REMARK INTRA:                  -0.522
REMARK UNBOUND:                -0.863
REMARK  Name = 
REMARK  5 active torsions:
REMARK  status: ('A' for Active; 'I' for Inactive)
REMARK    1  A    between atoms: C_2  and  C_4
REMARK    2  A    between atoms: N_8  and  C_9
REMARK    3  A    between atoms: C_9  and  C_10
REMARK    4  A    between atoms: C_10  and  C_11
REMARK    5  A    between atoms: C_15  and  C_16
REMARK                            x       y       z     vdW  Elec       q    Type
REMARK                         _______ _______ _______ _____ _____    ______ ____
ROOT
ATOM      1  C   UNL     1      47.251   6.822  12.932  0.00  0.00    +0.000 C 
ENDROOT
BRANCH   1   6
ATOM      2  C   UNL     1      48.588   4.227  17.091  0.00  0.00    +0.000 A 
ATOM      3  C   UNL     1      48.956   5.501  16.679  0.00  0.00    +0.000 A 
ATOM      4  C   UNL     1      48.323   6.066  15.571  0.00  0.00    +0.000 A 
ATOM      5  C   UNL     1      47.345   5.347  14.885  0.00  0.00    +0.000 A 
ATOM      6  N   UNL     1      46.598   5.897  13.849  0.00  0.00    +0.000 N 
ATOM      7  N   UNL     1      47.011   4.091  15.248  0.00  0.00    +0.000 NA
ATOM      8  C   UNL     1      47.643   3.552  16.331  0.00  0.00    +0.000 A 
ATOM      9  H   UNL     1      46.057   5.144  13.433  0.00  0.00    +0.000 HD
BRANCH   2  11
ATOM     10  N   UNL     1      50.352   2.942  18.147  0.00  0.00    +0.000 N 
ATOM     11  C   UNL     1      49.153   3.586  18.296  0.00  0.00    +0.000 C 
ATOM     12  O   UNL     1      48.604   3.667  19.381  0.00  0.00    +0.000 OA
ATOM     13  H   UNL     1      50.792   2.609  18.997  0.00  0.00    +0.000 HD
ATOM     14  H   UNL     1      50.948   3.082  17.342  0.00  0.00    +0.000 HD
ENDBRANCH   2  11
ENDBRANCH   1   6
BRANCH   1  15
ATOM     15  C   UNL     1      46.246   7.445  11.954  0.00  0.00    +0.000 C 
BRANCH  15  16
ATOM     16  C   UNL     1      45.324   6.383  11.397  0.00  0.00    +0.000 A 
ATOM     17  C   UNL     1      43.947   6.443  11.636  0.00  0.00    +0.000 A 
ATOM     18  C   UNL     1      43.091   5.520  11.042  0.00  0.00    +0.000 A 
ATOM     19  C   UNL     1      43.600   4.536  10.192  0.00  0.00    +0.000 A 
ATOM     20  C   UNL     1      44.976   4.447   9.915  0.00  0.00    +0.000 A 
ATOM     21  C   UNL     1      45.825   5.377  10.550  0.00  0.00    +0.000 A 
BRANCH  20  22
ATOM     22  C   UNL     1      45.509   3.449   8.963  0.00  0.00    +0.000 A 
ATOM     23  C   UNL     1      45.463   2.074   9.224  0.00  0.00    +0.000 A 
ATOM     24  N   UNL     1      45.908   1.101   8.390  0.00  0.00    +0.000 NA
ATOM     25  C   UNL     1      46.429   1.511   7.211  0.00  0.00    +0.000 A 
ATOM     26  C   UNL     1      46.526   2.841   6.843  0.00  0.00    +0.000 A 
ATOM     27 CL   UNL     1      47.189   3.290   5.324  0.00  0.00    +0.000 Cl
ATOM     28  C   UNL     1      46.067   3.816   7.727  0.00  0.00    +0.000 A 
ENDBRANCH  20  22
ENDBRANCH  15  16
ENDBRANCH   1  15
TORSDOF 5
ENDMDL
MODEL 5
REMARK VINA RESULT:    -7.176      4.234      7.652
REMARK INTER + INTRA:         -10.136
REMARK INTER:                  -9.276
REMARK INTRA:                  -0.860
REMARK UNBOUND:                -0.863
REMARK  Name = 
REMARK  5 active torsions:
REMARK  status: ('A' for Active; 'I' for Inactive)
REMARK    1  A    between atoms: C_2  and  C_4
REMARK    2  A    between atoms: N_8  and  C_9
REMARK    3  A    between atoms: C_9  and  C_10
REMARK    4  A    between atoms: C_10  and  C_11
REMARK    5  A    between atoms: C_15  and  C_16
REMARK                            x       y       z     vdW  Elec       q    Type
REMARK                         _______ _______ _______ _____ _____    ______ ____
ROOT
ATOM      1  C   UNL     1      48.924   8.568  13.800  0.00  0.00    +0.000 C 
ENDROOT
BRANCH   1   6
ATOM      2  C   UNL     1      48.243   4.529  16.806  0.00  0.00    +0.000 A 
ATOM      3  C   UNL     1      47.492   4.972  15.725  0.00  0.00    +0.000 A 
ATOM      4  C   UNL     1      47.975   6.026  14.949  0.00  0.00    +0.000 A 
ATOM      5  C   UNL     1      49.192   6.627  15.268  0.00  0.00    +0.000 A 
ATOM      6  N   UNL     1      49.782   7.599  14.468  0.00  0.00    +0.000 N 
ATOM      7  N   UNL     1      49.909   6.235  16.341  0.00  0.00    +0.000 NA
ATOM      8  C   UNL     1      49.420   5.206  17.093  0.00  0.00    +0.000 A 
ATOM      9  H   UNL     1      50.581   7.967  14.977  0.00  0.00    +0.000 HD
BRANCH   2  11
ATOM     10  N   UNL     1      48.752   2.927  18.552  0.00  0.00    +0.000 N 
ATOM     11  C   UNL     1      47.841   3.373  17.633  0.00  0.00    +0.000 C 
ATOM     12  O   UNL     1      46.735   2.870  17.535  0.00  0.00    +0.000 OA
ATOM     13  H   UNL     1      48.429   2.213  19.196  0.00  0.00    +0.000 HD
ATOM     14  H   UNL     1      49.553   3.476  18.835  0.00  0.00    +0.000 HD
ENDBRANCH   2  11
ENDBRANCH   1   6
BRANCH   1  15
ATOM     15  C   UNL     1      48.721   8.214  12.321  0.00  0.00    +0.000 C 
BRANCH  15  16
ATOM     16  C   UNL     1      47.270   7.876  12.054  0.00  0.00    +0.000 A 
ATOM     17  C   UNL     1      46.267   8.821  12.290  0.00  0.00    +0.000 A 
ATOM     18  C   UNL     1      44.946   8.541  11.952  0.00  0.00    +0.000 A 
ATOM     19  C   UNL     1      44.616   7.319  11.362  0.00  0.00    +0.000 A 
ATOM     20  C   UNL     1      45.596   6.346  11.096  0.00  0.00    +0.000 A 
ATOM     21  C   UNL     1      46.922   6.643  11.473  0.00  0.00    +0.000 A 
BRANCH  20  22
ATOM     22  C   UNL     1      45.260   5.079  10.410  0.00  0.00    +0.000 A 
ATOM     23  C   UNL     1      44.473   4.092  11.016  0.00  0.00    +0.000 A 
ATOM     24  N   UNL     1      44.104   2.920  10.441  0.00  0.00    +0.000 NA
ATOM     25  C   UNL     1      44.534   2.708   9.177  0.00  0.00    +0.000 A 
ATOM     26  C   UNL     1      45.315   3.611   8.477  0.00  0.00    +0.000 A 
ATOM     27 CL   UNL     1      45.816   3.282   6.868  0.00  0.00    +0.000 Cl
ATOM     28  C   UNL     1      45.683   4.801   9.100  0.00  0.00    +0.000 A 
ENDBRANCH  20  22
ENDBRANCH  15  16
ENDBRANCH   1  15
TORSDOF 5
ENDMDL
MODEL 6
REMARK VINA RESULT:    -6.894      3.435      7.117
REMARK INTER + INTRA:          -9.773
REMARK INTER:                  -9.103
REMARK INTRA:                  -0.670
REMARK UNBOUND:                -0.863
REMARK  Name = 
REMARK  5 active torsions:
REMARK  status: ('A' for Active; 'I' for Inactive)
REMARK    1  A    between atoms: C_2  and  C_4
REMARK    2  A    between atoms: N_8  and  C_9
REMARK    3  A    between atoms: C_9  and  C_10
REMARK    4  A    between atoms: C_10  and  C_11
REMARK    5  A    between atoms: C_15  and  C_16
REMARK                            x       y       z     vdW  Elec       q    Type
REMARK                         _______ _______ _______ _____ _____    ______ ____
ROOT
ATOM      1  C   UNL     1      45.613   7.803  12.892  0.00  0.00    +0.000 C 
ENDROOT
BRANCH   1   6
ATOM      2  C   UNL     1      50.583   8.477  12.084  0.00  0.00    +0.000 A 
ATOM      3  C   UNL     1      49.700   7.576  11.503  0.00  0.00    +0.000 A 
ATOM      4  C   UNL     1      48.336   7.693  11.772  0.00  0.00    +0.000 A 
ATOM      5  C   UNL     1      47.877   8.697  12.623  0.00  0.00    +0.000 A 
ATOM      6  N   UNL     1      46.524   8.938  12.838  0.00  0.00    +0.000 N 
ATOM      7  N   UNL     1      48.729   9.550  13.228  0.00  0.00    +0.000 NA
ATOM      8  C   UNL     1      50.060   9.419  12.958  0.00  0.00    +0.000 A 
ATOM      9  H   UNL     1      46.453   9.620  13.588  0.00  0.00    +0.000 HD
BRANCH   2  11
ATOM     10  N   UNL     1      52.858   8.022  12.789  0.00  0.00    +0.000 N 
ATOM     11  C   UNL     1      52.032   8.470  11.793  0.00  0.00    +0.000 C 
ATOM     12  O   UNL     1      52.468   8.803  10.704  0.00  0.00    +0.000 OA
ATOM     13  H   UNL     1      53.835   7.907  12.545  0.00  0.00    +0.000 HD
ATOM     14  H   UNL     1      52.516   7.501  13.585  0.00  0.00    +0.000 HD
ENDBRANCH   2  11
ENDBRANCH   1   6
BRANCH   1  15
ATOM     15  C   UNL     1      44.837   7.642  11.577  0.00  0.00    +0.000 C 
BRANCH  15  16
ATOM     16  C   UNL     1      44.547   6.181  11.312  0.00  0.00    +0.000 A 
ATOM     17  C   UNL     1      43.534   5.520  12.015  0.00  0.00    +0.000 A 
ATOM     18  C   UNL     1      43.205   4.205  11.701  0.00  0.00    +0.000 A 
ATOM     19  C   UNL     1      43.876   3.540  10.671  0.00  0.00    +0.000 A 
ATOM     20  C   UNL     1      44.892   4.171   9.932  0.00  0.00    +0.000 A 
ATOM     21  C   UNL     1      45.225   5.494  10.288  0.00  0.00    +0.000 A 
BRANCH  20  22
ATOM     22  C   UNL     1      45.556   3.493   8.798  0.00  0.00    +0.000 A 
ATOM     23  C   UNL     1      46.035   4.199   7.688  0.00  0.00    +0.000 A 
ATOM     24  N   UNL     1      46.676   3.650   6.625  0.00  0.00    +0.000 NA
ATOM     25  C   UNL     1      46.865   2.312   6.663  0.00  0.00    +0.000 A 
ATOM     26  C   UNL     1      46.437   1.511   7.706  0.00  0.00    +0.000 A 
ATOM     27 CL   UNL     1      46.721  -0.182   7.693  0.00  0.00    +0.000 Cl
ATOM     28  C   UNL     1      45.775   2.106   8.778  0.00  0.00    +0.000 A 
ENDBRANCH  20  22
ENDBRANCH  15  16
ENDBRANCH   1  15
TORSDOF 5
ENDMDL
MODEL 7
REMARK VINA RESULT:    -6.858      5.186      8.145
REMARK INTER + INTRA:          -9.726
REMARK INTER:                  -9.004
REMARK INTRA:                  -0.722
REMARK UNBOUND:                -0.863
REMARK  Name = 
REMARK  5 active torsions:
REMARK  status: ('A' for Active; 'I' for Inactive)
REMARK    1  A    between atoms: C_2  and  C_4
REMARK    2  A    between atoms: N_8  and  C_9
REMARK    3  A    between atoms: C_9  and  C_10
REMARK    4  A    between atoms: C_10  and  C_11
REMARK    5  A    between atoms: C_15  and  C_16
REMARK                            x       y       z     vdW  Elec       q    Type
REMARK                         _______ _______ _______ _____ _____    ______ ____
ROOT
ATOM      1  C   UNL     1      49.044   7.723  15.990  0.00  0.00    +0.000 C 
ENDROOT
BRANCH   1   6
ATOM      2  C   UNL     1      50.872   3.211  17.443  0.00  0.00    +0.000 A 
ATOM      3  C   UNL     1      51.493   4.453  17.404  0.00  0.00    +0.000 A 
ATOM      4  C   UNL     1      50.728   5.585  17.119  0.00  0.00    +0.000 A 
ATOM      5  C   UNL     1      49.363   5.459  16.867  0.00  0.00    +0.000 A 
ATOM      6  N   UNL     1      48.528   6.558  16.694  0.00  0.00    +0.000 N 
ATOM      7  N   UNL     1      48.758   4.254  16.858  0.00  0.00    +0.000 NA
ATOM      8  C   UNL     1      49.521   3.156  17.134  0.00  0.00    +0.000 A 
ATOM      9  H   UNL     1      47.622   6.206  16.396  0.00  0.00    +0.000 HD
BRANCH   2  11
ATOM     10  N   UNL     1      52.687   2.115  18.618  0.00  0.00    +0.000 N 
ATOM     11  C   UNL     1      51.592   1.974  17.809  0.00  0.00    +0.000 C 
ATOM     12  O   UNL     1      51.204   0.877  17.447  0.00  0.00    +0.000 OA
ATOM     13  H   UNL     1      53.105   1.258  18.962  0.00  0.00    +0.000 HD
ATOM     14  H   UNL     1      52.873   2.962  19.139  0.00  0.00    +0.000 HD
ENDBRANCH   2  11
ENDBRANCH   1   6
BRANCH   1  15
ATOM     15  C   UNL     1      49.153   7.466  14.481  0.00  0.00    +0.000 C 
BRANCH  15  16
ATOM     16  C   UNL     1      47.790   7.558  13.831  0.00  0.00    +0.000 A 
ATOM     17  C   UNL     1      47.200   8.803  13.594  0.00  0.00    +0.000 A 
ATOM     18  C   UNL     1      45.991   8.888  12.909  0.00  0.00    +0.000 A 
ATOM     19  C   UNL     1      45.366   7.729  12.442  0.00  0.00    +0.000 A 
ATOM     20  C   UNL     1      45.931   6.458  12.648  0.00  0.00    +0.000 A 
ATOM     21  C   UNL     1      47.142   6.398  13.369  0.00  0.00    +0.000 A 
BRANCH  20  22
ATOM     22  C   UNL     1      45.306   5.236  12.097  0.00  0.00    +0.000 A 
ATOM     23  C   UNL     1      44.730   4.260  12.919  0.00  0.00    +0.000 A 
ATOM     24  N   UNL     1      44.119   3.129  12.485  0.00  0.00    +0.000 NA
ATOM     25  C   UNL     1      44.064   2.951  11.146  0.00  0.00    +0.000 A 
ATOM     26  C   UNL     1      44.597   3.847  10.236  0.00  0.00    +0.000 A 
ATOM     27 CL   UNL     1      44.482   3.561   8.547  0.00  0.00    +0.000 Cl
ATOM     28  C   UNL     1      45.226   4.994  10.716  0.00  0.00    +0.000 A 
ENDBRANCH  20  22
ENDBRANCH  15  16
ENDBRANCH   1  15
TORSDOF 5
ENDMDL
MODEL 8
REMARK VINA RESULT:    -6.343      4.245      5.996
REMARK INTER + INTRA:          -9.061
REMARK INTER:                  -8.626
REMARK INTRA:                  -0.435
REMARK UNBOUND:                -0.863
REMARK  Name = 
REMARK  5 active torsions:
REMARK  status: ('A' for Active; 'I' for Inactive)
REMARK    1  A    between atoms: C_2  and  C_4
REMARK    2  A    between atoms: N_8  and  C_9
REMARK    3  A    between atoms: C_9  and  C_10
REMARK    4  A    between atoms: C_10  and  C_11
REMARK    5  A    between atoms: C_15  and  C_16
REMARK                            x       y       z     vdW  Elec       q    Type
REMARK                         _______ _______ _______ _____ _____    ______ ____
ROOT
ATOM      1  C   UNL     1      46.837   8.614  13.291  0.00  0.00    +0.000 C 
ENDROOT
BRANCH   1   6
ATOM      2  C   UNL     1      44.777   4.756  10.705  0.00  0.00    +0.000 A 
ATOM      3  C   UNL     1      45.720   5.694  10.305  0.00  0.00    +0.000 A 
ATOM      4  C   UNL     1      46.256   6.566  11.254  0.00  0.00    +0.000 A 
ATOM      5  C   UNL     1      45.836   6.495  12.581  0.00  0.00    +0.000 A 
ATOM      6  N   UNL     1      46.415   7.253  13.593  0.00  0.00    +0.000 N 
ATOM      7  N   UNL     1      44.889   5.618  12.974  0.00  0.00    +0.000 NA
ATOM      8  C   UNL     1      44.372   4.776  12.032  0.00  0.00    +0.000 A 
ATOM      9  H   UNL     1      45.853   7.122  14.430  0.00  0.00    +0.000 HD
BRANCH   2  11
ATOM     10  N   UNL     1      44.192   4.078   8.453  0.00  0.00    +0.000 N 
ATOM     11  C   UNL     1      44.216   3.749   9.782  0.00  0.00    +0.000 C 
ATOM     12  O   UNL     1      43.836   2.660  10.176  0.00  0.00    +0.000 OA
ATOM     13  H   UNL     1      43.918   3.342   7.812  0.00  0.00    +0.000 HD
ATOM     14  H   UNL     1      44.731   4.844   8.073  0.00  0.00    +0.000 HD
ENDBRANCH   2  11
ENDBRANCH   1   6
BRANCH   1  15
ATOM     15  C   UNL     1      48.283   8.867  13.741  0.00  0.00    +0.000 C 
BRANCH  15  16
ATOM     16  C   UNL     1      48.486   8.380  15.159  0.00  0.00    +0.000 A 
ATOM     17  C   UNL     1      48.156   9.198  16.244  0.00  0.00    +0.000 A 
ATOM     18  C   UNL     1      48.252   8.712  17.544  0.00  0.00    +0.000 A 
ATOM     19  C   UNL     1      48.666   7.398  17.774  0.00  0.00    +0.000 A 
ATOM     20  C   UNL     1      48.995   6.538  16.712  0.00  0.00    +0.000 A 
ATOM     21  C   UNL     1      48.916   7.063  15.405  0.00  0.00    +0.000 A 
BRANCH  20  22
ATOM     22  C   UNL     1      49.368   5.126  16.948  0.00  0.00    +0.000 A 
ATOM     23  C   UNL     1      48.503   4.068  16.645  0.00  0.00    +0.000 A 
ATOM     24  N   UNL     1      48.785   2.751  16.810  0.00  0.00    +0.000 NA
ATOM     25  C   UNL     1      50.009   2.455  17.301  0.00  0.00    +0.000 A 
ATOM     26  C   UNL     1      50.948   3.415  17.636  0.00  0.00    +0.000 A 
ATOM     27 CL   UNL     1      52.489   2.966  18.245  0.00  0.00    +0.000 Cl
ATOM     28  C   UNL     1      50.623   4.758  17.462  0.00  0.00    +0.000 A 
ENDBRANCH  20  22
ENDBRANCH  15  16
ENDBRANCH   1  15
TORSDOF 5
ENDMDL
MODEL 9
REMARK VINA RESULT:    -6.298      4.817      8.202
REMARK INTER + INTRA:          -9.002
REMARK INTER:                  -7.734
REMARK INTRA:                  -1.269
REMARK UNBOUND:                -0.863
REMARK  Name = 
REMARK  5 active torsions:
REMARK  status: ('A' for Active; 'I' for Inactive)
REMARK    1  A    between atoms: C_2  and  C_4
REMARK    2  A    between atoms: N_8  and  C_9
REMARK    3  A    between atoms: C_9  and  C_10
REMARK    4  A    between atoms: C_10  and  C_11
REMARK    5  A    between atoms: C_15  and  C_16
REMARK                            x       y       z     vdW  Elec       q    Type
REMARK                         _______ _______ _______ _____ _____    ______ ____
ROOT
ATOM      1  C   UNL     1      50.123   9.234  16.109  0.00  0.00    +0.000 C 
ENDROOT
BRANCH   1   6
ATOM      2  C   UNL     1      48.121   4.863  17.754  0.00  0.00    +0.000 A 
ATOM      3  C   UNL     1      49.107   5.089  16.802  0.00  0.00    +0.000 A 
ATOM      4  C   UNL     1      49.609   6.381  16.638  0.00  0.00    +0.000 A 
ATOM      5  C   UNL     1      49.113   7.426  17.416  0.00  0.00    +0.000 A 
ATOM      6  N   UNL     1      49.652   8.707  17.383  0.00  0.00    +0.000 N 
ATOM      7  N   UNL     1      48.125   7.227  18.313  0.00  0.00    +0.000 NA
ATOM      8  C   UNL     1      47.642   5.959  18.457  0.00  0.00    +0.000 A 
ATOM      9  H   UNL     1      49.041   9.308  17.930  0.00  0.00    +0.000 HD
BRANCH   2  11
ATOM     10  N   UNL     1      48.119   2.863  19.123  0.00  0.00    +0.000 N 
ATOM     11  C   UNL     1      47.589   3.516  18.042  0.00  0.00    +0.000 C 
ATOM     12  O   UNL     1      46.690   3.027  17.380  0.00  0.00    +0.000 OA
ATOM     13  H   UNL     1      47.670   1.993  19.387  0.00  0.00    +0.000 HD
ATOM     14  H   UNL     1      48.662   3.337  19.832  0.00  0.00    +0.000 HD
ENDBRANCH   2  11
ENDBRANCH   1   6
BRANCH   1  15
ATOM     15  C   UNL     1      48.991   9.919  15.332  0.00  0.00    +0.000 C 
BRANCH  15  16
ATOM     16  C   UNL     1      48.762   9.220  14.009  0.00  0.00    +0.000 A 
ATOM     17  C   UNL     1      49.487   9.597  12.874  0.00  0.00    +0.000 A 
ATOM     18  C   UNL     1      49.345   8.888  11.684  0.00  0.00    +0.000 A 
ATOM     19  C   UNL     1      48.487   7.787  11.621  0.00  0.00    +0.000 A 
ATOM     20  C   UNL     1      47.751   7.367  12.742  0.00  0.00    +0.000 A 
ATOM     21  C   UNL     1      47.891   8.118  13.927  0.00  0.00    +0.000 A 
BRANCH  20  22
ATOM     22  C   UNL     1      46.895   6.162  12.696  0.00  0.00    +0.000 A 
ATOM     23  C   UNL     1      46.905   5.204  13.718  0.00  0.00    +0.000 A 
ATOM     24  N   UNL     1      46.132   4.090  13.757  0.00  0.00    +0.000 NA
ATOM     25  C   UNL     1      45.283   3.910  12.721  0.00  0.00    +0.000 A 
ATOM     26  C   UNL     1      45.184   4.788  11.656  0.00  0.00    +0.000 A 
ATOM     27 CL   UNL     1      44.075   4.502  10.377  0.00  0.00    +0.000 Cl
ATOM     28  C   UNL     1      45.999   5.918  11.643  0.00  0.00    +0.000 A 
ENDBRANCH  20  22
ENDBRANCH  15  16
ENDBRANCH   1  15
TORSDOF 5
ENDMDL
