MODEL 1
REMARK VINA RESULT:    -8.434      0.000      0.000
REMARK INTER + INTRA:         -11.675
REMARK INTER:                 -10.900
REMARK INTRA:                  -0.775
REMARK UNBOUND:                -0.775
REMARK  Name = 
REMARK  5 active torsions:
REMARK  status: ('A' for Active; 'I' for Inactive)
REMARK    1  A    between atoms: C_2  and  C_3
REMARK    2  A    between atoms: C_6  and  C_7
REMARK    3  A    between atoms: C_11  and  C_12
REMARK    4  A    between atoms: C_12  and  N_13
REMARK    5  A    between atoms: C_17  and  C_18
REMARK                            x       y       z     vdW  Elec       q    Type
REMARK                         _______ _______ _______ _____ _____    ______ ____
ROOT
ATOM      1  C   UNL     1      44.080   4.750  11.511  0.00  0.00    +0.000 C 
ATOM      2  C   UNL     1      43.293   5.900  10.914  0.00  0.00    +0.000 C 
ATOM      3  C   UNL     1      42.715   5.147  12.064  0.00  0.00    +0.000 C 
ENDROOT
BRANCH   1   4
ATOM      4  N   UNL     1      44.161   3.426  10.859  0.00  0.00    +0.000 N 
ATOM      5  C   UNL     1      44.919   3.269   9.680  0.00  0.00    +0.000 A 
ATOM      6  C   UNL     1      45.082   1.985   9.164  0.00  0.00    +0.000 A 
ATOM      7  C   UNL     1      45.844   1.794   8.013  0.00  0.00    +0.000 A 
ATOM      8  C   UNL     1      46.421   2.908   7.431  0.00  0.00    +0.000 A 
ATOM      9  N   UNL     1      46.270   4.150   7.944  0.00  0.00    +0.000 NA
ATOM     10  N   UNL     1      45.524   4.319   9.082  0.00  0.00    +0.000 NA
ATOM     11  H   UNL     1      43.294   2.905  10.802  0.00  0.00    +0.000 HD
BRANCH   8  12
ATOM     12  C   UNL     1      47.245   2.797   6.198  0.00  0.00    +0.000 C 
ATOM     13  N   UNL     1      48.577   2.544   6.392  0.00  0.00    +0.000 N 
ATOM     14  O   UNL     1      46.768   2.924   5.077  0.00  0.00    +0.000 OA
ATOM     15  H   UNL     1      48.953   2.439   7.328  0.00  0.00    +0.000 HD
ATOM     16  H   UNL     1      49.185   2.448   5.591  0.00  0.00    +0.000 HD
ENDBRANCH   8  12
ENDBRANCH   1   4
BRANCH   1  21
ATOM     17  C   UNL     1      47.338   6.442  12.695  0.00  0.00    +0.000 A 
ATOM     18  C   UNL     1      47.564   5.755  13.898  0.00  0.00    +0.000 A 
ATOM     19  C   UNL     1      46.689   4.759  14.336  0.00  0.00    +0.000 A 
ATOM     20  C   UNL     1      45.574   4.422  13.570  0.00  0.00    +0.000 A 
ATOM     21  C   UNL     1      45.307   5.069  12.355  0.00  0.00    +0.000 A 
ATOM     22  C   UNL     1      46.200   6.077  11.952  0.00  0.00    +0.000 A 
BRANCH  17  26
ATOM     23  C   UNL     1      49.954   9.607  11.381  0.00  0.00    +0.000 A 
ATOM     24  C   UNL     1      48.643   9.893  11.757  0.00  0.00    +0.000 A 
ATOM     25  C   UNL     1      47.793   8.861  12.163  0.00  0.00    +0.000 A 
ATOM     26  C   UNL     1      48.231   7.523  12.222  0.00  0.00    +0.000 A 
ATOM     27  C   UNL     1      49.559   7.262  11.840  0.00  0.00    +0.000 A 
ATOM     28  C   UNL     1      50.410   8.289  11.418  0.00  0.00    +0.000 A 
BRANCH  23  30
ATOM     29  N   UNL     1      51.537  11.516  10.628  0.00  0.00    +0.000 NA
ATOM     30  C   UNL     1      50.828  10.661  10.962  0.00  0.00    +0.000 C 
ENDBRANCH  23  30
ENDBRANCH  17  26
ENDBRANCH   1  21
TORSDOF 5
ENDMDL
MODEL 2
REMARK VINA RESULT:    -8.218      2.625      4.471
REMARK INTER + INTRA:         -11.395
REMARK INTER:                 -11.188
REMARK INTRA:                  -0.207
REMARK UNBOUND:                -0.775
REMARK  Name = 
REMARK  5 active torsions:
REMARK  status: ('A' for Active; 'I' for Inactive)
REMARK    1  A    between atoms: C_2  and  C_3
REMARK    2  A    between atoms: C_6  and  C_7
REMARK    3  A    between atoms: C_11  and  C_12
REMARK    4  A    between atoms: C_12  and  N_13
REMARK    5  A    between atoms: C_17  and  C_18
REMARK                            x       y       z     vdW  Elec       q    Type
REMARK                         _______ _______ _______ _____ _____    ______ ____
ROOT
ATOM      1  C   UNL     1      44.126   4.909  11.420  0.00  0.00    +0.000 C 
ATOM      2  C   UNL     1      43.050   5.854  10.921  0.00  0.00    +0.000 C 
ATOM      3  C   UNL     1      42.856   5.160  12.226  0.00  0.00    +0.000 C 
ENDROOT
BRANCH   1   4
ATOM      4  N   UNL     1      44.295   3.546  10.874  0.00  0.00    +0.000 N 
ATOM      5  C   UNL     1      45.021   3.353   9.680  0.00  0.00    +0.000 A 
ATOM      6  C   UNL     1      45.273   2.048   9.262  0.00  0.00    +0.000 A 
ATOM      7  C   UNL     1      46.006   1.824   8.098  0.00  0.00    +0.000 A 
ATOM      8  C   UNL     1      46.465   2.929   7.405  0.00  0.00    +0.000 A 
ATOM      9  N   UNL     1      46.229   4.192   7.821  0.00  0.00    +0.000 NA
ATOM     10  N   UNL     1      45.513   4.395   8.973  0.00  0.00    +0.000 NA
ATOM     11  H   UNL     1      43.474   2.954  10.896  0.00  0.00    +0.000 HD
BRANCH   8  12
ATOM     12  C   UNL     1      47.251   2.782   6.150  0.00  0.00    +0.000 C 
ATOM     13  N   UNL     1      48.581   2.497   6.310  0.00  0.00    +0.000 N 
ATOM     14  O   UNL     1      46.746   2.909   5.041  0.00  0.00    +0.000 OA
ATOM     15  H   UNL     1      48.981   2.393   7.235  0.00  0.00    +0.000 HD
ATOM     16  H   UNL     1      49.164   2.376   5.493  0.00  0.00    +0.000 HD
ENDBRANCH   8  12
ENDBRANCH   1   4
BRANCH   1  21
ATOM     17  C   UNL     1      47.083   5.675  13.777  0.00  0.00    +0.000 A 
ATOM     18  C   UNL     1      47.857   6.510  12.957  0.00  0.00    +0.000 A 
ATOM     19  C   UNL     1      47.448   6.831  11.661  0.00  0.00    +0.000 A 
ATOM     20  C   UNL     1      46.245   6.330  11.164  0.00  0.00    +0.000 A 
ATOM     21  C   UNL     1      45.428   5.501  11.944  0.00  0.00    +0.000 A 
ATOM     22  C   UNL     1      45.878   5.185  13.238  0.00  0.00    +0.000 A 
BRANCH  17  26
ATOM     23  C   UNL     1      48.267   4.601  17.780  0.00  0.00    +0.000 A 
ATOM     24  C   UNL     1      48.715   5.793  17.214  0.00  0.00    +0.000 A 
ATOM     25  C   UNL     1      48.345   6.126  15.908  0.00  0.00    +0.000 A 
ATOM     26  C   UNL     1      47.506   5.292  15.142  0.00  0.00    +0.000 A 
ATOM     27  C   UNL     1      47.066   4.098  15.738  0.00  0.00    +0.000 A 
ATOM     28  C   UNL     1      47.446   3.750  17.039  0.00  0.00    +0.000 A 
BRANCH  23  30
ATOM     29  N   UNL     1      48.956   3.976  20.199  0.00  0.00    +0.000 NA
ATOM     30  C   UNL     1      48.646   4.253  19.117  0.00  0.00    +0.000 C 
ENDBRANCH  23  30
ENDBRANCH  17  26
ENDBRANCH   1  21
TORSDOF 5
ENDMDL
MODEL 3
REMARK VINA RESULT:    -6.687      5.451      8.730
REMARK INTER + INTRA:          -9.416
REMARK INTER:                  -8.603
REMARK INTRA:                  -0.813
REMARK UNBOUND:                -0.775
REMARK  Name = 
REMARK  5 active torsions:
REMARK  status: ('A' for Active; 'I' for Inactive)
REMARK    1  A    between atoms: C_2  and  C_3
REMARK    2  A    between atoms: C_6  and  C_7
REMARK    3  A    between atoms: C_11  and  C_12
REMARK    4  A    between atoms: C_12  and  N_13
REMARK    5  A    between atoms: C_17  and  C_18
REMARK                            x       y       z     vdW  Elec       q    Type
REMARK                         _______ _______ _______ _____ _____    ______ ____
ROOT
ATOM      1  C   UNL     1      49.894   7.894  16.606  0.00  0.00    +0.000 C 
ATOM      2  C   UNL     1      48.670   8.012  17.493  0.00  0.00    +0.000 C 
ATOM      3  C   UNL     1      49.479   9.232  17.209  0.00  0.00    +0.000 C 
ENDROOT
BRANCH   1   4
ATOM      4  N   UNL     1      51.169   7.325  17.092  0.00  0.00    +0.000 N 
ATOM      5  C   UNL     1      51.299   5.930  17.255  0.00  0.00    +0.000 A 
ATOM      6  C   UNL     1      52.551   5.416  17.588  0.00  0.00    +0.000 A 
ATOM      7  C   UNL     1      52.717   4.040  17.734  0.00  0.00    +0.000 A 
ATOM      8  C   UNL     1      51.613   3.234  17.527  0.00  0.00    +0.000 A 
ATOM      9  N   UNL     1      50.405   3.737  17.191  0.00  0.00    +0.000 NA
ATOM     10  N   UNL     1      50.260   5.092  17.043  0.00  0.00    +0.000 NA
ATOM     11  H   UNL     1      51.613   7.819  17.856  0.00  0.00    +0.000 HD
BRANCH   8  12
ATOM     12  C   UNL     1      51.699   1.755  17.667  0.00  0.00    +0.000 C 
ATOM     13  N   UNL     1      52.738   1.288  18.428  0.00  0.00    +0.000 N 
ATOM     14  O   UNL     1      50.894   0.998  17.137  0.00  0.00    +0.000 OA
ATOM     15  H   UNL     1      53.391   1.930  18.861  0.00  0.00    +0.000 HD
ATOM     16  H   UNL     1      52.841   0.293  18.567  0.00  0.00    +0.000 HD
ENDBRANCH   8  12
ENDBRANCH   1   4
BRANCH   1  21
ATOM     17  C   UNL     1      48.373   6.696  13.270  0.00  0.00    +0.000 A 
ATOM     18  C   UNL     1      49.220   7.338  12.354  0.00  0.00    +0.000 A 
ATOM     19  C   UNL     1      50.270   8.150  12.788  0.00  0.00    +0.000 A 
ATOM     20  C   UNL     1      50.501   8.324  14.152  0.00  0.00    +0.000 A 
ATOM     21  C   UNL     1      49.692   7.697  15.110  0.00  0.00    +0.000 A 
ATOM     22  C   UNL     1      48.634   6.900  14.638  0.00  0.00    +0.000 A 
BRANCH  17  26
ATOM     23  C   UNL     1      45.095   4.217  11.968  0.00  0.00    +0.000 A 
ATOM     24  C   UNL     1      45.420   5.375  11.263  0.00  0.00    +0.000 A 
ATOM     25  C   UNL     1      46.471   6.185  11.701  0.00  0.00    +0.000 A 
ATOM     26  C   UNL     1      47.234   5.856  12.839  0.00  0.00    +0.000 A 
ATOM     27  C   UNL     1      46.887   4.682  13.530  0.00  0.00    +0.000 A 
ATOM     28  C   UNL     1      45.826   3.874  13.106  0.00  0.00    +0.000 A 
BRANCH  23  30
ATOM     29  N   UNL     1      43.146   2.706  11.169  0.00  0.00    +0.000 NA
ATOM     30  C   UNL     1      44.017   3.384  11.525  0.00  0.00    +0.000 C 
ENDBRANCH  23  30
ENDBRANCH  17  26
ENDBRANCH   1  21
TORSDOF 5
ENDMDL
MODEL 4
REMARK VINA RESULT:    -6.436      4.538      6.763
REMARK INTER + INTRA:          -9.092
REMARK INTER:                  -8.235
REMARK INTRA:                  -0.857
REMARK UNBOUND:                -0.775
REMARK  Name = 
REMARK  5 active torsions:
REMARK  status: ('A' for Active; 'I' for Inactive)
REMARK    1  A    between atoms: C_2  and  C_3
REMARK    2  A    between atoms: C_6  and  C_7
REMARK    3  A    between atoms: C_11  and  C_12
REMARK    4  A    between atoms: C_12  and  N_13
REMARK    5  A    between atoms: C_17  and  C_18
REMARK                            x       y       z     vdW  Elec       q    Type
REMARK                         _______ _______ _______ _____ _____    ______ ____
ROOT
ATOM      1  C   UNL     1      48.505   8.268  12.847  0.00  0.00    +0.000 C 
ATOM      2  C   UNL     1      49.587   7.661  11.975  0.00  0.00    +0.000 C 
ATOM      3  C   UNL     1      49.511   9.144  12.106  0.00  0.00    +0.000 C 
ENDROOT
BRANCH   1   4
ATOM      4  N   UNL     1      47.098   8.370  12.403  0.00  0.00    +0.000 N 
ATOM      5  C   UNL     1      46.321   7.202  12.258  0.00  0.00    +0.000 A 
ATOM      6  C   UNL     1      44.966   7.341  11.966  0.00  0.00    +0.000 A 
ATOM      7  C   UNL     1      44.167   6.206  11.838  0.00  0.00    +0.000 A 
ATOM      8  C   UNL     1      44.766   4.973  12.021  0.00  0.00    +0.000 A 
ATOM      9  N   UNL     1      46.078   4.846  12.317  0.00  0.00    +0.000 NA
ATOM     10  N   UNL     1      46.849   5.972  12.447  0.00  0.00    +0.000 NA
ATOM     11  H   UNL     1      46.917   9.019  11.647  0.00  0.00    +0.000 HD
BRANCH   8  12
ATOM     12  C   UNL     1      43.990   3.710  11.898  0.00  0.00    +0.000 C 
ATOM     13  N   UNL     1      44.549   2.607  12.488  0.00  0.00    +0.000 N 
ATOM     14  O   UNL     1      42.918   3.654  11.307  0.00  0.00    +0.000 OA
ATOM     15  H   UNL     1      45.435   2.674  12.975  0.00  0.00    +0.000 HD
ATOM     16  H   UNL     1      44.062   1.723  12.446  0.00  0.00    +0.000 HD
ENDBRANCH   8  12
ENDBRANCH   1   4
BRANCH   1  21
ATOM     17  C   UNL     1      49.562   6.949  16.314  0.00  0.00    +0.000 A 
ATOM     18  C   UNL     1      48.985   7.919  17.147  0.00  0.00    +0.000 A 
ATOM     19  C   UNL     1      48.263   8.990  16.616  0.00  0.00    +0.000 A 
ATOM     20  C   UNL     1      48.094   9.103  15.236  0.00  0.00    +0.000 A 
ATOM     21  C   UNL     1      48.640   8.156  14.359  0.00  0.00    +0.000 A 
ATOM     22  C   UNL     1      49.374   7.100  14.927  0.00  0.00    +0.000 A 
BRANCH  17  26
ATOM     23  C   UNL     1      51.881   3.633  17.804  0.00  0.00    +0.000 A 
ATOM     24  C   UNL     1      50.493   3.536  17.720  0.00  0.00    +0.000 A 
ATOM     25  C   UNL     1      49.745   4.620  17.255  0.00  0.00    +0.000 A 
ATOM     26  C   UNL     1      50.359   5.821  16.846  0.00  0.00    +0.000 A 
ATOM     27  C   UNL     1      51.760   5.892  16.938  0.00  0.00    +0.000 A 
ATOM     28  C   UNL     1      52.514   4.815  17.417  0.00  0.00    +0.000 A 
BRANCH  23  30
ATOM     29  N   UNL     1      53.273   1.625  18.667  0.00  0.00    +0.000 NA
ATOM     30  C   UNL     1      52.652   2.525  18.282  0.00  0.00    +0.000 C 
ENDBRANCH  23  30
ENDBRANCH  17  26
ENDBRANCH   1  21
TORSDOF 5
ENDMDL
MODEL 5
REMARK VINA RESULT:    -6.135      3.367      5.269
REMARK INTER + INTRA:          -8.703
REMARK INTER:                  -7.853
REMARK INTRA:                  -0.849
REMARK UNBOUND:                -0.775
REMARK  Name = 
REMARK  5 active torsions:
REMARK  status: ('A' for Active; 'I' for Inactive)
REMARK    1  A    between atoms: C_2  and  C_3
REMARK    2  A    between atoms: C_6  and  C_7
REMARK    3  A    between atoms: C_11  and  C_12
REMARK    4  A    between atoms: C_12  and  N_13
REMARK    5  A    between atoms: C_17  and  C_18
REMARK                            x       y       z     vdW  Elec       q    Type
REMARK                         _______ _______ _______ _____ _____    ______ ____
ROOT
ATOM      1  C   UNL     1      45.496   8.194  12.159  0.00  0.00    +0.000 C 
ATOM      2  C   UNL     1      45.314   9.274  11.111  0.00  0.00    +0.000 C 
ATOM      3  C   UNL     1      44.917   9.558  12.520  0.00  0.00    +0.000 C 
ENDROOT
BRANCH   1   4
ATOM      4  N   UNL     1      44.576   7.042  12.274  0.00  0.00    +0.000 N 
ATOM      5  C   UNL     1      44.664   5.978  11.352  0.00  0.00    +0.000 A 
ATOM      6  C   UNL     1      43.874   4.851  11.565  0.00  0.00    +0.000 A 
ATOM      7  C   UNL     1      43.955   3.774  10.684  0.00  0.00    +0.000 A 
ATOM      8  C   UNL     1      44.840   3.872   9.626  0.00  0.00    +0.000 A 
ATOM      9  N   UNL     1      45.614   4.963   9.433  0.00  0.00    +0.000 NA
ATOM     10  N   UNL     1      45.528   6.011  10.313  0.00  0.00    +0.000 NA
ATOM     11  H   UNL     1      43.609   7.264  12.475  0.00  0.00    +0.000 HD
BRANCH   8  12
ATOM     12  C   UNL     1      44.987   2.773   8.636  0.00  0.00    +0.000 C 
ATOM     13  N   UNL     1      44.715   1.513   9.100  0.00  0.00    +0.000 N 
ATOM     14  O   UNL     1      45.329   2.975   7.477  0.00  0.00    +0.000 OA
ATOM     15  H   UNL     1      44.429   1.365  10.061  0.00  0.00    +0.000 HD
ATOM     16  H   UNL     1      44.787   0.726   8.470  0.00  0.00    +0.000 HD
ENDBRANCH   8  12
ENDBRANCH   1   4
BRANCH   1  21
ATOM     17  C   UNL     1      48.388   7.003  14.417  0.00  0.00    +0.000 A 
ATOM     18  C   UNL     1      49.482   7.197  13.560  0.00  0.00    +0.000 A 
ATOM     19  C   UNL     1      49.308   7.703  12.270  0.00  0.00    +0.000 A 
ATOM     20  C   UNL     1      48.032   8.037  11.816  0.00  0.00    +0.000 A 
ATOM     21  C   UNL     1      46.906   7.873  12.635  0.00  0.00    +0.000 A 
ATOM     22  C   UNL     1      47.116   7.346  13.921  0.00  0.00    +0.000 A 
BRANCH  17  26
ATOM     23  C   UNL     1      48.769   5.395  18.399  0.00  0.00    +0.000 A 
ATOM     24  C   UNL     1      49.227   6.680  18.116  0.00  0.00    +0.000 A 
ATOM     25  C   UNL     1      49.119   7.189  16.819  0.00  0.00    +0.000 A 
ATOM     26  C   UNL     1      48.538   6.440  15.777  0.00  0.00    +0.000 A 
ATOM     27  C   UNL     1      48.081   5.147  16.089  0.00  0.00    +0.000 A 
ATOM     28  C   UNL     1      48.200   4.626  17.382  0.00  0.00    +0.000 A 
BRANCH  23  30
ATOM     29  N   UNL     1      48.965   4.444  20.802  0.00  0.00    +0.000 NA
ATOM     30  C   UNL     1      48.880   4.867  19.726  0.00  0.00    +0.000 C 
ENDBRANCH  23  30
ENDBRANCH  17  26
ENDBRANCH   1  21
TORSDOF 5
ENDMDL
MODEL 6
REMARK VINA RESULT:    -6.110      4.549      8.510
REMARK INTER + INTRA:          -8.671
REMARK INTER:                  -9.008
REMARK INTRA:                   0.337
REMARK UNBOUND:                -0.775
REMARK  Name = 
REMARK  5 active torsions:
REMARK  status: ('A' for Active; 'I' for Inactive)
REMARK    1  A    between atoms: C_2  and  C_3
REMARK    2  A    between atoms: C_6  and  C_7
REMARK    3  A    between atoms: C_11  and  C_12
REMARK    4  A    between atoms: C_12  and  N_13
REMARK    5  A    between atoms: C_17  and  C_18
REMARK                            x       y       z     vdW  Elec       q    Type
REMARK                         _______ _______ _______ _____ _____    ______ ____
ROOT
ATOM      1  C   UNL     1      50.444   8.412  15.185  0.00  0.00    +0.000 C 
ATOM      2  C   UNL     1      51.788   9.112  15.243  0.00  0.00    +0.000 C 
ATOM      3  C   UNL     1      51.744   7.622  15.298  0.00  0.00    +0.000 C 
ENDROOT
BRANCH   1   4
ATOM      4  N   UNL     1      49.537   8.347  16.351  0.00  0.00    +0.000 N 
ATOM      5  C   UNL     1      49.051   7.099  16.794  0.00  0.00    +0.000 A 
ATOM      6  C   UNL     1      48.305   7.058  17.970  0.00  0.00    +0.000 A 
ATOM      7  C   UNL     1      47.830   5.838  18.445  0.00  0.00    +0.000 A 
ATOM      8  C   UNL     1      48.134   4.701  17.718  0.00  0.00    +0.000 A 
ATOM      9  N   UNL     1      48.869   4.745  16.585  0.00  0.00    +0.000 NA
ATOM     10  N   UNL     1      49.336   5.953  16.135  0.00  0.00    +0.000 NA
ATOM     11  H   UNL     1      48.809   9.049  16.387  0.00  0.00    +0.000 HD
BRANCH   8  12
ATOM     12  C   UNL     1      47.663   3.358  18.150  0.00  0.00    +0.000 C 
ATOM     13  N   UNL     1      48.264   2.847  19.270  0.00  0.00    +0.000 N 
ATOM     14  O   UNL     1      46.794   2.742  17.545  0.00  0.00    +0.000 OA
ATOM     15  H   UNL     1      48.979   3.373  19.760  0.00  0.00    +0.000 HD
ATOM     16  H   UNL     1      47.978   1.943  19.617  0.00  0.00    +0.000 HD
ENDBRANCH   8  12
ENDBRANCH   1   4
BRANCH   1  21
ATOM     17  C   UNL     1      47.979   7.310  12.430  0.00  0.00    +0.000 A 
ATOM     18  C   UNL     1      48.244   8.273  11.445  0.00  0.00    +0.000 A 
ATOM     19  C   UNL     1      49.199   9.272  11.650  0.00  0.00    +0.000 A 
ATOM     20  C   UNL     1      49.918   9.316  12.844  0.00  0.00    +0.000 A 
ATOM     21  C   UNL     1      49.701   8.371  13.856  0.00  0.00    +0.000 A 
ATOM     22  C   UNL     1      48.721   7.391  13.623  0.00  0.00    +0.000 A 
BRANCH  17  26
ATOM     23  C   UNL     1      44.939   4.290  11.950  0.00  0.00    +0.000 A 
ATOM     24  C   UNL     1      45.685   4.352  13.125  0.00  0.00    +0.000 A 
ATOM     25  C   UNL     1      46.683   5.320  13.268  0.00  0.00    +0.000 A 
ATOM     26  C   UNL     1      46.951   6.260  12.253  0.00  0.00    +0.000 A 
ATOM     27  C   UNL     1      46.183   6.178  11.079  0.00  0.00    +0.000 A 
ATOM     28  C   UNL     1      45.193   5.202  10.924  0.00  0.00    +0.000 A 
BRANCH  23  30
ATOM     29  N   UNL     1      43.087   2.498  11.678  0.00  0.00    +0.000 NA
ATOM     30  C   UNL     1      43.918   3.298  11.797  0.00  0.00    +0.000 C 
ENDBRANCH  23  30
ENDBRANCH  17  26
ENDBRANCH   1  21
TORSDOF 5
ENDMDL
MODEL 7
REMARK VINA RESULT:    -5.968      3.879      7.930
REMARK INTER + INTRA:          -8.487
REMARK INTER:                  -8.927
REMARK INTRA:                   0.440
REMARK UNBOUND:                -0.775
REMARK  Name = 
REMARK  5 active torsions:
REMARK  status: ('A' for Active; 'I' for Inactive)
REMARK    1  A    between atoms: C_2  and  C_3
REMARK    2  A    between atoms: C_6  and  C_7
REMARK    3  A    between atoms: C_11  and  C_12
REMARK    4  A    between atoms: C_12  and  N_13
REMARK    5  A    between atoms: C_17  and  C_18
REMARK                            x       y       z     vdW  Elec       q    Type
REMARK                         _______ _______ _______ _____ _____    ______ ____
ROOT
ATOM      1  C   UNL     1      49.361   8.483  13.052  0.00  0.00    +0.000 C 
ATOM      2  C   UNL     1      50.318   9.292  12.198  0.00  0.00    +0.000 C 
ATOM      3  C   UNL     1      50.429   7.805  12.198  0.00  0.00    +0.000 C 
ENDROOT
BRANCH   1   4
ATOM      4  N   UNL     1      49.519   8.360  14.516  0.00  0.00    +0.000 N 
ATOM      5  C   UNL     1      49.060   7.202  15.177  0.00  0.00    +0.000 A 
ATOM      6  C   UNL     1      49.341   7.059  16.534  0.00  0.00    +0.000 A 
ATOM      7  C   UNL     1      48.920   5.915  17.211  0.00  0.00    +0.000 A 
ATOM      8  C   UNL     1      48.240   4.953  16.487  0.00  0.00    +0.000 A 
ATOM      9  N   UNL     1      47.982   5.091  15.168  0.00  0.00    +0.000 NA
ATOM     10  N   UNL     1      48.410   6.219  14.515  0.00  0.00    +0.000 NA
ATOM     11  H   UNL     1      49.309   9.190  15.057  0.00  0.00    +0.000 HD
BRANCH   8  12
ATOM     12  C   UNL     1      47.750   3.705  17.130  0.00  0.00    +0.000 C 
ATOM     13  N   UNL     1      48.709   2.917  17.710  0.00  0.00    +0.000 N 
ATOM     14  O   UNL     1      46.565   3.394  17.143  0.00  0.00    +0.000 OA
ATOM     15  H   UNL     1      49.685   3.192  17.693  0.00  0.00    +0.000 HD
ATOM     16  H   UNL     1      48.435   2.061  18.171  0.00  0.00    +0.000 HD
ENDBRANCH   8  12
ENDBRANCH   1   4
BRANCH   1  21
ATOM     17  C   UNL     1      46.123   6.987  11.582  0.00  0.00    +0.000 A 
ATOM     18  C   UNL     1      45.227   8.044  11.802  0.00  0.00    +0.000 A 
ATOM     19  C   UNL     1      45.642   9.228  12.415  0.00  0.00    +0.000 A 
ATOM     20  C   UNL     1      46.972   9.382  12.809  0.00  0.00    +0.000 A 
ATOM     21  C   UNL     1      47.911   8.362  12.602  0.00  0.00    +0.000 A 
ATOM     22  C   UNL     1      47.454   7.178  11.998  0.00  0.00    +0.000 A 
BRANCH  17  26
ATOM     23  C   UNL     1      44.967   3.247   9.777  0.00  0.00    +0.000 A 
ATOM     24  C   UNL     1      45.385   4.310   8.978  0.00  0.00    +0.000 A 
ATOM     25  C   UNL     1      45.740   5.527   9.567  0.00  0.00    +0.000 A 
ATOM     26  C   UNL     1      45.703   5.710  10.963  0.00  0.00    +0.000 A 
ATOM     27  C   UNL     1      45.280   4.622  11.746  0.00  0.00    +0.000 A 
ATOM     28  C   UNL     1      44.909   3.406  11.162  0.00  0.00    +0.000 A 
BRANCH  23  30
ATOM     29  N   UNL     1      44.297   0.990   8.693  0.00  0.00    +0.000 NA
ATOM     30  C   UNL     1      44.599   1.999   9.178  0.00  0.00    +0.000 C 
ENDBRANCH  23  30
ENDBRANCH  17  26
ENDBRANCH   1  21
TORSDOF 5
ENDMDL
MODEL 8
REMARK VINA RESULT:    -5.883      2.468      3.822
REMARK INTER + INTRA:          -8.378
REMARK INTER:                  -7.815
REMARK INTRA:                  -0.562
REMARK UNBOUND:                -0.775
REMARK  Name = 
REMARK  5 active torsions:
REMARK  status: ('A' for Active; 'I' for Inactive)
REMARK    1  A    between atoms: C_2  and  C_3
REMARK    2  A    between atoms: C_6  and  C_7
REMARK    3  A    between atoms: C_11  and  C_12
REMARK    4  A    between atoms: C_12  and  N_13
REMARK    5  A    between atoms: C_17  and  C_18
REMARK                            x       y       z     vdW  Elec       q    Type
REMARK                         _______ _______ _______ _____ _____    ______ ____
ROOT
ATOM      1  C   UNL     1      46.371   7.785  12.794  0.00  0.00    +0.000 C 
ATOM      2  C   UNL     1      45.819   8.704  11.721  0.00  0.00    +0.000 C 
ATOM      3  C   UNL     1      45.528   9.006  13.152  0.00  0.00    +0.000 C 
ENDROOT
BRANCH   1   4
ATOM      4  N   UNL     1      45.772   6.467  13.091  0.00  0.00    +0.000 N 
ATOM      5  C   UNL     1      45.527   5.555  12.043  0.00  0.00    +0.000 A 
ATOM      6  C   UNL     1      45.083   4.276  12.369  0.00  0.00    +0.000 A 
ATOM      7  C   UNL     1      44.854   3.345  11.358  0.00  0.00    +0.000 A 
ATOM      8  C   UNL     1      45.091   3.740  10.054  0.00  0.00    +0.000 A 
ATOM      9  N   UNL     1      45.533   4.979   9.744  0.00  0.00    +0.000 NA
ATOM     10  N   UNL     1      45.762   5.880  10.752  0.00  0.00    +0.000 NA
ATOM     11  H   UNL     1      45.007   6.466  13.754  0.00  0.00    +0.000 HD
BRANCH   8  12
ATOM     12  C   UNL     1      44.867   2.813   8.912  0.00  0.00    +0.000 C 
ATOM     13  N   UNL     1      45.076   3.341   7.665  0.00  0.00    +0.000 N 
ATOM     14  O   UNL     1      44.517   1.649   9.070  0.00  0.00    +0.000 OA
ATOM     15  H   UNL     1      45.369   4.305   7.554  0.00  0.00    +0.000 HD
ATOM     16  H   UNL     1      44.950   2.756   6.852  0.00  0.00    +0.000 HD
ENDBRANCH   8  12
ENDBRANCH   1   4
BRANCH   1  21
ATOM     17  C   UNL     1      50.178   8.135  12.278  0.00  0.00    +0.000 A 
ATOM     18  C   UNL     1      50.631   8.010  13.601  0.00  0.00    +0.000 A 
ATOM     19  C   UNL     1      49.736   7.817  14.655  0.00  0.00    +0.000 A 
ATOM     20  C   UNL     1      48.367   7.732  14.403  0.00  0.00    +0.000 A 
ATOM     21  C   UNL     1      47.862   7.838  13.100  0.00  0.00    +0.000 A 
ATOM     22  C   UNL     1      48.789   8.049  12.065  0.00  0.00    +0.000 A 
BRANCH  17  26
ATOM     23  C   UNL     1      52.917   8.829   9.023  0.00  0.00    +0.000 A 
ATOM     24  C   UNL     1      52.385   9.905   9.731  0.00  0.00    +0.000 A 
ATOM     25  C   UNL     1      51.482   9.675  10.772  0.00  0.00    +0.000 A 
ATOM     26  C   UNL     1      51.100   8.371  11.146  0.00  0.00    +0.000 A 
ATOM     27  C   UNL     1      51.654   7.304  10.417  0.00  0.00    +0.000 A 
ATOM     28  C   UNL     1      52.547   7.528   9.363  0.00  0.00    +0.000 A 
BRANCH  23  30
ATOM     29  N   UNL     1      54.588   9.251   7.087  0.00  0.00    +0.000 NA
ATOM     30  C   UNL     1      53.841   9.059   7.952  0.00  0.00    +0.000 C 
ENDBRANCH  23  30
ENDBRANCH  17  26
ENDBRANCH   1  21
TORSDOF 5
ENDMDL
MODEL 9
REMARK VINA RESULT:    -5.675      4.626      8.967
REMARK INTER + INTRA:          -8.108
REMARK INTER:                  -7.300
REMARK INTRA:                  -0.808
REMARK UNBOUND:                -0.775
REMARK  Name = 
REMARK  5 active torsions:
REMARK  status: ('A' for Active; 'I' for Inactive)
REMARK    1  A    between atoms: C_2  and  C_3
REMARK    2  A    between atoms: C_6  and  C_7
REMARK    3  A    between atoms: C_11  and  C_12
REMARK    4  A    between atoms: C_12  and  N_13
REMARK    5  A    between atoms: C_17  and  C_18
REMARK                            x       y       z     vdW  Elec       q    Type
REMARK                         _______ _______ _______ _____ _____    ______ ____
ROOT
ATOM      1  C   UNL     1      50.248   8.692  12.824  0.00  0.00    +0.000 C 
ATOM      2  C   UNL     1      51.147   9.907  12.695  0.00  0.00    +0.000 C 
ATOM      3  C   UNL     1      51.250   8.819  11.680  0.00  0.00    +0.000 C 
ENDROOT
BRANCH   1   4
ATOM      4  N   UNL     1      50.508   7.618  13.805  0.00  0.00    +0.000 N 
ATOM      5  C   UNL     1      50.059   7.757  15.134  0.00  0.00    +0.000 A 
ATOM      6  C   UNL     1      50.205   6.674  15.999  0.00  0.00    +0.000 A 
ATOM      7  C   UNL     1      49.750   6.773  17.313  0.00  0.00    +0.000 A 
ATOM      8  C   UNL     1      49.156   7.959  17.701  0.00  0.00    +0.000 A 
ATOM      9  N   UNL     1      49.006   9.002  16.854  0.00  0.00    +0.000 NA
ATOM     10  N   UNL     1      49.450   8.886  15.562  0.00  0.00    +0.000 NA
ATOM     11  H   UNL     1      51.434   7.207  13.779  0.00  0.00    +0.000 HD
BRANCH   8  12
ATOM     12  C   UNL     1      48.647   8.153  19.085  0.00  0.00    +0.000 C 
ATOM     13  N   UNL     1      49.601   8.223  20.066  0.00  0.00    +0.000 N 
ATOM     14  O   UNL     1      47.452   8.244  19.338  0.00  0.00    +0.000 OA
ATOM     15  H   UNL     1      50.586   8.149  19.837  0.00  0.00    +0.000 HD
ATOM     16  H   UNL     1      49.316   8.365  21.025  0.00  0.00    +0.000 HD
ENDBRANCH   8  12
ENDBRANCH   1   4
BRANCH   1  21
ATOM     17  C   UNL     1      46.578   7.771  12.075  0.00  0.00    +0.000 A 
ATOM     18  C   UNL     1      46.013   9.049  11.940  0.00  0.00    +0.000 A 
ATOM     19  C   UNL     1      46.789  10.201  12.086  0.00  0.00    +0.000 A 
ATOM     20  C   UNL     1      48.153  10.095  12.358  0.00  0.00    +0.000 A 
ATOM     21  C   UNL     1      48.770   8.843  12.492  0.00  0.00    +0.000 A 
ATOM     22  C   UNL     1      47.956   7.706  12.355  0.00  0.00    +0.000 A 
BRANCH  17  26
ATOM     23  C   UNL     1      44.293   4.131  11.735  0.00  0.00    +0.000 A 
ATOM     24  C   UNL     1      44.906   4.681  10.611  0.00  0.00    +0.000 A 
ATOM     25  C   UNL     1      45.629   5.872  10.723  0.00  0.00    +0.000 A 
ATOM     26  C   UNL     1      45.774   6.535  11.957  0.00  0.00    +0.000 A 
ATOM     27  C   UNL     1      45.148   5.958  13.076  0.00  0.00    +0.000 A 
ATOM     28  C   UNL     1      44.411   4.774  12.968  0.00  0.00    +0.000 A 
BRANCH  23  30
ATOM     29  N   UNL     1      42.942   1.928  11.538  0.00  0.00    +0.000 NA
ATOM     30  C   UNL     1      43.549   2.912  11.626  0.00  0.00    +0.000 C 
ENDBRANCH  23  30
ENDBRANCH  17  26
ENDBRANCH   1  21
TORSDOF 5
ENDMDL
