MODEL 1
REMARK VINA RESULT:    -7.824      0.000      0.000
REMARK INTER + INTRA:         -10.542
REMARK INTER:                 -10.111
REMARK INTRA:                  -0.431
REMARK UNBOUND:                -0.431
REMARK  Name = 
REMARK  5 active torsions:
REMARK  status: ('A' for Active; 'I' for Inactive)
REMARK    1  A    between atoms: C_2  and  C_3
REMARK    2  A    between atoms: C_6  and  C_7
REMARK    3  A    between atoms: C_7  and  N_8
REMARK    4  A    between atoms: N_8  and  C_9
REMARK    5  A    between atoms: C_12  and  C_13
REMARK                            x       y       z     vdW  Elec       q    Type
REMARK                         _______ _______ _______ _____ _____    ______ ____
ROOT
ATOM      1  N   UNL     1      43.867   3.714  10.643  0.00  0.00    +0.000 N 
ATOM      2  H   UNL     1      43.090   3.068  10.757  0.00  0.00    +0.000 HD
ENDROOT
BRANCH   1   3
ATOM      3  C   UNL     1      44.711   3.432   9.568  0.00  0.00    +0.000 A 
ATOM      4  C   UNL     1      45.211   4.349   8.661  0.00  0.00    +0.000 A 
ATOM      5  N   UNL     1      46.042   4.043   7.632  0.00  0.00    +0.000 NA
ATOM      6  C   UNL     1      46.409   2.740   7.547  0.00  0.00    +0.000 A 
ATOM      7  N   UNL     1      46.031   1.764   8.389  0.00  0.00    +0.000 NA
ATOM      8  C   UNL     1      45.201   2.147   9.379  0.00  0.00    +0.000 A 
BRANCH   6   9
ATOM      9  C   UNL     1      47.299   2.349   6.390  0.00  0.00    +0.000 C 
ATOM     10  N   UNL     1      47.270   3.190   5.299  0.00  0.00    +0.000 N 
ATOM     11  O   UNL     1      48.012   1.350   6.377  0.00  0.00    +0.000 OA
ATOM     12  H   UNL     1      46.670   4.008   5.301  0.00  0.00    +0.000 HD
ATOM     13  H   UNL     1      47.831   2.961   4.492  0.00  0.00    +0.000 HD
ENDBRANCH   6   9
ENDBRANCH   1   3
BRANCH   1  14
ATOM     14  C   UNL     1      43.831   4.956  11.425  0.00  0.00    +0.000 C 
ATOM     15  C   UNL     1      42.734   5.987  11.242  0.00  0.00    +0.000 C 
ATOM     16  C   UNL     1      42.662   5.055  12.405  0.00  0.00    +0.000 C 
BRANCH  14  20
ATOM     17  C   UNL     1      47.627   6.232  13.161  0.00  0.00    +0.000 A 
ATOM     18  C   UNL     1      47.055   6.966  12.120  0.00  0.00    +0.000 A 
ATOM     19  C   UNL     1      45.858   6.538  11.532  0.00  0.00    +0.000 A 
ATOM     20  C   UNL     1      45.192   5.384  11.977  0.00  0.00    +0.000 A 
ATOM     21  C   UNL     1      45.813   4.639  12.999  0.00  0.00    +0.000 A 
ATOM     22  C   UNL     1      47.013   5.054  13.586  0.00  0.00    +0.000 A 
BRANCH  17  24
ATOM     23  N   UNL     1      49.781   7.063  14.343  0.00  0.00    +0.000 NA
ATOM     24  C   UNL     1      48.820   6.697  13.806  0.00  0.00    +0.000 C 
ENDBRANCH  17  24
ENDBRANCH  14  20
ENDBRANCH   1  14
TORSDOF 5
ENDMDL
MODEL 2
REMARK VINA RESULT:    -7.238      2.941      6.780
REMARK INTER + INTRA:          -9.785
REMARK INTER:                  -9.574
REMARK INTRA:                  -0.211
REMARK UNBOUND:                -0.431
REMARK  Name = 
REMARK  5 active torsions:
REMARK  status: ('A' for Active; 'I' for Inactive)
REMARK    1  A    between atoms: C_2  and  C_3
REMARK    2  A    between atoms: C_6  and  C_7
REMARK    3  A    between atoms: C_7  and  N_8
REMARK    4  A    between atoms: N_8  and  C_9
REMARK    5  A    between atoms: C_12  and  C_13
REMARK                            x       y       z     vdW  Elec       q    Type
REMARK                         _______ _______ _______ _____ _____    ______ ____
ROOT
ATOM      1  N   UNL     1      45.333   5.511  11.595  0.00  0.00    +0.000 N 
ATOM      2  H   UNL     1      45.260   6.482  11.305  0.00  0.00    +0.000 HD
ENDROOT
BRANCH   1   3
ATOM      3  C   UNL     1      46.013   5.307  12.796  0.00  0.00    +0.000 A 
ATOM      4  C   UNL     1      45.736   4.329  13.736  0.00  0.00    +0.000 A 
ATOM      5  N   UNL     1      46.427   4.150  14.890  0.00  0.00    +0.000 NA
ATOM      6  C   UNL     1      47.476   4.988  15.077  0.00  0.00    +0.000 A 
ATOM      7  N   UNL     1      47.876   5.945  14.223  0.00  0.00    +0.000 NA
ATOM      8  C   UNL     1      47.135   6.064  13.105  0.00  0.00    +0.000 A 
BRANCH   6   9
ATOM      9  C   UNL     1      48.246   4.850  16.371  0.00  0.00    +0.000 C 
ATOM     10  N   UNL     1      48.054   5.855  17.294  0.00  0.00    +0.000 N 
ATOM     11  O   UNL     1      49.011   3.923  16.621  0.00  0.00    +0.000 OA
ATOM     12  H   UNL     1      47.433   6.629  17.083  0.00  0.00    +0.000 HD
ATOM     13  H   UNL     1      48.561   5.819  18.165  0.00  0.00    +0.000 HD
ENDBRANCH   6   9
ENDBRANCH   1   3
BRANCH   1  14
ATOM     14  C   UNL     1      44.507   4.530  10.880  0.00  0.00    +0.000 C 
ATOM     15  C   UNL     1      43.360   3.803  11.556  0.00  0.00    +0.000 C 
ATOM     16  C   UNL     1      43.055   4.960  10.665  0.00  0.00    +0.000 C 
BRANCH  14  20
ATOM     17  C   UNL     1      46.607   2.680   7.531  0.00  0.00    +0.000 A 
ATOM     18  C   UNL     1      46.545   4.071   7.632  0.00  0.00    +0.000 A 
ATOM     19  C   UNL     1      45.838   4.670   8.682  0.00  0.00    +0.000 A 
ATOM     20  C   UNL     1      45.193   3.902   9.667  0.00  0.00    +0.000 A 
ATOM     21  C   UNL     1      45.235   2.502   9.516  0.00  0.00    +0.000 A 
ATOM     22  C   UNL     1      45.932   1.895   8.466  0.00  0.00    +0.000 A 
BRANCH  17  24
ATOM     23  N   UNL     1      48.013   1.555   5.664  0.00  0.00    +0.000 NA
ATOM     24  C   UNL     1      47.377   2.062   6.492  0.00  0.00    +0.000 C 
ENDBRANCH  17  24
ENDBRANCH  14  20
ENDBRANCH   1  14
TORSDOF 5
ENDMDL
MODEL 3
REMARK VINA RESULT:    -6.834      2.759      6.414
REMARK INTER + INTRA:          -9.263
REMARK INTER:                  -8.907
REMARK INTRA:                  -0.357
REMARK UNBOUND:                -0.431
REMARK  Name = 
REMARK  5 active torsions:
REMARK  status: ('A' for Active; 'I' for Inactive)
REMARK    1  A    between atoms: C_2  and  C_3
REMARK    2  A    between atoms: C_6  and  C_7
REMARK    3  A    between atoms: C_7  and  N_8
REMARK    4  A    between atoms: N_8  and  C_9
REMARK    5  A    between atoms: C_12  and  C_13
REMARK                            x       y       z     vdW  Elec       q    Type
REMARK                         _______ _______ _______ _____ _____    ______ ____
ROOT
ATOM      1  N   UNL     1      44.824   6.358  11.618  0.00  0.00    +0.000 N 
ATOM      2  H   UNL     1      44.339   7.221  11.384  0.00  0.00    +0.000 HD
ENDROOT
BRANCH   1   3
ATOM      3  C   UNL     1      45.962   6.520  12.409  0.00  0.00    +0.000 A 
ATOM      4  C   UNL     1      46.456   7.718  12.893  0.00  0.00    +0.000 A 
ATOM      5  N   UNL     1      47.560   7.839  13.673  0.00  0.00    +0.000 NA
ATOM      6  C   UNL     1      48.170   6.675  14.005  0.00  0.00    +0.000 A 
ATOM      7  N   UNL     1      47.764   5.447  13.640  0.00  0.00    +0.000 NA
ATOM      8  C   UNL     1      46.665   5.412  12.861  0.00  0.00    +0.000 A 
BRANCH   6   9
ATOM      9  C   UNL     1      49.428   6.767  14.837  0.00  0.00    +0.000 C 
ATOM     10  N   UNL     1      50.452   7.514  14.296  0.00  0.00    +0.000 N 
ATOM     11  O   UNL     1      49.575   6.222  15.927  0.00  0.00    +0.000 OA
ATOM     12  H   UNL     1      50.338   7.954  13.388  0.00  0.00    +0.000 HD
ATOM     13  H   UNL     1      51.320   7.589  14.803  0.00  0.00    +0.000 HD
ENDBRANCH   6   9
ENDBRANCH   1   3
BRANCH   1  14
ATOM     14  C   UNL     1      44.129   5.097  11.334  0.00  0.00    +0.000 C 
ATOM     15  C   UNL     1      43.288   4.391  12.380  0.00  0.00    +0.000 C 
ATOM     16  C   UNL     1      42.603   5.200  11.330  0.00  0.00    +0.000 C 
BRANCH  14  20
ATOM     17  C   UNL     1      45.998   2.750   8.163  0.00  0.00    +0.000 A 
ATOM     18  C   UNL     1      46.085   4.143   8.143  0.00  0.00    +0.000 A 
ATOM     19  C   UNL     1      45.453   4.903   9.135  0.00  0.00    +0.000 A 
ATOM     20  C   UNL     1      44.737   4.296  10.181  0.00  0.00    +0.000 A 
ATOM     21  C   UNL     1      44.628   2.892  10.152  0.00  0.00    +0.000 A 
ATOM     22  C   UNL     1      45.249   2.125   9.161  0.00  0.00    +0.000 A 
BRANCH  17  24
ATOM     23  N   UNL     1      47.267   1.328   6.404  0.00  0.00    +0.000 NA
ATOM     24  C   UNL     1      46.691   1.965   7.184  0.00  0.00    +0.000 C 
ENDBRANCH  17  24
ENDBRANCH  14  20
ENDBRANCH   1  14
TORSDOF 5
ENDMDL
MODEL 4
REMARK VINA RESULT:    -6.408      1.600      2.084
REMARK INTER + INTRA:          -8.712
REMARK INTER:                  -8.746
REMARK INTRA:                   0.034
REMARK UNBOUND:                -0.431
REMARK  Name = 
REMARK  5 active torsions:
REMARK  status: ('A' for Active; 'I' for Inactive)
REMARK    1  A    between atoms: C_2  and  C_3
REMARK    2  A    between atoms: C_6  and  C_7
REMARK    3  A    between atoms: C_7  and  N_8
REMARK    4  A    between atoms: N_8  and  C_9
REMARK    5  A    between atoms: C_12  and  C_13
REMARK                            x       y       z     vdW  Elec       q    Type
REMARK                         _______ _______ _______ _____ _____    ______ ____
ROOT
ATOM      1  N   UNL     1      44.059   4.897   9.937  0.00  0.00    +0.000 N 
ATOM      2  H   UNL     1      43.135   5.064   9.548  0.00  0.00    +0.000 HD
ENDROOT
BRANCH   1   3
ATOM      3  C   UNL     1      44.842   3.992   9.219  0.00  0.00    +0.000 A 
ATOM      4  C   UNL     1      45.842   4.311   8.318  0.00  0.00    +0.000 A 
ATOM      5  N   UNL     1      46.595   3.404   7.646  0.00  0.00    +0.000 NA
ATOM      6  C   UNL     1      46.339   2.105   7.936  0.00  0.00    +0.000 A 
ATOM      7  N   UNL     1      45.430   1.666   8.823  0.00  0.00    +0.000 NA
ATOM      8  C   UNL     1      44.719   2.627   9.443  0.00  0.00    +0.000 A 
BRANCH   6   9
ATOM      9  C   UNL     1      47.126   1.060   7.178  0.00  0.00    +0.000 C 
ATOM     10  N   UNL     1      46.871  -0.250   7.521  0.00  0.00    +0.000 N 
ATOM     11  O   UNL     1      47.954   1.319   6.310  0.00  0.00    +0.000 OA
ATOM     12  H   UNL     1      46.197  -0.465   8.249  0.00  0.00    +0.000 HD
ATOM     13  H   UNL     1      47.386  -0.983   7.058  0.00  0.00    +0.000 HD
ENDBRANCH   6   9
ENDBRANCH   1   3
BRANCH   1  14
ATOM     14  C   UNL     1      44.520   5.805  10.994  0.00  0.00    +0.000 C 
ATOM     15  C   UNL     1      44.551   7.309  10.803  0.00  0.00    +0.000 C 
ATOM     16  C   UNL     1      43.429   6.704  11.578  0.00  0.00    +0.000 C 
BRANCH  14  20
ATOM     17  C   UNL     1      47.031   3.936  14.036  0.00  0.00    +0.000 A 
ATOM     18  C   UNL     1      47.247   5.267  13.676  0.00  0.00    +0.000 A 
ATOM     19  C   UNL     1      46.471   5.860  12.672  0.00  0.00    +0.000 A 
ATOM     20  C   UNL     1      45.450   5.150  12.017  0.00  0.00    +0.000 A 
ATOM     21  C   UNL     1      45.283   3.797  12.370  0.00  0.00    +0.000 A 
ATOM     22  C   UNL     1      46.058   3.194  13.365  0.00  0.00    +0.000 A 
BRANCH  17  24
ATOM     23  N   UNL     1      48.396   2.848  15.955  0.00  0.00    +0.000 NA
ATOM     24  C   UNL     1      47.782   3.342  15.103  0.00  0.00    +0.000 C 
ENDBRANCH  17  24
ENDBRANCH  14  20
ENDBRANCH   1  14
TORSDOF 5
ENDMDL
MODEL 5
REMARK VINA RESULT:    -5.418      3.208      5.290
REMARK INTER + INTRA:          -7.432
REMARK INTER:                  -7.097
REMARK INTRA:                  -0.336
REMARK UNBOUND:                -0.431
REMARK  Name = 
REMARK  5 active torsions:
REMARK  status: ('A' for Active; 'I' for Inactive)
REMARK    1  A    between atoms: C_2  and  C_3
REMARK    2  A    between atoms: C_6  and  C_7
REMARK    3  A    between atoms: C_7  and  N_8
REMARK    4  A    between atoms: N_8  and  C_9
REMARK    5  A    between atoms: C_12  and  C_13
REMARK                            x       y       z     vdW  Elec       q    Type
REMARK                         _______ _______ _______ _____ _____    ______ ____
ROOT
ATOM      1  N   UNL     1      46.369   7.490  13.264  0.00  0.00    +0.000 N 
ATOM      2  H   UNL     1      45.761   8.291  13.411  0.00  0.00    +0.000 HD
ENDROOT
BRANCH   1   3
ATOM      3  C   UNL     1      45.747   6.376  12.699  0.00  0.00    +0.000 A 
ATOM      4  C   UNL     1      45.140   6.322  11.457  0.00  0.00    +0.000 A 
ATOM      5  N   UNL     1      44.554   5.216  10.932  0.00  0.00    +0.000 NA
ATOM      6  C   UNL     1      44.624   4.099  11.697  0.00  0.00    +0.000 A 
ATOM      7  N   UNL     1      45.224   4.009  12.896  0.00  0.00    +0.000 NA
ATOM      8  C   UNL     1      45.775   5.151  13.352  0.00  0.00    +0.000 A 
BRANCH   6   9
ATOM      9  C   UNL     1      43.947   2.856  11.168  0.00  0.00    +0.000 C 
ATOM     10  N   UNL     1      44.531   2.280  10.061  0.00  0.00    +0.000 N 
ATOM     11  O   UNL     1      42.935   2.362  11.657  0.00  0.00    +0.000 OA
ATOM     12  H   UNL     1      45.359   2.694   9.647  0.00  0.00    +0.000 HD
ATOM     13  H   UNL     1      44.105   1.460   9.657  0.00  0.00    +0.000 HD
ENDBRANCH   6   9
ENDBRANCH   1   3
BRANCH   1  14
ATOM     14  C   UNL     1      47.814   7.707  13.404  0.00  0.00    +0.000 C 
ATOM     15  C   UNL     1      48.795   7.300  12.321  0.00  0.00    +0.000 C 
ATOM     16  C   UNL     1      48.398   8.734  12.433  0.00  0.00    +0.000 C 
BRANCH  14  20
ATOM     17  C   UNL     1      49.024   7.943  17.591  0.00  0.00    +0.000 A 
ATOM     18  C   UNL     1      48.494   9.066  16.955  0.00  0.00    +0.000 A 
ATOM     19  C   UNL     1      48.142   9.008  15.600  0.00  0.00    +0.000 A 
ATOM     20  C   UNL     1      48.290   7.827  14.853  0.00  0.00    +0.000 A 
ATOM     21  C   UNL     1      48.868   6.722  15.508  0.00  0.00    +0.000 A 
ATOM     22  C   UNL     1      49.230   6.774  16.858  0.00  0.00    +0.000 A 
BRANCH  17  24
ATOM     23  N   UNL     1      49.568   7.994  20.127  0.00  0.00    +0.000 NA
ATOM     24  C   UNL     1      49.331   7.979  18.991  0.00  0.00    +0.000 C 
ENDBRANCH  17  24
ENDBRANCH  14  20
ENDBRANCH   1  14
TORSDOF 5
ENDMDL
MODEL 6
REMARK VINA RESULT:    -5.381      3.095      5.365
REMARK INTER + INTRA:          -7.385
REMARK INTER:                  -7.238
REMARK INTRA:                  -0.147
REMARK UNBOUND:                -0.431
REMARK  Name = 
REMARK  5 active torsions:
REMARK  status: ('A' for Active; 'I' for Inactive)
REMARK    1  A    between atoms: C_2  and  C_3
REMARK    2  A    between atoms: C_6  and  C_7
REMARK    3  A    between atoms: C_7  and  N_8
REMARK    4  A    between atoms: N_8  and  C_9
REMARK    5  A    between atoms: C_12  and  C_13
REMARK                            x       y       z     vdW  Elec       q    Type
REMARK                         _______ _______ _______ _____ _____    ______ ____
ROOT
ATOM      1  N   UNL     1      46.842   7.019  13.685  0.00  0.00    +0.000 N 
ATOM      2  H   UNL     1      46.260   7.687  14.184  0.00  0.00    +0.000 HD
ENDROOT
BRANCH   1   3
ATOM      3  C   UNL     1      46.142   6.028  12.997  0.00  0.00    +0.000 A 
ATOM      4  C   UNL     1      45.600   6.141  11.729  0.00  0.00    +0.000 A 
ATOM      5  N   UNL     1      44.935   5.151  11.083  0.00  0.00    +0.000 NA
ATOM      6  C   UNL     1      44.851   3.973  11.750  0.00  0.00    +0.000 A 
ATOM      7  N   UNL     1      45.373   3.721  12.962  0.00  0.00    +0.000 NA
ATOM      8  C   UNL     1      46.011   4.757  13.540  0.00  0.00    +0.000 A 
BRANCH   6   9
ATOM      9  C   UNL     1      44.081   2.856  11.083  0.00  0.00    +0.000 C 
ATOM     10  N   UNL     1      44.674   2.298   9.972  0.00  0.00    +0.000 N 
ATOM     11  O   UNL     1      42.990   2.446  11.469  0.00  0.00    +0.000 OA
ATOM     12  H   UNL     1      45.569   2.645   9.643  0.00  0.00    +0.000 HD
ATOM     13  H   UNL     1      44.190   1.563   9.479  0.00  0.00    +0.000 HD
ENDBRANCH   6   9
ENDBRANCH   1   3
BRANCH   1  14
ATOM     14  C   UNL     1      48.266   7.346  13.539  0.00  0.00    +0.000 C 
ATOM     15  C   UNL     1      48.928   7.459  12.179  0.00  0.00    +0.000 C 
ATOM     16  C   UNL     1      48.543   8.707  12.900  0.00  0.00    +0.000 C 
BRANCH  14  20
ATOM     17  C   UNL     1      50.773   6.268  16.946  0.00  0.00    +0.000 A 
ATOM     18  C   UNL     1      49.430   5.889  16.922  0.00  0.00    +0.000 A 
ATOM     19  C   UNL     1      48.611   6.267  15.850  0.00  0.00    +0.000 A 
ATOM     20  C   UNL     1      49.111   7.013  14.770  0.00  0.00    +0.000 A 
ATOM     21  C   UNL     1      50.458   7.419  14.841  0.00  0.00    +0.000 A 
ATOM     22  C   UNL     1      51.282   7.054  15.911  0.00  0.00    +0.000 A 
BRANCH  17  24
ATOM     23  N   UNL     1      52.320   5.500  18.881  0.00  0.00    +0.000 NA
ATOM     24  C   UNL     1      51.630   5.835  18.010  0.00  0.00    +0.000 C 
ENDBRANCH  17  24
ENDBRANCH  14  20
ENDBRANCH   1  14
TORSDOF 5
ENDMDL
MODEL 7
REMARK VINA RESULT:    -5.341      3.453      5.222
REMARK INTER + INTRA:          -7.334
REMARK INTER:                  -7.066
REMARK INTRA:                  -0.268
REMARK UNBOUND:                -0.431
REMARK  Name = 
REMARK  5 active torsions:
REMARK  status: ('A' for Active; 'I' for Inactive)
REMARK    1  A    between atoms: C_2  and  C_3
REMARK    2  A    between atoms: C_6  and  C_7
REMARK    3  A    between atoms: C_7  and  N_8
REMARK    4  A    between atoms: N_8  and  C_9
REMARK    5  A    between atoms: C_12  and  C_13
REMARK                            x       y       z     vdW  Elec       q    Type
REMARK                         _______ _______ _______ _____ _____    ______ ____
ROOT
ATOM      1  N   UNL     1      47.593   6.535  13.384  0.00  0.00    +0.000 N 
ATOM      2  H   UNL     1      48.068   6.147  14.195  0.00  0.00    +0.000 HD
ENDROOT
BRANCH   1   3
ATOM      3  C   UNL     1      46.698   5.667  12.757  0.00  0.00    +0.000 A 
ATOM      4  C   UNL     1      46.111   5.853  11.518  0.00  0.00    +0.000 A 
ATOM      5  N   UNL     1      45.253   4.981  10.931  0.00  0.00    +0.000 NA
ATOM      6  C   UNL     1      45.011   3.843  11.628  0.00  0.00    +0.000 A 
ATOM      7  N   UNL     1      45.552   3.523  12.816  0.00  0.00    +0.000 NA
ATOM      8  C   UNL     1      46.387   4.443  13.336  0.00  0.00    +0.000 A 
BRANCH   6   9
ATOM      9  C   UNL     1      44.027   2.864  11.030  0.00  0.00    +0.000 C 
ATOM     10  N   UNL     1      44.469   2.169   9.925  0.00  0.00    +0.000 N 
ATOM     11  O   UNL     1      42.895   2.673  11.463  0.00  0.00    +0.000 OA
ATOM     12  H   UNL     1      45.400   2.335   9.556  0.00  0.00    +0.000 HD
ATOM     13  H   UNL     1      43.842   1.518   9.476  0.00  0.00    +0.000 HD
ENDBRANCH   6   9
ENDBRANCH   1   3
BRANCH   1  14
ATOM     14  C   UNL     1      47.705   7.982  13.166  0.00  0.00    +0.000 C 
ATOM     15  C   UNL     1      46.511   8.909  13.300  0.00  0.00    +0.000 C 
ATOM     16  C   UNL     1      47.494   8.831  14.420  0.00  0.00    +0.000 C 
BRANCH  14  20
ATOM     17  C   UNL     1      51.193   9.129  10.806  0.00  0.00    +0.000 A 
ATOM     18  C   UNL     1      50.230  10.085  11.137  0.00  0.00    +0.000 A 
ATOM     19  C   UNL     1      49.089   9.714  11.859  0.00  0.00    +0.000 A 
ATOM     20  C   UNL     1      48.887   8.391  12.286  0.00  0.00    +0.000 A 
ATOM     21  C   UNL     1      49.852   7.439  11.901  0.00  0.00    +0.000 A 
ATOM     22  C   UNL     1      50.990   7.798  11.172  0.00  0.00    +0.000 A 
BRANCH  17  24
ATOM     23  N   UNL     1      53.350   9.826   9.546  0.00  0.00    +0.000 NA
ATOM     24  C   UNL     1      52.390   9.513  10.118  0.00  0.00    +0.000 C 
ENDBRANCH  17  24
ENDBRANCH  14  20
ENDBRANCH   1  14
TORSDOF 5
ENDMDL
MODEL 8
REMARK VINA RESULT:    -5.173      4.255      8.031
REMARK INTER + INTRA:          -7.116
REMARK INTER:                  -7.322
REMARK INTRA:                   0.206
REMARK UNBOUND:                -0.431
REMARK  Name = 
REMARK  5 active torsions:
REMARK  status: ('A' for Active; 'I' for Inactive)
REMARK    1  A    between atoms: C_2  and  C_3
REMARK    2  A    between atoms: C_6  and  C_7
REMARK    3  A    between atoms: C_7  and  N_8
REMARK    4  A    between atoms: N_8  and  C_9
REMARK    5  A    between atoms: C_12  and  C_13
REMARK                            x       y       z     vdW  Elec       q    Type
REMARK                         _______ _______ _______ _____ _____    ______ ____
ROOT
ATOM      1  N   UNL     1      47.915   7.195  15.005  0.00  0.00    +0.000 N 
ATOM      2  H   UNL     1      47.357   7.862  15.532  0.00  0.00    +0.000 HD
ENDROOT
BRANCH   1   3
ATOM      3  C   UNL     1      48.679   6.324  15.784  0.00  0.00    +0.000 A 
ATOM      4  C   UNL     1      48.252   5.124  16.322  0.00  0.00    +0.000 A 
ATOM      5  N   UNL     1      49.026   4.293  17.066  0.00  0.00    +0.000 NA
ATOM      6  C   UNL     1      50.311   4.690  17.236  0.00  0.00    +0.000 A 
ATOM      7  N   UNL     1      50.859   5.807  16.728  0.00  0.00    +0.000 NA
ATOM      8  C   UNL     1      50.024   6.582  16.009  0.00  0.00    +0.000 A 
BRANCH   6   9
ATOM      9  C   UNL     1      51.196   3.815  18.094  0.00  0.00    +0.000 C 
ATOM     10  N   UNL     1      51.361   4.224  19.400  0.00  0.00    +0.000 N 
ATOM     11  O   UNL     1      51.757   2.800  17.692  0.00  0.00    +0.000 OA
ATOM     12  H   UNL     1      50.910   5.070  19.730  0.00  0.00    +0.000 HD
ATOM     13  H   UNL     1      51.959   3.685  20.007  0.00  0.00    +0.000 HD
ENDBRANCH   6   9
ENDBRANCH   1   3
BRANCH   1  14
ATOM     14  C   UNL     1      47.635   7.068  13.570  0.00  0.00    +0.000 C 
ATOM     15  C   UNL     1      47.933   8.187  12.591  0.00  0.00    +0.000 C 
ATOM     16  C   UNL     1      48.879   7.037  12.681  0.00  0.00    +0.000 C 
BRANCH  14  20
ATOM     17  C   UNL     1      44.655   4.082  12.447  0.00  0.00    +0.000 A 
ATOM     18  C   UNL     1      44.311   5.435  12.470  0.00  0.00    +0.000 A 
ATOM     19  C   UNL     1      45.252   6.393  12.869  0.00  0.00    +0.000 A 
ATOM     20  C   UNL     1      46.560   6.033  13.234  0.00  0.00    +0.000 A 
ATOM     21  C   UNL     1      46.866   4.657  13.243  0.00  0.00    +0.000 A 
ATOM     22  C   UNL     1      45.931   3.693  12.855  0.00  0.00    +0.000 A 
BRANCH  17  24
ATOM     23  N   UNL     1      42.970   2.298  11.606  0.00  0.00    +0.000 NA
ATOM     24  C   UNL     1      43.716   3.103  11.984  0.00  0.00    +0.000 C 
ENDBRANCH  17  24
ENDBRANCH  14  20
ENDBRANCH   1  14
TORSDOF 5
ENDMDL
MODEL 9
REMARK VINA RESULT:    -5.079      4.722      8.587
REMARK INTER + INTRA:          -6.994
REMARK INTER:                  -6.584
REMARK INTRA:                  -0.410
REMARK UNBOUND:                -0.431
REMARK  Name = 
REMARK  5 active torsions:
REMARK  status: ('A' for Active; 'I' for Inactive)
REMARK    1  A    between atoms: C_2  and  C_3
REMARK    2  A    between atoms: C_6  and  C_7
REMARK    3  A    between atoms: C_7  and  N_8
REMARK    4  A    between atoms: N_8  and  C_9
REMARK    5  A    between atoms: C_12  and  C_13
REMARK                            x       y       z     vdW  Elec       q    Type
REMARK                         _______ _______ _______ _____ _____    ______ ____
ROOT
ATOM      1  N   UNL     1      48.643   6.646  14.374  0.00  0.00    +0.000 N 
ATOM      2  H   UNL     1      49.544   6.557  13.913  0.00  0.00    +0.000 HD
ENDROOT
BRANCH   1   3
ATOM      3  C   UNL     1      48.682   6.535  15.765  0.00  0.00    +0.000 A 
ATOM      4  C   UNL     1      49.017   7.540  16.655  0.00  0.00    +0.000 A 
ATOM      5  N   UNL     1      49.033   7.402  18.005  0.00  0.00    +0.000 NA
ATOM      6  C   UNL     1      48.650   6.187  18.471  0.00  0.00    +0.000 A 
ATOM      7  N   UNL     1      48.258   5.147  17.716  0.00  0.00    +0.000 NA
ATOM      8  C   UNL     1      48.277   5.361  16.386  0.00  0.00    +0.000 A 
BRANCH   6   9
ATOM      9  C   UNL     1      48.694   5.977  19.967  0.00  0.00    +0.000 C 
ATOM     10  N   UNL     1      47.771   5.090  20.476  0.00  0.00    +0.000 N 
ATOM     11  O   UNL     1      49.480   6.546  20.719  0.00  0.00    +0.000 OA
ATOM     12  H   UNL     1      47.111   4.629  19.858  0.00  0.00    +0.000 HD
ATOM     13  H   UNL     1      47.746   4.931  21.472  0.00  0.00    +0.000 HD
ENDBRANCH   6   9
ENDBRANCH   1   3
BRANCH   1  14
ATOM     14  C   UNL     1      47.518   7.135  13.567  0.00  0.00    +0.000 C 
ATOM     15  C   UNL     1      47.124   8.600  13.545  0.00  0.00    +0.000 C 
ATOM     16  C   UNL     1      47.919   8.050  12.409  0.00  0.00    +0.000 C 
BRANCH  14  20
ATOM     17  C   UNL     1      44.640   4.054  12.439  0.00  0.00    +0.000 A 
ATOM     18  C   UNL     1      44.243   5.391  12.496  0.00  0.00    +0.000 A 
ATOM     19  C   UNL     1      45.151   6.379  12.897  0.00  0.00    +0.000 A 
ATOM     20  C   UNL     1      46.480   6.064  13.230  0.00  0.00    +0.000 A 
ATOM     21  C   UNL     1      46.841   4.703  13.207  0.00  0.00    +0.000 A 
ATOM     22  C   UNL     1      45.938   3.708  12.817  0.00  0.00    +0.000 A 
BRANCH  17  24
ATOM     23  N   UNL     1      42.985   2.237  11.610  0.00  0.00    +0.000 NA
ATOM     24  C   UNL     1      43.732   3.046  11.974  0.00  0.00    +0.000 C 
ENDBRANCH  17  24
ENDBRANCH  14  20
ENDBRANCH   1  14
TORSDOF 5
ENDMDL
