MODEL 1
REMARK VINA RESULT:    -7.862      0.000      0.000
REMARK INTER + INTRA:         -11.116
REMARK INTER:                 -10.159
REMARK INTRA:                  -0.956
REMARK UNBOUND:                -0.956
REMARK  Name = 
REMARK  6 active torsions:
REMARK  status: ('A' for Active; 'I' for Inactive)
REMARK    1  A    between atoms: C_1  and  C_2
REMARK    2  A    between atoms: C_2  and  N_3
REMARK    3  A    between atoms: C_2  and  C_17
REMARK    4  A    between atoms: N_3  and  C_4
REMARK    5  A    between atoms: C_7  and  C_8
REMARK    6  A    between atoms: C_8  and  N_9
REMARK                            x       y       z     vdW  Elec       q    Type
REMARK                         _______ _______ _______ _____ _____    ______ ____
ROOT
ATOM      1  N   UNL     1      46.742   6.233  13.977  0.00  0.00    +0.000 N 
ATOM      2  H   UNL     1      46.386   7.176  14.100  0.00  0.00    +0.000 HD
ENDROOT
BRANCH   1   3
ATOM      3  C   UNL     1      46.065   5.554  12.970  0.00  0.00    +0.000 A 
ATOM      4  C   UNL     1      45.873   4.174  13.134  0.00  0.00    +0.000 A 
ATOM      5  C   UNL     1      45.247   3.394  12.152  0.00  0.00    +0.000 A 
ATOM      6  C   UNL     1      44.770   3.979  10.976  0.00  0.00    +0.000 A 
ATOM      7  C   UNL     1      44.881   5.370  10.842  0.00  0.00    +0.000 A 
ATOM      8  C   UNL     1      45.528   6.142  11.823  0.00  0.00    +0.000 A 
BRANCH   6   9
ATOM      9  C   UNL     1      44.160   3.132   9.881  0.00  0.00    +0.000 C 
BRANCH   9  10
ATOM     10  N   UNL     1      44.611   3.573   8.581  0.00  0.00    +0.000 N 
ATOM     11  C   UNL     1      45.714   3.102   7.963  0.00  0.00    +0.000 C 
ATOM     12  N   UNL     1      46.445   3.819   7.161  0.00  0.00    +0.000 NA
ATOM     13  C   UNL     1      47.478   2.874   6.657  0.00  0.00    +0.000 C 
ATOM     14  C   UNL     1      47.215   1.523   7.328  0.00  0.00    +0.000 C 
ATOM     15  N   UNL     1      46.072   1.810   8.175  0.00  0.00    +0.000 N 
ATOM     16  H   UNL     1      44.531   4.577   8.450  0.00  0.00    +0.000 HD
ATOM     17  H   UNL     1      45.299   1.164   8.074  0.00  0.00    +0.000 HD
ENDBRANCH   9  10
ENDBRANCH   6   9
ENDBRANCH   1   3
BRANCH   1  19
ATOM     18  C   UNL     1      48.976   6.929  13.211  0.00  0.00    +0.000 C 
ATOM     19  C   UNL     1      48.189   6.132  14.266  0.00  0.00    +0.000 C 
BRANCH  19  20
ATOM     20  C   UNL     1      48.634   6.398  15.701  0.00  0.00    +0.000 A 
ATOM     21  C   UNL     1      49.326   7.530  16.107  0.00  0.00    +0.000 A 
ATOM     22  S   UNL     1      49.808   7.489  17.744  0.00  0.00    +0.000 S 
ATOM     23  C   UNL     1      49.073   5.977  17.981  0.00  0.00    +0.000 A 
ATOM     24  N   UNL     1      49.170   5.318  19.169  0.00  0.00    +0.000 NA
ATOM     25  C   UNL     1      48.573   4.173  19.193  0.00  0.00    +0.000 A 
ATOM     26  N   UNL     1      47.851   3.644  18.158  0.00  0.00    +0.000 N 
ATOM     27  C   UNL     1      47.603   4.339  16.995  0.00  0.00    +0.000 A 
ATOM     28  O   UNL     1      46.743   3.976  16.202  0.00  0.00    +0.000 OA
ATOM     29  C   UNL     1      48.398   5.553  16.852  0.00  0.00    +0.000 A 
ATOM     30  H   UNL     1      47.333   2.787  18.275  0.00  0.00    +0.000 HD
ENDBRANCH  19  20
ENDBRANCH   1  19
TORSDOF 5
ENDMDL
MODEL 2
REMARK VINA RESULT:    -7.074      3.118      4.887
REMARK INTER + INTRA:         -10.098
REMARK INTER:                  -9.056
REMARK INTRA:                  -1.042
REMARK UNBOUND:                -0.956
REMARK  Name = 
REMARK  6 active torsions:
REMARK  status: ('A' for Active; 'I' for Inactive)
REMARK    1  A    between atoms: C_1  and  C_2
REMARK    2  A    between atoms: C_2  and  N_3
REMARK    3  A    between atoms: C_2  and  C_17
REMARK    4  A    between atoms: N_3  and  C_4
REMARK    5  A    between atoms: C_7  and  C_8
REMARK    6  A    between atoms: C_8  and  N_9
REMARK                            x       y       z     vdW  Elec       q    Type
REMARK                         _______ _______ _______ _____ _____    ______ ____
ROOT
ATOM      1  N   UNL     1      46.111   7.321  13.352  0.00  0.00    +0.000 N 
ATOM      2  H   UNL     1      45.644   8.212  13.214  0.00  0.00    +0.000 HD
ENDROOT
BRANCH   1   3
ATOM      3  C   UNL     1      45.660   6.358  12.456  0.00  0.00    +0.000 A 
ATOM      4  C   UNL     1      44.842   5.336  12.959  0.00  0.00    +0.000 A 
ATOM      5  C   UNL     1      44.378   4.293  12.146  0.00  0.00    +0.000 A 
ATOM      6  C   UNL     1      44.703   4.253  10.786  0.00  0.00    +0.000 A 
ATOM      7  C   UNL     1      45.449   5.315  10.257  0.00  0.00    +0.000 A 
ATOM      8  C   UNL     1      45.926   6.347  11.085  0.00  0.00    +0.000 A 
BRANCH   6   9
ATOM      9  C   UNL     1      44.267   3.092   9.920  0.00  0.00    +0.000 C 
BRANCH   9  10
ATOM     10  N   UNL     1      44.520   3.372   8.525  0.00  0.00    +0.000 N 
ATOM     11  C   UNL     1      45.603   2.933   7.849  0.00  0.00    +0.000 C 
ATOM     12  N   UNL     1      46.150   3.590   6.869  0.00  0.00    +0.000 NA
ATOM     13  C   UNL     1      47.235   2.696   6.383  0.00  0.00    +0.000 C 
ATOM     14  C   UNL     1      47.215   1.446   7.267  0.00  0.00    +0.000 C 
ATOM     15  N   UNL     1      46.141   1.735   8.198  0.00  0.00    +0.000 N 
ATOM     16  H   UNL     1      44.301   4.328   8.263  0.00  0.00    +0.000 HD
ATOM     17  H   UNL     1      45.448   1.002   8.286  0.00  0.00    +0.000 HD
ENDBRANCH   9  10
ENDBRANCH   6   9
ENDBRANCH   1   3
BRANCH   1  19
ATOM     18  C   UNL     1      47.946   6.196  14.548  0.00  0.00    +0.000 C 
ATOM     19  C   UNL     1      47.506   7.478  13.821  0.00  0.00    +0.000 C 
BRANCH  19  20
ATOM     20  C   UNL     1      48.526   7.998  12.813  0.00  0.00    +0.000 A 
ATOM     21  C   UNL     1      49.708   7.347  12.491  0.00  0.00    +0.000 A 
ATOM     22  S   UNL     1      50.713   8.234  11.434  0.00  0.00    +0.000 S 
ATOM     23  C   UNL     1      49.587   9.501  11.334  0.00  0.00    +0.000 A 
ATOM     24  N   UNL     1      49.855  10.636  10.632  0.00  0.00    +0.000 NA
ATOM     25  C   UNL     1      48.910  11.515  10.660  0.00  0.00    +0.000 A 
ATOM     26  N   UNL     1      47.705  11.350  11.287  0.00  0.00    +0.000 N 
ATOM     27  C   UNL     1      47.334  10.164  11.881  0.00  0.00    +0.000 A 
ATOM     28  O   UNL     1      46.171   9.938  12.192  0.00  0.00    +0.000 OA
ATOM     29  C   UNL     1      48.427   9.210  12.028  0.00  0.00    +0.000 A 
ATOM     30  H   UNL     1      46.975  12.039  11.192  0.00  0.00    +0.000 HD
ENDBRANCH  19  20
ENDBRANCH   1  19
TORSDOF 5
ENDMDL
MODEL 3
REMARK VINA RESULT:    -7.036      1.294      1.814
REMARK INTER + INTRA:         -10.049
REMARK INTER:                  -9.181
REMARK INTRA:                  -0.868
REMARK UNBOUND:                -0.956
REMARK  Name = 
REMARK  6 active torsions:
REMARK  status: ('A' for Active; 'I' for Inactive)
REMARK    1  A    between atoms: C_1  and  C_2
REMARK    2  A    between atoms: C_2  and  N_3
REMARK    3  A    between atoms: C_2  and  C_17
REMARK    4  A    between atoms: N_3  and  C_4
REMARK    5  A    between atoms: C_7  and  C_8
REMARK    6  A    between atoms: C_8  and  N_9
REMARK                            x       y       z     vdW  Elec       q    Type
REMARK                         _______ _______ _______ _____ _____    ______ ____
ROOT
ATOM      1  N   UNL     1      47.754   7.522  14.148  0.00  0.00    +0.000 N 
ATOM      2  H   UNL     1      48.067   8.350  13.650  0.00  0.00    +0.000 HD
ENDROOT
BRANCH   1   3
ATOM      3  C   UNL     1      46.817   6.803  13.415  0.00  0.00    +0.000 A 
ATOM      4  C   UNL     1      45.937   7.528  12.598  0.00  0.00    +0.000 A 
ATOM      5  C   UNL     1      44.925   6.899  11.861  0.00  0.00    +0.000 A 
ATOM      6  C   UNL     1      44.776   5.510  11.900  0.00  0.00    +0.000 A 
ATOM      7  C   UNL     1      45.703   4.770  12.646  0.00  0.00    +0.000 A 
ATOM      8  C   UNL     1      46.703   5.411  13.399  0.00  0.00    +0.000 A 
BRANCH   6   9
ATOM      9  C   UNL     1      43.640   4.831  11.165  0.00  0.00    +0.000 C 
BRANCH   9  10
ATOM     10  N   UNL     1      43.872   4.848   9.738  0.00  0.00    +0.000 N 
ATOM     11  C   UNL     1      44.674   3.976   9.092  0.00  0.00    +0.000 C 
ATOM     12  N   UNL     1      45.344   4.281   8.020  0.00  0.00    +0.000 NA
ATOM     13  C   UNL     1      46.000   3.008   7.618  0.00  0.00    +0.000 C 
ATOM     14  C   UNL     1      45.601   1.953   8.653  0.00  0.00    +0.000 C 
ATOM     15  N   UNL     1      44.774   2.710   9.573  0.00  0.00    +0.000 N 
ATOM     16  H   UNL     1      43.989   5.784   9.364  0.00  0.00    +0.000 HD
ATOM     17  H   UNL     1      43.874   2.292   9.775  0.00  0.00    +0.000 HD
ENDBRANCH   9  10
ENDBRANCH   6   9
ENDBRANCH   1   3
BRANCH   1  19
ATOM     18  C   UNL     1      50.187   7.433  14.516  0.00  0.00    +0.000 C 
ATOM     19  C   UNL     1      48.813   6.941  15.003  0.00  0.00    +0.000 C 
BRANCH  19  20
ATOM     20  C   UNL     1      48.621   7.038  16.513  0.00  0.00    +0.000 A 
ATOM     21  C   UNL     1      48.455   8.230  17.204  0.00  0.00    +0.000 A 
ATOM     22  S   UNL     1      48.400   8.037  18.900  0.00  0.00    +0.000 S 
ATOM     23  C   UNL     1      48.554   6.351  18.770  0.00  0.00    +0.000 A 
ATOM     24  N   UNL     1      48.649   5.559  19.873  0.00  0.00    +0.000 NA
ATOM     25  C   UNL     1      48.777   4.300  19.616  0.00  0.00    +0.000 A 
ATOM     26  N   UNL     1      48.776   3.753  18.362  0.00  0.00    +0.000 N 
ATOM     27  C   UNL     1      48.534   4.497  17.228  0.00  0.00    +0.000 A 
ATOM     28  O   UNL     1      48.266   3.965  16.158  0.00  0.00    +0.000 OA
ATOM     29  C   UNL     1      48.560   5.937  17.451  0.00  0.00    +0.000 A 
ATOM     30  H   UNL     1      48.787   2.753  18.236  0.00  0.00    +0.000 HD
ENDBRANCH  19  20
ENDBRANCH   1  19
TORSDOF 5
ENDMDL
MODEL 4
REMARK VINA RESULT:    -6.970      2.566      3.598
REMARK INTER + INTRA:          -9.963
REMARK INTER:                  -9.241
REMARK INTRA:                  -0.722
REMARK UNBOUND:                -0.956
REMARK  Name = 
REMARK  6 active torsions:
REMARK  status: ('A' for Active; 'I' for Inactive)
REMARK    1  A    between atoms: C_1  and  C_2
REMARK    2  A    between atoms: C_2  and  N_3
REMARK    3  A    between atoms: C_2  and  C_17
REMARK    4  A    between atoms: N_3  and  C_4
REMARK    5  A    between atoms: C_7  and  C_8
REMARK    6  A    between atoms: C_8  and  N_9
REMARK                            x       y       z     vdW  Elec       q    Type
REMARK                         _______ _______ _______ _____ _____    ______ ____
ROOT
ATOM      1  N   UNL     1      46.548   6.421  13.655  0.00  0.00    +0.000 N 
ATOM      2  H   UNL     1      45.889   6.680  14.383  0.00  0.00    +0.000 HD
ENDROOT
BRANCH   1   3
ATOM      3  C   UNL     1      45.955   5.617  12.688  0.00  0.00    +0.000 A 
ATOM      4  C   UNL     1      45.607   4.309  13.054  0.00  0.00    +0.000 A 
ATOM      5  C   UNL     1      45.052   3.407  12.136  0.00  0.00    +0.000 A 
ATOM      6  C   UNL     1      44.805   3.798  10.817  0.00  0.00    +0.000 A 
ATOM      7  C   UNL     1      45.071   5.127  10.464  0.00  0.00    +0.000 A 
ATOM      8  C   UNL     1      45.646   6.020  11.386  0.00  0.00    +0.000 A 
BRANCH   6   9
ATOM      9  C   UNL     1      44.275   2.808   9.803  0.00  0.00    +0.000 C 
BRANCH   9  10
ATOM     10  N   UNL     1      44.587   3.236   8.458  0.00  0.00    +0.000 N 
ATOM     11  C   UNL     1      45.715   2.897   7.799  0.00  0.00    +0.000 C 
ATOM     12  N   UNL     1      46.288   3.665   6.921  0.00  0.00    +0.000 NA
ATOM     13  C   UNL     1      47.423   2.855   6.403  0.00  0.00    +0.000 C 
ATOM     14  C   UNL     1      47.399   1.520   7.153  0.00  0.00    +0.000 C 
ATOM     15  N   UNL     1      46.272   1.684   8.052  0.00  0.00    +0.000 N 
ATOM     16  H   UNL     1      44.352   4.208   8.283  0.00  0.00    +0.000 HD
ATOM     17  H   UNL     1      45.599   0.928   8.029  0.00  0.00    +0.000 HD
ENDBRANCH   9  10
ENDBRANCH   6   9
ENDBRANCH   1   3
BRANCH   1  19
ATOM     18  C   UNL     1      46.883   8.851  13.457  0.00  0.00    +0.000 C 
ATOM     19  C   UNL     1      47.560   7.471  13.406  0.00  0.00    +0.000 C 
BRANCH  19  20
ATOM     20  C   UNL     1      48.860   7.389  14.201  0.00  0.00    +0.000 A 
ATOM     21  C   UNL     1      48.961   6.863  15.480  0.00  0.00    +0.000 A 
ATOM     22  S   UNL     1      50.514   7.029  16.169  0.00  0.00    +0.000 S 
ATOM     23  C   UNL     1      51.118   7.773  14.768  0.00  0.00    +0.000 A 
ATOM     24  N   UNL     1      52.394   8.244  14.707  0.00  0.00    +0.000 NA
ATOM     25  C   UNL     1      52.704   8.799  13.583  0.00  0.00    +0.000 A 
ATOM     26  N   UNL     1      51.875   8.886  12.498  0.00  0.00    +0.000 N 
ATOM     27  C   UNL     1      50.632   8.294  12.464  0.00  0.00    +0.000 A 
ATOM     28  O   UNL     1      50.022   8.144  11.412  0.00  0.00    +0.000 OA
ATOM     29  C   UNL     1      50.171   7.814  13.761  0.00  0.00    +0.000 A 
ATOM     30  H   UNL     1      52.212   9.249  11.619  0.00  0.00    +0.000 HD
ENDBRANCH  19  20
ENDBRANCH   1  19
TORSDOF 5
ENDMDL
MODEL 5
REMARK VINA RESULT:    -6.952      2.023      2.435
REMARK INTER + INTRA:          -9.941
REMARK INTER:                  -9.107
REMARK INTRA:                  -0.833
REMARK UNBOUND:                -0.956
REMARK  Name = 
REMARK  6 active torsions:
REMARK  status: ('A' for Active; 'I' for Inactive)
REMARK    1  A    between atoms: C_1  and  C_2
REMARK    2  A    between atoms: C_2  and  N_3
REMARK    3  A    between atoms: C_2  and  C_17
REMARK    4  A    between atoms: N_3  and  C_4
REMARK    5  A    between atoms: C_7  and  C_8
REMARK    6  A    between atoms: C_8  and  N_9
REMARK                            x       y       z     vdW  Elec       q    Type
REMARK                         _______ _______ _______ _____ _____    ______ ____
ROOT
ATOM      1  N   UNL     1      47.867   6.433  13.731  0.00  0.00    +0.000 N 
ATOM      2  H   UNL     1      47.710   6.101  14.678  0.00  0.00    +0.000 HD
ENDROOT
BRANCH   1   3
ATOM      3  C   UNL     1      46.866   6.009  12.864  0.00  0.00    +0.000 A 
ATOM      4  C   UNL     1      46.151   4.854  13.213  0.00  0.00    +0.000 A 
ATOM      5  C   UNL     1      45.159   4.319  12.379  0.00  0.00    +0.000 A 
ATOM      6  C   UNL     1      44.834   4.942  11.171  0.00  0.00    +0.000 A 
ATOM      7  C   UNL     1      45.484   6.143  10.854  0.00  0.00    +0.000 A 
ATOM      8  C   UNL     1      46.492   6.661  11.687  0.00  0.00    +0.000 A 
BRANCH   6   9
ATOM      9  C   UNL     1      43.816   4.330  10.233  0.00  0.00    +0.000 C 
BRANCH   9  10
ATOM     10  N   UNL     1      44.268   4.415   8.863  0.00  0.00    +0.000 N 
ATOM     11  C   UNL     1      45.220   3.621   8.330  0.00  0.00    +0.000 C 
ATOM     12  N   UNL     1      46.028   4.007   7.387  0.00  0.00    +0.000 NA
ATOM     13  C   UNL     1      46.825   2.795   7.061  0.00  0.00    +0.000 C 
ATOM     14  C   UNL     1      46.343   1.679   7.992  0.00  0.00    +0.000 C 
ATOM     15  N   UNL     1      45.331   2.347   8.787  0.00  0.00    +0.000 N 
ATOM     16  H   UNL     1      44.377   5.370   8.536  0.00  0.00    +0.000 HD
ATOM     17  H   UNL     1      44.441   1.865   8.832  0.00  0.00    +0.000 HD
ENDBRANCH   9  10
ENDBRANCH   6   9
ENDBRANCH   1   3
BRANCH   1  19
ATOM     18  C   UNL     1      47.603   8.815  14.294  0.00  0.00    +0.000 C 
ATOM     19  C   UNL     1      48.539   7.750  13.697  0.00  0.00    +0.000 C 
BRANCH  19  20
ATOM     20  C   UNL     1      49.969   7.817  14.226  0.00  0.00    +0.000 A 
ATOM     21  C   UNL     1      50.979   8.575  13.653  0.00  0.00    +0.000 A 
ATOM     22  S   UNL     1      52.506   8.345  14.382  0.00  0.00    +0.000 S 
ATOM     23  C   UNL     1      51.864   7.256  15.516  0.00  0.00    +0.000 A 
ATOM     24  N   UNL     1      52.661   6.616  16.415  0.00  0.00    +0.000 NA
ATOM     25  C   UNL     1      52.032   5.807  17.202  0.00  0.00    +0.000 A 
ATOM     26  N   UNL     1      50.678   5.612  17.205  0.00  0.00    +0.000 N 
ATOM     27  C   UNL     1      49.821   6.347  16.416  0.00  0.00    +0.000 A 
ATOM     28  O   UNL     1      48.613   6.360  16.621  0.00  0.00    +0.000 OA
ATOM     29  C   UNL     1      50.492   7.139  15.393  0.00  0.00    +0.000 A 
ATOM     30  H   UNL     1      50.241   5.036  17.908  0.00  0.00    +0.000 HD
ENDBRANCH  19  20
ENDBRANCH   1  19
TORSDOF 5
ENDMDL
MODEL 6
REMARK VINA RESULT:    -6.748      3.218      8.400
REMARK INTER + INTRA:          -9.677
REMARK INTER:                  -9.339
REMARK INTRA:                  -0.338
REMARK UNBOUND:                -0.956
REMARK  Name = 
REMARK  6 active torsions:
REMARK  status: ('A' for Active; 'I' for Inactive)
REMARK    1  A    between atoms: C_1  and  C_2
REMARK    2  A    between atoms: C_2  and  N_3
REMARK    3  A    between atoms: C_2  and  C_17
REMARK    4  A    between atoms: N_3  and  C_4
REMARK    5  A    between atoms: C_7  and  C_8
REMARK    6  A    between atoms: C_8  and  N_9
REMARK                            x       y       z     vdW  Elec       q    Type
REMARK                         _______ _______ _______ _____ _____    ______ ____
ROOT
ATOM      1  N   UNL     1      46.647   6.161  12.608  0.00  0.00    +0.000 N 
ATOM      2  H   UNL     1      47.149   6.955  12.223  0.00  0.00    +0.000 HD
ENDROOT
BRANCH   1   3
ATOM      3  C   UNL     1      47.181   5.754  13.825  0.00  0.00    +0.000 A 
ATOM      4  C   UNL     1      48.134   6.588  14.427  0.00  0.00    +0.000 A 
ATOM      5  C   UNL     1      48.767   6.241  15.628  0.00  0.00    +0.000 A 
ATOM      6  C   UNL     1      48.446   5.048  16.282  0.00  0.00    +0.000 A 
ATOM      7  C   UNL     1      47.434   4.249  15.732  0.00  0.00    +0.000 A 
ATOM      8  C   UNL     1      46.819   4.596  14.516  0.00  0.00    +0.000 A 
BRANCH   6   9
ATOM      9  C   UNL     1      49.177   4.632  17.539  0.00  0.00    +0.000 C 
BRANCH   9  10
ATOM     10  N   UNL     1      49.354   3.198  17.577  0.00  0.00    +0.000 N 
ATOM     11  C   UNL     1      50.556   2.584  17.593  0.00  0.00    +0.000 C 
ATOM     12  N   UNL     1      50.770   1.418  17.058  0.00  0.00    +0.000 NA
ATOM     13  C   UNL     1      52.186   1.111  17.393  0.00  0.00    +0.000 C 
ATOM     14  C   UNL     1      52.730   2.306  18.181  0.00  0.00    +0.000 C 
ATOM     15  N   UNL     1      51.592   3.206  18.212  0.00  0.00    +0.000 N 
ATOM     16  H   UNL     1      48.708   2.699  16.974  0.00  0.00    +0.000 HD
ATOM     17  H   UNL     1      51.352   3.552  19.133  0.00  0.00    +0.000 HD
ENDBRANCH   9  10
ENDBRANCH   6   9
ENDBRANCH   1   3
BRANCH   1  19
ATOM     18  C   UNL     1      44.912   7.407  11.383  0.00  0.00    +0.000 C 
ATOM     19  C   UNL     1      45.210   6.175  12.255  0.00  0.00    +0.000 C 
BRANCH  19  20
ATOM     20  C   UNL     1      44.611   4.878  11.719  0.00  0.00    +0.000 A 
ATOM     21  C   UNL     1      43.678   4.109  12.399  0.00  0.00    +0.000 A 
ATOM     22  S   UNL     1      43.292   2.644  11.612  0.00  0.00    +0.000 S 
ATOM     23  C   UNL     1      44.327   3.003  10.314  0.00  0.00    +0.000 A 
ATOM     24  N   UNL     1      44.528   2.117   9.300  0.00  0.00    +0.000 NA
ATOM     25  C   UNL     1      45.353   2.524   8.394  0.00  0.00    +0.000 A 
ATOM     26  N   UNL     1      45.962   3.750   8.382  0.00  0.00    +0.000 N 
ATOM     27  C   UNL     1      45.674   4.730   9.305  0.00  0.00    +0.000 A 
ATOM     28  O   UNL     1      46.009   5.895   9.129  0.00  0.00    +0.000 OA
ATOM     29  C   UNL     1      44.889   4.260  10.440  0.00  0.00    +0.000 A 
ATOM     30  H   UNL     1      46.523   4.040   7.596  0.00  0.00    +0.000 HD
ENDBRANCH  19  20
ENDBRANCH   1  19
TORSDOF 5
ENDMDL
MODEL 7
REMARK VINA RESULT:    -6.696      2.381      3.129
REMARK INTER + INTRA:          -9.610
REMARK INTER:                  -8.723
REMARK INTRA:                  -0.887
REMARK UNBOUND:                -0.956
REMARK  Name = 
REMARK  6 active torsions:
REMARK  status: ('A' for Active; 'I' for Inactive)
REMARK    1  A    between atoms: C_1  and  C_2
REMARK    2  A    between atoms: C_2  and  N_3
REMARK    3  A    between atoms: C_2  and  C_17
REMARK    4  A    between atoms: N_3  and  C_4
REMARK    5  A    between atoms: C_7  and  C_8
REMARK    6  A    between atoms: C_8  and  N_9
REMARK                            x       y       z     vdW  Elec       q    Type
REMARK                         _______ _______ _______ _____ _____    ______ ____
ROOT
ATOM      1  N   UNL     1      48.082   3.965  15.375  0.00  0.00    +0.000 N 
ATOM      2  H   UNL     1      48.161   2.960  15.505  0.00  0.00    +0.000 HD
ENDROOT
BRANCH   1   3
ATOM      3  C   UNL     1      47.224   4.282  14.327  0.00  0.00    +0.000 A 
ATOM      4  C   UNL     1      47.108   5.634  13.971  0.00  0.00    +0.000 A 
ATOM      5  C   UNL     1      46.232   6.059  12.963  0.00  0.00    +0.000 A 
ATOM      6  C   UNL     1      45.456   5.134  12.258  0.00  0.00    +0.000 A 
ATOM      7  C   UNL     1      45.629   3.775  12.549  0.00  0.00    +0.000 A 
ATOM      8  C   UNL     1      46.495   3.358  13.576  0.00  0.00    +0.000 A 
BRANCH   6   9
ATOM      9  C   UNL     1      44.456   5.594  11.220  0.00  0.00    +0.000 C 
BRANCH   9  10
ATOM     10  N   UNL     1      45.101   5.801   9.944  0.00  0.00    +0.000 N 
ATOM     11  C   UNL     1      45.306   4.826   9.033  0.00  0.00    +0.000 C 
ATOM     12  N   UNL     1      46.320   4.809   8.220  0.00  0.00    +0.000 NA
ATOM     13  C   UNL     1      46.084   3.621   7.356  0.00  0.00    +0.000 C 
ATOM     14  C   UNL     1      44.785   2.970   7.837  0.00  0.00    +0.000 C 
ATOM     15  N   UNL     1      44.398   3.820   8.947  0.00  0.00    +0.000 N 
ATOM     16  H   UNL     1      45.910   6.411   9.999  0.00  0.00    +0.000 HD
ATOM     17  H   UNL     1      43.442   4.153   8.912  0.00  0.00    +0.000 HD
ENDBRANCH   9  10
ENDBRANCH   6   9
ENDBRANCH   1   3
BRANCH   1  19
ATOM     18  C   UNL     1      46.973   4.440  17.521  0.00  0.00    +0.000 C 
ATOM     19  C   UNL     1      48.208   4.712  16.645  0.00  0.00    +0.000 C 
BRANCH  19  20
ATOM     20  C   UNL     1      49.533   4.596  17.393  0.00  0.00    +0.000 A 
ATOM     21  C   UNL     1      50.112   5.626  18.120  0.00  0.00    +0.000 A 
ATOM     22  S   UNL     1      51.660   5.246  18.734  0.00  0.00    +0.000 S 
ATOM     23  C   UNL     1      51.594   3.678  18.086  0.00  0.00    +0.000 A 
ATOM     24  N   UNL     1      52.649   2.823  18.187  0.00  0.00    +0.000 NA
ATOM     25  C   UNL     1      52.456   1.673  17.633  0.00  0.00    +0.000 A 
ATOM     26  N   UNL     1      51.294   1.279  17.027  0.00  0.00    +0.000 N 
ATOM     27  C   UNL     1      50.155   2.054  17.033  0.00  0.00    +0.000 A 
ATOM     28  O   UNL     1      49.062   1.589  16.736  0.00  0.00    +0.000 OA
ATOM     29  C   UNL     1      50.374   3.422  17.487  0.00  0.00    +0.000 A 
ATOM     30  H   UNL     1      51.179   0.334  16.697  0.00  0.00    +0.000 HD
ENDBRANCH  19  20
ENDBRANCH   1  19
TORSDOF 5
ENDMDL
MODEL 8
REMARK VINA RESULT:    -6.681      1.552      2.139
REMARK INTER + INTRA:          -9.591
REMARK INTER:                  -9.113
REMARK INTRA:                  -0.478
REMARK UNBOUND:                -0.956
REMARK  Name = 
REMARK  6 active torsions:
REMARK  status: ('A' for Active; 'I' for Inactive)
REMARK    1  A    between atoms: C_1  and  C_2
REMARK    2  A    between atoms: C_2  and  N_3
REMARK    3  A    between atoms: C_2  and  C_17
REMARK    4  A    between atoms: N_3  and  C_4
REMARK    5  A    between atoms: C_7  and  C_8
REMARK    6  A    between atoms: C_8  and  N_9
REMARK                            x       y       z     vdW  Elec       q    Type
REMARK                         _______ _______ _______ _____ _____    ______ ____
ROOT
ATOM      1  N   UNL     1      47.920   5.190  14.528  0.00  0.00    +0.000 N 
ATOM      2  H   UNL     1      48.844   4.913  14.209  0.00  0.00    +0.000 HD
ENDROOT
BRANCH   1   3
ATOM      3  C   UNL     1      46.944   4.921  13.575  0.00  0.00    +0.000 A 
ATOM      4  C   UNL     1      46.534   5.978  12.750  0.00  0.00    +0.000 A 
ATOM      5  C   UNL     1      45.521   5.819  11.795  0.00  0.00    +0.000 A 
ATOM      6  C   UNL     1      44.898   4.580  11.618  0.00  0.00    +0.000 A 
ATOM      7  C   UNL     1      45.360   3.498  12.379  0.00  0.00    +0.000 A 
ATOM      8  C   UNL     1      46.363   3.671  13.349  0.00  0.00    +0.000 A 
BRANCH   6   9
ATOM      9  C   UNL     1      43.754   4.420  10.641  0.00  0.00    +0.000 C 
BRANCH   9  10
ATOM     10  N   UNL     1      44.197   4.674   9.289  0.00  0.00    +0.000 N 
ATOM     11  C   UNL     1      45.109   3.923   8.637  0.00  0.00    +0.000 C 
ATOM     12  N   UNL     1      45.924   4.402   7.745  0.00  0.00    +0.000 NA
ATOM     13  C   UNL     1      46.665   3.214   7.244  0.00  0.00    +0.000 C 
ATOM     14  C   UNL     1      46.144   2.001   8.018  0.00  0.00    +0.000 C 
ATOM     15  N   UNL     1      45.168   2.594   8.913  0.00  0.00    +0.000 N 
ATOM     16  H   UNL     1      44.345   5.660   9.096  0.00  0.00    +0.000 HD
ATOM     17  H   UNL     1      44.259   2.148   8.903  0.00  0.00    +0.000 HD
ENDBRANCH   9  10
ENDBRANCH   6   9
ENDBRANCH   1   3
BRANCH   1  19
ATOM     18  C   UNL     1      47.830   3.562  16.373  0.00  0.00    +0.000 C 
ATOM     19  C   UNL     1      47.761   5.051  15.992  0.00  0.00    +0.000 C 
BRANCH  19  20
ATOM     20  C   UNL     1      48.615   5.955  16.876  0.00  0.00    +0.000 A 
ATOM     21  C   UNL     1      49.722   6.663  16.429  0.00  0.00    +0.000 A 
ATOM     22  S   UNL     1      50.559   7.482  17.672  0.00  0.00    +0.000 S 
ATOM     23  C   UNL     1      49.449   6.954  18.845  0.00  0.00    +0.000 A 
ATOM     24  N   UNL     1      49.619   7.243  20.164  0.00  0.00    +0.000 NA
ATOM     25  C   UNL     1      48.704   6.761  20.937  0.00  0.00    +0.000 A 
ATOM     26  N   UNL     1      47.611   6.055  20.511  0.00  0.00    +0.000 N 
ATOM     27  C   UNL     1      47.322   5.868  19.178  0.00  0.00    +0.000 A 
ATOM     28  O   UNL     1      46.220   5.482  18.808  0.00  0.00    +0.000 OA
ATOM     29  C   UNL     1      48.410   6.237  18.280  0.00  0.00    +0.000 A 
ATOM     30  H   UNL     1      46.886   5.787  21.158  0.00  0.00    +0.000 HD
ENDBRANCH  19  20
ENDBRANCH   1  19
TORSDOF 5
ENDMDL
MODEL 9
REMARK VINA RESULT:    -6.475      3.778      8.540
REMARK INTER + INTRA:          -9.324
REMARK INTER:                  -8.681
REMARK INTRA:                  -0.643
REMARK UNBOUND:                -0.956
REMARK  Name = 
REMARK  6 active torsions:
REMARK  status: ('A' for Active; 'I' for Inactive)
REMARK    1  A    between atoms: C_1  and  C_2
REMARK    2  A    between atoms: C_2  and  N_3
REMARK    3  A    between atoms: C_2  and  C_17
REMARK    4  A    between atoms: N_3  and  C_4
REMARK    5  A    between atoms: C_7  and  C_8
REMARK    6  A    between atoms: C_8  and  N_9
REMARK                            x       y       z     vdW  Elec       q    Type
REMARK                         _______ _______ _______ _____ _____    ______ ____
ROOT
ATOM      1  N   UNL     1      46.785   5.102  15.184  0.00  0.00    +0.000 N 
ATOM      2  H   UNL     1      46.054   4.405  15.078  0.00  0.00    +0.000 HD
ENDROOT
BRANCH   1   3
ATOM      3  C   UNL     1      47.838   4.629  15.959  0.00  0.00    +0.000 A 
ATOM      4  C   UNL     1      48.714   5.576  16.512  0.00  0.00    +0.000 A 
ATOM      5  C   UNL     1      49.833   5.196  17.264  0.00  0.00    +0.000 A 
ATOM      6  C   UNL     1      50.101   3.846  17.509  0.00  0.00    +0.000 A 
ATOM      7  C   UNL     1      49.185   2.898  17.033  0.00  0.00    +0.000 A 
ATOM      8  C   UNL     1      48.076   3.287  16.262  0.00  0.00    +0.000 A 
BRANCH   6   9
ATOM      9  C   UNL     1      51.347   3.426  18.258  0.00  0.00    +0.000 C 
BRANCH   9  10
ATOM     10  N   UNL     1      51.708   2.066  17.928  0.00  0.00    +0.000 N 
ATOM     11  C   UNL     1      52.944   1.551  18.094  0.00  0.00    +0.000 C 
ATOM     12  N   UNL     1      53.443   0.628  17.326  0.00  0.00    +0.000 NA
ATOM     13  C   UNL     1      54.765   0.315  17.933  0.00  0.00    +0.000 C 
ATOM     14  C   UNL     1      54.927   1.230  19.149  0.00  0.00    +0.000 C 
ATOM     15  N   UNL     1      53.701   2.006  19.126  0.00  0.00    +0.000 N 
ATOM     16  H   UNL     1      51.304   1.746  17.053  0.00  0.00    +0.000 HD
ATOM     17  H   UNL     1      53.198   2.029  20.004  0.00  0.00    +0.000 HD
ENDBRANCH   9  10
ENDBRANCH   6   9
ENDBRANCH   1   3
BRANCH   1  19
ATOM     18  C   UNL     1      48.305   5.800  13.378  0.00  0.00    +0.000 C 
ATOM     19  C   UNL     1      46.909   5.979  13.999  0.00  0.00    +0.000 C 
BRANCH  19  20
ATOM     20  C   UNL     1      45.771   5.943  12.983  0.00  0.00    +0.000 A 
ATOM     21  C   UNL     1      45.253   7.064  12.351  0.00  0.00    +0.000 A 
ATOM     22  S   UNL     1      43.896   6.732  11.369  0.00  0.00    +0.000 S 
ATOM     23  C   UNL     1      43.977   5.073  11.721  0.00  0.00    +0.000 A 
ATOM     24  N   UNL     1      43.044   4.200  11.250  0.00  0.00    +0.000 NA
ATOM     25  C   UNL     1      43.229   2.975  11.613  0.00  0.00    +0.000 A 
ATOM     26  N   UNL     1      44.282   2.532  12.366  0.00  0.00    +0.000 N 
ATOM     27  C   UNL     1      45.325   3.351  12.739  0.00  0.00    +0.000 A 
ATOM     28  O   UNL     1      46.378   2.894  13.168  0.00  0.00    +0.000 OA
ATOM     29  C   UNL     1      45.075   4.768  12.505  0.00  0.00    +0.000 A 
ATOM     30  H   UNL     1      44.416   1.547  12.536  0.00  0.00    +0.000 HD
ENDBRANCH  19  20
ENDBRANCH   1  19
TORSDOF 5
ENDMDL
