MODEL 1
REMARK VINA RESULT:    -7.180      0.000      0.000
REMARK INTER + INTRA:         -12.694
REMARK INTER:                 -11.377
REMARK INTRA:                  -1.317
REMARK UNBOUND:                -1.317
REMARK  Name = 
REMARK  12 active torsions:
REMARK  status: ('A' for Active; 'I' for Inactive)
REMARK    1  A    between atoms: C_1  and  C_2
REMARK    2  A    between atoms: C_2  and  C_3
REMARK    3  A    between atoms: C_3  and  C_4
REMARK    4  A    between atoms: C_4  and  N_5
REMARK    5  A    between atoms: C_4  and  C_22
REMARK    6  A    between atoms: N_5  and  C_6
REMARK    7  A    between atoms: C_6  and  C_7
REMARK    8  A    between atoms: C_10  and  C_11
REMARK    9  A    between atoms: C_11  and  N_12
REMARK   10  A    between atoms: N_12  and  C_13
REMARK   11  A    between atoms: C_13  and  C_14
REMARK   12  A    between atoms: N_17  and  C_18
REMARK                            x       y       z     vdW  Elec       q    Type
REMARK                         _______ _______ _______ _____ _____    ______ ____
ROOT
ATOM      1  N   UNL     1      48.342   5.161  15.727  0.00  0.00    +0.000 NA
ATOM      2  H   UNL     1      47.489   4.623  15.860  0.00  0.00    +0.000 HD
ENDROOT
BRANCH   1   3
ATOM      3  C   UNL     1      48.779   5.750  17.008  0.00  0.00    +0.000 C 
BRANCH   3   4
ATOM      4  C   UNL     1      50.132   5.126  17.407  0.00  0.00    +0.000 A 
ATOM      5  C   UNL     1      51.219   5.903  17.819  0.00  0.00    +0.000 A 
ATOM      6  S   UNL     1      52.630   5.014  18.139  0.00  0.00    +0.000 S 
ATOM      7  C   UNL     1      51.852   3.551  17.771  0.00  0.00    +0.000 A 
ATOM      8  N   UNL     1      52.545   2.388  17.865  0.00  0.00    +0.000 NA
ATOM      9  C   UNL     1      51.847   1.333  17.579  0.00  0.00    +0.000 A 
ATOM     10  N   UNL     1      50.524   1.354  17.208  0.00  0.00    +0.000 N 
ATOM     11  C   UNL     1      49.780   2.510  17.099  0.00  0.00    +0.000 A 
ATOM     12  O   UNL     1      48.594   2.475  16.802  0.00  0.00    +0.000 OA
ATOM     13  C   UNL     1      50.524   3.729  17.410  0.00  0.00    +0.000 A 
ATOM     14  H   UNL     1      50.041   0.489  17.027  0.00  0.00    +0.000 HD
ENDBRANCH   3   4
BRANCH   3  15
ATOM     15  C   UNL     1      48.869   7.317  17.041  0.00  0.00    +0.000 C 
BRANCH  15  17
ATOM     16  C   UNL     1      47.528   7.238  19.213  0.00  0.00    +0.000 C 
ATOM     17  C   UNL     1      48.206   8.103  18.171  0.00  0.00    +0.000 C 
ENDBRANCH  15  17
ENDBRANCH   3  15
ENDBRANCH   1   3
BRANCH   1  18
ATOM     18  C   UNL     1      48.160   6.126  14.647  0.00  0.00    +0.000 C 
BRANCH  18  19
ATOM     19  C   UNL     1      47.235   5.675  13.538  0.00  0.00    +0.000 A 
ATOM     20  C   UNL     1      46.562   4.451  13.619  0.00  0.00    +0.000 A 
ATOM     21  C   UNL     1      45.570   4.129  12.688  0.00  0.00    +0.000 A 
ATOM     22  C   UNL     1      45.233   5.024  11.660  0.00  0.00    +0.000 A 
ATOM     23  C   UNL     1      45.921   6.238  11.570  0.00  0.00    +0.000 A 
ATOM     24  C   UNL     1      46.930   6.548  12.483  0.00  0.00    +0.000 A 
BRANCH  22  25
ATOM     25  C   UNL     1      44.147   4.693  10.662  0.00  0.00    +0.000 C 
BRANCH  25  26
ATOM     26  N   UNL     1      44.607   4.968   9.304  0.00  0.00    +0.000 NA
ATOM     27  H   UNL     1      45.544   5.363   9.361  0.00  0.00    +0.000 HD
BRANCH  26  28
ATOM     28  C   UNL     1      44.611   3.775   8.464  0.00  0.00    +0.000 C 
BRANCH  28  29
ATOM     29  C   UNL     1      46.018   3.165   8.426  0.00  0.00    +0.000 C 
ATOM     30  C   UNL     1      46.089   1.629   8.450  0.00  0.00    +0.000 C 
ATOM     31  C   UNL     1      46.694   1.247   7.110  0.00  0.00    +0.000 C 
ATOM     32  N   UNL     1      47.576   2.382   6.846  0.00  0.00    +0.000 NA
ATOM     33  C   UNL     1      48.086   2.387   5.485  0.00  0.00    +0.000 C 
ATOM     34  C   UNL     1      46.763   3.563   7.147  0.00  0.00    +0.000 C 
ENDBRANCH  28  29
ENDBRANCH  26  28
ENDBRANCH  25  26
ENDBRANCH  22  25
ENDBRANCH  18  19
ENDBRANCH   1  18
TORSDOF 10
ENDMDL
MODEL 2
REMARK VINA RESULT:    -7.017      2.171      3.138
REMARK INTER + INTRA:         -12.437
REMARK INTER:                 -11.352
REMARK INTRA:                  -1.085
REMARK UNBOUND:                -1.317
REMARK  Name = 
REMARK  12 active torsions:
REMARK  status: ('A' for Active; 'I' for Inactive)
REMARK    1  A    between atoms: C_1  and  C_2
REMARK    2  A    between atoms: C_2  and  C_3
REMARK    3  A    between atoms: C_3  and  C_4
REMARK    4  A    between atoms: C_4  and  N_5
REMARK    5  A    between atoms: C_4  and  C_22
REMARK    6  A    between atoms: N_5  and  C_6
REMARK    7  A    between atoms: C_6  and  C_7
REMARK    8  A    between atoms: C_10  and  C_11
REMARK    9  A    between atoms: C_11  and  N_12
REMARK   10  A    between atoms: N_12  and  C_13
REMARK   11  A    between atoms: C_13  and  C_14
REMARK   12  A    between atoms: N_17  and  C_18
REMARK                            x       y       z     vdW  Elec       q    Type
REMARK                         _______ _______ _______ _____ _____    ______ ____
ROOT
ATOM      1  N   UNL     1      48.258   6.145  15.130  0.00  0.00    +0.000 NA
ATOM      2  H   UNL     1      47.311   6.139  15.501  0.00  0.00    +0.000 HD
ENDROOT
BRANCH   1   3
ATOM      3  C   UNL     1      49.067   7.173  15.815  0.00  0.00    +0.000 C 
BRANCH   3   4
ATOM      4  C   UNL     1      48.715   7.165  17.317  0.00  0.00    +0.000 A 
ATOM      5  C   UNL     1      48.276   8.311  17.986  0.00  0.00    +0.000 A 
ATOM      6  S   UNL     1      48.018   8.092  19.650  0.00  0.00    +0.000 S 
ATOM      7  C   UNL     1      48.452   6.454  19.552  0.00  0.00    +0.000 A 
ATOM      8  N   UNL     1      48.426   5.692  20.674  0.00  0.00    +0.000 NA
ATOM      9  C   UNL     1      48.757   4.453  20.480  0.00  0.00    +0.000 A 
ATOM     10  N   UNL     1      49.112   3.927  19.261  0.00  0.00    +0.000 N 
ATOM     11  C   UNL     1      49.153   4.662  18.095  0.00  0.00    +0.000 A 
ATOM     12  O   UNL     1      49.439   4.140  17.026  0.00  0.00    +0.000 OA
ATOM     13  C   UNL     1      48.789   6.067  18.262  0.00  0.00    +0.000 A 
ATOM     14  H   UNL     1      49.332   2.947  19.184  0.00  0.00    +0.000 HD
ENDBRANCH   3   4
BRANCH   3  15
ATOM     15  C   UNL     1      50.620   7.060  15.617  0.00  0.00    +0.000 C 
BRANCH  15  17
ATOM     16  C   UNL     1      50.873   8.838  13.801  0.00  0.00    +0.000 C 
ATOM     17  C   UNL     1      51.417   8.250  15.086  0.00  0.00    +0.000 C 
ENDBRANCH  15  17
ENDBRANCH   3  15
ENDBRANCH   1   3
BRANCH   1  18
ATOM     18  C   UNL     1      48.225   6.271  13.676  0.00  0.00    +0.000 C 
BRANCH  18  19
ATOM     19  C   UNL     1      46.887   5.966  13.040  0.00  0.00    +0.000 A 
ATOM     20  C   UNL     1      46.585   6.418  11.751  0.00  0.00    +0.000 A 
ATOM     21  C   UNL     1      45.430   5.974  11.100  0.00  0.00    +0.000 A 
ATOM     22  C   UNL     1      44.556   5.071  11.726  0.00  0.00    +0.000 A 
ATOM     23  C   UNL     1      44.850   4.636  13.022  0.00  0.00    +0.000 A 
ATOM     24  C   UNL     1      45.988   5.100  13.682  0.00  0.00    +0.000 A 
BRANCH  22  25
ATOM     25  C   UNL     1      43.316   4.570  11.022  0.00  0.00    +0.000 C 
BRANCH  25  26
ATOM     26  N   UNL     1      43.448   3.149  10.715  0.00  0.00    +0.000 NA
ATOM     27  H   UNL     1      42.798   2.925   9.965  0.00  0.00    +0.000 HD
BRANCH  26  28
ATOM     28  C   UNL     1      44.808   2.785  10.331  0.00  0.00    +0.000 C 
BRANCH  28  29
ATOM     29  C   UNL     1      44.900   2.635   8.807  0.00  0.00    +0.000 C 
ATOM     30  C   UNL     1      45.194   3.923   8.018  0.00  0.00    +0.000 C 
ATOM     31  C   UNL     1      46.551   3.683   7.378  0.00  0.00    +0.000 C 
ATOM     32  N   UNL     1      46.525   2.240   7.153  0.00  0.00    +0.000 NA
ATOM     33  C   UNL     1      47.827   1.711   6.780  0.00  0.00    +0.000 C 
ATOM     34  C   UNL     1      46.025   1.676   8.408  0.00  0.00    +0.000 C 
ENDBRANCH  28  29
ENDBRANCH  26  28
ENDBRANCH  25  26
ENDBRANCH  22  25
ENDBRANCH  18  19
ENDBRANCH   1  18
TORSDOF 10
ENDMDL
MODEL 3
REMARK VINA RESULT:    -7.016      2.248      3.385
REMARK INTER + INTRA:         -12.434
REMARK INTER:                 -10.433
REMARK INTRA:                  -2.001
REMARK UNBOUND:                -1.317
REMARK  Name = 
REMARK  12 active torsions:
REMARK  status: ('A' for Active; 'I' for Inactive)
REMARK    1  A    between atoms: C_1  and  C_2
REMARK    2  A    between atoms: C_2  and  C_3
REMARK    3  A    between atoms: C_3  and  C_4
REMARK    4  A    between atoms: C_4  and  N_5
REMARK    5  A    between atoms: C_4  and  C_22
REMARK    6  A    between atoms: N_5  and  C_6
REMARK    7  A    between atoms: C_6  and  C_7
REMARK    8  A    between atoms: C_10  and  C_11
REMARK    9  A    between atoms: C_11  and  N_12
REMARK   10  A    between atoms: N_12  and  C_13
REMARK   11  A    between atoms: C_13  and  C_14
REMARK   12  A    between atoms: N_17  and  C_18
REMARK                            x       y       z     vdW  Elec       q    Type
REMARK                         _______ _______ _______ _____ _____    ______ ____
ROOT
ATOM      1  N   UNL     1      49.668   6.543  16.801  0.00  0.00    +0.000 NA
ATOM      2  H   UNL     1      50.271   6.887  17.544  0.00  0.00    +0.000 HD
ENDROOT
BRANCH   1   3
ATOM      3  C   UNL     1      49.468   5.086  16.939  0.00  0.00    +0.000 C 
BRANCH   3   4
ATOM      4  C   UNL     1      50.682   4.484  17.676  0.00  0.00    +0.000 A 
ATOM      5  C   UNL     1      51.491   5.245  18.525  0.00  0.00    +0.000 A 
ATOM      6  S   UNL     1      52.814   4.399  19.172  0.00  0.00    +0.000 S 
ATOM      7  C   UNL     1      52.355   2.973  18.374  0.00  0.00    +0.000 A 
ATOM      8  N   UNL     1      53.102   1.853  18.535  0.00  0.00    +0.000 NA
ATOM      9  C   UNL     1      52.650   0.818  17.896  0.00  0.00    +0.000 A 
ATOM     10  N   UNL     1      51.520   0.824  17.115  0.00  0.00    +0.000 N 
ATOM     11  C   UNL     1      50.729   1.937  16.921  0.00  0.00    +0.000 A 
ATOM     12  O   UNL     1      49.711   1.882  16.247  0.00  0.00    +0.000 OA
ATOM     13  C   UNL     1      51.200   3.130  17.621  0.00  0.00    +0.000 A 
ATOM     14  H   UNL     1      51.215  -0.027  16.670  0.00  0.00    +0.000 HD
ENDBRANCH   3   4
BRANCH   3  15
ATOM     15  C   UNL     1      48.132   4.645  17.634  0.00  0.00    +0.000 C 
BRANCH  15  17
ATOM     16  C   UNL     1      47.131   4.264  15.316  0.00  0.00    +0.000 C 
ATOM     17  C   UNL     1      46.995   4.046  16.809  0.00  0.00    +0.000 C 
ENDBRANCH  15  17
ENDBRANCH   3  15
ENDBRANCH   1   3
BRANCH   1  18
ATOM     18  C   UNL     1      50.186   6.962  15.502  0.00  0.00    +0.000 C 
BRANCH  18  19
ATOM     19  C   UNL     1      49.134   7.390  14.504  0.00  0.00    +0.000 A 
ATOM     20  C   UNL     1      48.942   6.678  13.315  0.00  0.00    +0.000 A 
ATOM     21  C   UNL     1      47.849   6.963  12.491  0.00  0.00    +0.000 A 
ATOM     22  C   UNL     1      46.928   7.964  12.841  0.00  0.00    +0.000 A 
ATOM     23  C   UNL     1      47.134   8.687  14.021  0.00  0.00    +0.000 A 
ATOM     24  C   UNL     1      48.239   8.421  14.829  0.00  0.00    +0.000 A 
BRANCH  22  25
ATOM     25  C   UNL     1      45.732   8.264  11.968  0.00  0.00    +0.000 C 
BRANCH  25  26
ATOM     26  N   UNL     1      45.117   7.022  11.509  0.00  0.00    +0.000 NA
ATOM     27  H   UNL     1      45.846   6.436  11.109  0.00  0.00    +0.000 HD
BRANCH  26  28
ATOM     28  C   UNL     1      44.427   6.311  12.581  0.00  0.00    +0.000 C 
BRANCH  28  29
ATOM     29  C   UNL     1      44.749   4.813  12.507  0.00  0.00    +0.000 C 
ATOM     30  C   UNL     1      43.607   3.857  12.895  0.00  0.00    +0.000 C 
ATOM     31  C   UNL     1      43.291   3.094  11.619  0.00  0.00    +0.000 C 
ATOM     32  N   UNL     1      44.601   3.035  10.974  0.00  0.00    +0.000 NA
ATOM     33  C   UNL     1      44.523   2.573   9.597  0.00  0.00    +0.000 C 
ATOM     34  C   UNL     1      45.132   4.395  11.084  0.00  0.00    +0.000 C 
ENDBRANCH  28  29
ENDBRANCH  26  28
ENDBRANCH  25  26
ENDBRANCH  22  25
ENDBRANCH  18  19
ENDBRANCH   1  18
TORSDOF 10
ENDMDL
MODEL 4
REMARK VINA RESULT:    -6.876      2.010      2.645
REMARK INTER + INTRA:         -12.212
REMARK INTER:                 -10.801
REMARK INTRA:                  -1.411
REMARK UNBOUND:                -1.317
REMARK  Name = 
REMARK  12 active torsions:
REMARK  status: ('A' for Active; 'I' for Inactive)
REMARK    1  A    between atoms: C_1  and  C_2
REMARK    2  A    between atoms: C_2  and  C_3
REMARK    3  A    between atoms: C_3  and  C_4
REMARK    4  A    between atoms: C_4  and  N_5
REMARK    5  A    between atoms: C_4  and  C_22
REMARK    6  A    between atoms: N_5  and  C_6
REMARK    7  A    between atoms: C_6  and  C_7
REMARK    8  A    between atoms: C_10  and  C_11
REMARK    9  A    between atoms: C_11  and  N_12
REMARK   10  A    between atoms: N_12  and  C_13
REMARK   11  A    between atoms: C_13  and  C_14
REMARK   12  A    between atoms: N_17  and  C_18
REMARK                            x       y       z     vdW  Elec       q    Type
REMARK                         _______ _______ _______ _____ _____    ______ ____
ROOT
ATOM      1  N   UNL     1      49.314   6.544  14.123  0.00  0.00    +0.000 NA
ATOM      2  H   UNL     1      49.471   5.540  14.144  0.00  0.00    +0.000 HD
ENDROOT
BRANCH   1   3
ATOM      3  C   UNL     1      48.746   6.999  15.409  0.00  0.00    +0.000 C 
BRANCH   3   4
ATOM      4  C   UNL     1      49.135   5.991  16.509  0.00  0.00    +0.000 A 
ATOM      5  C   UNL     1      48.183   5.236  17.200  0.00  0.00    +0.000 A 
ATOM      6  S   UNL     1      48.827   4.247  18.420  0.00  0.00    +0.000 S 
ATOM      7  C   UNL     1      50.407   4.756  18.067  0.00  0.00    +0.000 A 
ATOM      8  N   UNL     1      51.443   4.250  18.782  0.00  0.00    +0.000 NA
ATOM      9  C   UNL     1      52.606   4.694  18.415  0.00  0.00    +0.000 A 
ATOM     10  N   UNL     1      52.805   5.599  17.401  0.00  0.00    +0.000 N 
ATOM     11  C   UNL     1      51.785   6.141  16.649  0.00  0.00    +0.000 A 
ATOM     12  O   UNL     1      52.016   6.914  15.730  0.00  0.00    +0.000 OA
ATOM     13  C   UNL     1      50.453   5.671  17.025  0.00  0.00    +0.000 A 
ATOM     14  H   UNL     1      53.742   5.877  17.156  0.00  0.00    +0.000 HD
ENDBRANCH   3   4
BRANCH   3  15
ATOM     15  C   UNL     1      49.127   8.458  15.843  0.00  0.00    +0.000 C 
BRANCH  15  17
ATOM     16  C   UNL     1      47.897   9.127  17.979  0.00  0.00    +0.000 C 
ATOM     17  C   UNL     1      48.085   9.365  16.495  0.00  0.00    +0.000 C 
ENDBRANCH  15  17
ENDBRANCH   3  15
ENDBRANCH   1   3
BRANCH   1  18
ATOM     18  C   UNL     1      48.521   6.902  12.951  0.00  0.00    +0.000 C 
BRANCH  18  19
ATOM     19  C   UNL     1      47.169   6.231  12.867  0.00  0.00    +0.000 A 
ATOM     20  C   UNL     1      46.164   6.741  12.037  0.00  0.00    +0.000 A 
ATOM     21  C   UNL     1      44.990   6.013  11.821  0.00  0.00    +0.000 A 
ATOM     22  C   UNL     1      44.799   4.762  12.430  0.00  0.00    +0.000 A 
ATOM     23  C   UNL     1      45.796   4.264  13.275  0.00  0.00    +0.000 A 
ATOM     24  C   UNL     1      46.956   5.003  13.512  0.00  0.00    +0.000 A 
BRANCH  22  25
ATOM     25  C   UNL     1      43.543   3.959  12.185  0.00  0.00    +0.000 C 
BRANCH  25  26
ATOM     26  N   UNL     1      43.446   3.588  10.777  0.00  0.00    +0.000 NA
ATOM     27  H   UNL     1      43.521   4.436  10.219  0.00  0.00    +0.000 HD
BRANCH  26  28
ATOM     28  C   UNL     1      44.474   2.631  10.380  0.00  0.00    +0.000 C 
BRANCH  28  29
ATOM     29  C   UNL     1      44.661   2.663   8.857  0.00  0.00    +0.000 C 
ATOM     30  C   UNL     1      44.932   4.046   8.240  0.00  0.00    +0.000 C 
ATOM     31  C   UNL     1      46.334   3.944   7.663  0.00  0.00    +0.000 C 
ATOM     32  N   UNL     1      46.396   2.537   7.275  0.00  0.00    +0.000 NA
ATOM     33  C   UNL     1      47.743   2.115   6.927  0.00  0.00    +0.000 C 
ATOM     34  C   UNL     1      45.856   1.809   8.425  0.00  0.00    +0.000 C 
ENDBRANCH  28  29
ENDBRANCH  26  28
ENDBRANCH  25  26
ENDBRANCH  22  25
ENDBRANCH  18  19
ENDBRANCH   1  18
TORSDOF 10
ENDMDL
MODEL 5
REMARK VINA RESULT:    -6.826      2.014      2.728
REMARK INTER + INTRA:         -12.133
REMARK INTER:                 -10.554
REMARK INTRA:                  -1.579
REMARK UNBOUND:                -1.317
REMARK  Name = 
REMARK  12 active torsions:
REMARK  status: ('A' for Active; 'I' for Inactive)
REMARK    1  A    between atoms: C_1  and  C_2
REMARK    2  A    between atoms: C_2  and  C_3
REMARK    3  A    between atoms: C_3  and  C_4
REMARK    4  A    between atoms: C_4  and  N_5
REMARK    5  A    between atoms: C_4  and  C_22
REMARK    6  A    between atoms: N_5  and  C_6
REMARK    7  A    between atoms: C_6  and  C_7
REMARK    8  A    between atoms: C_10  and  C_11
REMARK    9  A    between atoms: C_11  and  N_12
REMARK   10  A    between atoms: N_12  and  C_13
REMARK   11  A    between atoms: C_13  and  C_14
REMARK   12  A    between atoms: N_17  and  C_18
REMARK                            x       y       z     vdW  Elec       q    Type
REMARK                         _______ _______ _______ _____ _____    ______ ____
ROOT
ATOM      1  N   UNL     1      49.358   6.631  13.598  0.00  0.00    +0.000 NA
ATOM      2  H   UNL     1      48.968   5.830  14.088  0.00  0.00    +0.000 HD
ENDROOT
BRANCH   1   3
ATOM      3  C   UNL     1      49.718   7.692  14.560  0.00  0.00    +0.000 C 
BRANCH   3   4
ATOM      4  C   UNL     1      50.700   7.111  15.598  0.00  0.00    +0.000 A 
ATOM      5  C   UNL     1      52.043   7.493  15.649  0.00  0.00    +0.000 A 
ATOM      6  S   UNL     1      52.958   6.672  16.821  0.00  0.00    +0.000 S 
ATOM      7  C   UNL     1      51.601   5.791  17.334  0.00  0.00    +0.000 A 
ATOM      8  N   UNL     1      51.734   4.898  18.347  0.00  0.00    +0.000 NA
ATOM      9  C   UNL     1      50.631   4.296  18.669  0.00  0.00    +0.000 A 
ATOM     10  N   UNL     1      49.421   4.516  18.058  0.00  0.00    +0.000 N 
ATOM     11  C   UNL     1      49.238   5.413  17.026  0.00  0.00    +0.000 A 
ATOM     12  O   UNL     1      48.131   5.602  16.539  0.00  0.00    +0.000 OA
ATOM     13  C   UNL     1      50.454   6.116  16.625  0.00  0.00    +0.000 A 
ATOM     14  H   UNL     1      48.601   4.029  18.381  0.00  0.00    +0.000 HD
ENDBRANCH   3   4
BRANCH   3  15
ATOM     15  C   UNL     1      50.299   9.009  13.935  0.00  0.00    +0.000 C 
BRANCH  15  17
ATOM     16  C   UNL     1      48.994  10.391  15.640  0.00  0.00    +0.000 C 
ATOM     17  C   UNL     1      49.699  10.365  14.300  0.00  0.00    +0.000 C 
ENDBRANCH  15  17
ENDBRANCH   3  15
ENDBRANCH   1   3
BRANCH   1  18
ATOM     18  C   UNL     1      48.451   7.058  12.536  0.00  0.00    +0.000 C 
BRANCH  18  19
ATOM     19  C   UNL     1      47.112   6.357  12.522  0.00  0.00    +0.000 A 
ATOM     20  C   UNL     1      46.111   6.740  11.622  0.00  0.00    +0.000 A 
ATOM     21  C   UNL     1      44.953   5.969  11.486  0.00  0.00    +0.000 A 
ATOM     22  C   UNL     1      44.774   4.802  12.245  0.00  0.00    +0.000 A 
ATOM     23  C   UNL     1      45.767   4.432  13.158  0.00  0.00    +0.000 A 
ATOM     24  C   UNL     1      46.911   5.216  13.314  0.00  0.00    +0.000 A 
BRANCH  22  25
ATOM     25  C   UNL     1      43.535   3.951  12.088  0.00  0.00    +0.000 C 
BRANCH  25  26
ATOM     26  N   UNL     1      43.423   3.468  10.716  0.00  0.00    +0.000 NA
ATOM     27  H   UNL     1      43.437   4.274  10.094  0.00  0.00    +0.000 HD
BRANCH  26  28
ATOM     28  C   UNL     1      44.491   2.539  10.362  0.00  0.00    +0.000 C 
BRANCH  28  29
ATOM     29  C   UNL     1      44.697   2.530   8.842  0.00  0.00    +0.000 C 
ATOM     30  C   UNL     1      45.003   3.892   8.194  0.00  0.00    +0.000 C 
ATOM     31  C   UNL     1      46.410   3.749   7.638  0.00  0.00    +0.000 C 
ATOM     32  N   UNL     1      46.449   2.331   7.285  0.00  0.00    +0.000 NA
ATOM     33  C   UNL     1      47.791   1.874   6.964  0.00  0.00    +0.000 C 
ATOM     34  C   UNL     1      45.881   1.642   8.445  0.00  0.00    +0.000 C 
ENDBRANCH  28  29
ENDBRANCH  26  28
ENDBRANCH  25  26
ENDBRANCH  22  25
ENDBRANCH  18  19
ENDBRANCH   1  18
TORSDOF 10
ENDMDL
MODEL 6
REMARK VINA RESULT:    -6.710      3.405      9.268
REMARK INTER + INTRA:         -11.950
REMARK INTER:                  -9.960
REMARK INTRA:                  -1.990
REMARK UNBOUND:                -1.317
REMARK  Name = 
REMARK  12 active torsions:
REMARK  status: ('A' for Active; 'I' for Inactive)
REMARK    1  A    between atoms: C_1  and  C_2
REMARK    2  A    between atoms: C_2  and  C_3
REMARK    3  A    between atoms: C_3  and  C_4
REMARK    4  A    between atoms: C_4  and  N_5
REMARK    5  A    between atoms: C_4  and  C_22
REMARK    6  A    between atoms: N_5  and  C_6
REMARK    7  A    between atoms: C_6  and  C_7
REMARK    8  A    between atoms: C_10  and  C_11
REMARK    9  A    between atoms: C_11  and  N_12
REMARK   10  A    between atoms: N_12  and  C_13
REMARK   11  A    between atoms: C_13  and  C_14
REMARK   12  A    between atoms: N_17  and  C_18
REMARK                            x       y       z     vdW  Elec       q    Type
REMARK                         _______ _______ _______ _____ _____    ______ ____
ROOT
ATOM      1  N   UNL     1      47.072   4.960  15.332  0.00  0.00    +0.000 NA
ATOM      2  H   UNL     1      47.056   3.967  15.110  0.00  0.00    +0.000 HD
ENDROOT
BRANCH   1   3
ATOM      3  C   UNL     1      47.634   5.727  14.201  0.00  0.00    +0.000 C 
BRANCH   3   4
ATOM      4  C   UNL     1      46.525   5.952  13.153  0.00  0.00    +0.000 A 
ATOM      5  C   UNL     1      46.193   7.225  12.681  0.00  0.00    +0.000 A 
ATOM      6  S   UNL     1      44.893   7.247  11.588  0.00  0.00    +0.000 S 
ATOM      7  C   UNL     1      44.732   5.560  11.670  0.00  0.00    +0.000 A 
ATOM      8  N   UNL     1      43.771   4.948  10.932  0.00  0.00    +0.000 NA
ATOM      9  C   UNL     1      43.751   3.657  11.057  0.00  0.00    +0.000 A 
ATOM     10  N   UNL     1      44.607   2.942  11.858  0.00  0.00    +0.000 N 
ATOM     11  C   UNL     1      45.598   3.519  12.625  0.00  0.00    +0.000 A 
ATOM     12  O   UNL     1      46.361   2.836  13.293  0.00  0.00    +0.000 OA
ATOM     13  C   UNL     1      45.660   4.975  12.519  0.00  0.00    +0.000 A 
ATOM     14  H   UNL     1      44.547   1.937  11.882  0.00  0.00    +0.000 HD
ENDBRANCH   3   4
BRANCH   3  15
ATOM     15  C   UNL     1      48.318   7.089  14.576  0.00  0.00    +0.000 C 
BRANCH  15  17
ATOM     16  C   UNL     1      50.732   7.351  15.368  0.00  0.00    +0.000 C 
ATOM     17  C   UNL     1      49.774   7.351  14.195  0.00  0.00    +0.000 C 
ENDBRANCH  15  17
ENDBRANCH   3  15
ENDBRANCH   1   3
BRANCH   1  18
ATOM     18  C   UNL     1      47.751   5.176  16.606  0.00  0.00    +0.000 C 
BRANCH  18  19
ATOM     19  C   UNL     1      48.768   4.120  16.974  0.00  0.00    +0.000 A 
ATOM     20  C   UNL     1      48.581   2.783  16.602  0.00  0.00    +0.000 A 
ATOM     21  C   UNL     1      49.609   1.852  16.778  0.00  0.00    +0.000 A 
ATOM     22  C   UNL     1      50.842   2.239  17.327  0.00  0.00    +0.000 A 
ATOM     23  C   UNL     1      51.019   3.571  17.715  0.00  0.00    +0.000 A 
ATOM     24  C   UNL     1      49.984   4.495  17.565  0.00  0.00    +0.000 A 
BRANCH  22  25
ATOM     25  C   UNL     1      51.966   1.244  17.500  0.00  0.00    +0.000 C 
BRANCH  25  26
ATOM     26  N   UNL     1      52.833   1.646  18.602  0.00  0.00    +0.000 NA
ATOM     27  H   UNL     1      52.540   1.141  19.436  0.00  0.00    +0.000 HD
BRANCH  26  28
ATOM     28  C   UNL     1      54.243   1.391  18.326  0.00  0.00    +0.000 C 
BRANCH  28  29
ATOM     29  C   UNL     1      55.041   2.698  18.427  0.00  0.00    +0.000 C 
ATOM     30  C   UNL     1      55.241   3.471  17.112  0.00  0.00    +0.000 C 
ATOM     31  C   UNL     1      54.497   4.780  17.315  0.00  0.00    +0.000 C 
ATOM     32  N   UNL     1      54.659   4.996  18.751  0.00  0.00    +0.000 NA
ATOM     33  C   UNL     1      53.809   6.064  19.253  0.00  0.00    +0.000 C 
ATOM     34  C   UNL     1      54.354   3.699  19.360  0.00  0.00    +0.000 C 
ENDBRANCH  28  29
ENDBRANCH  26  28
ENDBRANCH  25  26
ENDBRANCH  22  25
ENDBRANCH  18  19
ENDBRANCH   1  18
TORSDOF 10
ENDMDL
MODEL 7
REMARK VINA RESULT:    -6.527      3.537      8.881
REMARK INTER + INTRA:         -11.660
REMARK INTER:                  -9.524
REMARK INTRA:                  -2.136
REMARK UNBOUND:                -1.317
REMARK  Name = 
REMARK  12 active torsions:
REMARK  status: ('A' for Active; 'I' for Inactive)
REMARK    1  A    between atoms: C_1  and  C_2
REMARK    2  A    between atoms: C_2  and  C_3
REMARK    3  A    between atoms: C_3  and  C_4
REMARK    4  A    between atoms: C_4  and  N_5
REMARK    5  A    between atoms: C_4  and  C_22
REMARK    6  A    between atoms: N_5  and  C_6
REMARK    7  A    between atoms: C_6  and  C_7
REMARK    8  A    between atoms: C_10  and  C_11
REMARK    9  A    between atoms: C_11  and  N_12
REMARK   10  A    between atoms: N_12  and  C_13
REMARK   11  A    between atoms: C_13  and  C_14
REMARK   12  A    between atoms: N_17  and  C_18
REMARK                            x       y       z     vdW  Elec       q    Type
REMARK                         _______ _______ _______ _____ _____    ______ ____
ROOT
ATOM      1  N   UNL     1      47.607   6.273  12.710  0.00  0.00    +0.000 NA
ATOM      2  H   UNL     1      47.895   5.378  12.322  0.00  0.00    +0.000 HD
ENDROOT
BRANCH   1   3
ATOM      3  C   UNL     1      46.547   6.873  11.875  0.00  0.00    +0.000 C 
BRANCH   3   4
ATOM      4  C   UNL     1      45.862   5.757  11.060  0.00  0.00    +0.000 A 
ATOM      5  C   UNL     1      45.927   5.706   9.664  0.00  0.00    +0.000 A 
ATOM      6  S   UNL     1      45.039   4.435   8.971  0.00  0.00    +0.000 S 
ATOM      7  C   UNL     1      44.550   3.877  10.497  0.00  0.00    +0.000 A 
ATOM      8  N   UNL     1      43.756   2.780  10.581  0.00  0.00    +0.000 NA
ATOM      9  C   UNL     1      43.460   2.433  11.795  0.00  0.00    +0.000 A 
ATOM     10  N   UNL     1      43.891   3.096  12.918  0.00  0.00    +0.000 N 
ATOM     11  C   UNL     1      44.698   4.214  12.883  0.00  0.00    +0.000 A 
ATOM     12  O   UNL     1      45.088   4.747  13.913  0.00  0.00    +0.000 OA
ATOM     13  C   UNL     1      45.059   4.646  11.535  0.00  0.00    +0.000 A 
ATOM     14  H   UNL     1      43.641   2.750  13.830  0.00  0.00    +0.000 HD
ENDBRANCH   3   4
BRANCH   3  15
ATOM     15  C   UNL     1      45.475   7.725  12.643  0.00  0.00    +0.000 C 
BRANCH  15  17
ATOM     16  C   UNL     1      46.604   9.884  11.878  0.00  0.00    +0.000 C 
ATOM     17  C   UNL     1      45.332   9.219  12.361  0.00  0.00    +0.000 C 
ENDBRANCH  15  17
ENDBRANCH   3  15
ENDBRANCH   1   3
BRANCH   1  18
ATOM     18  C   UNL     1      48.773   7.127  12.914  0.00  0.00    +0.000 C 
BRANCH  18  19
ATOM     19  C   UNL     1      48.971   7.605  14.335  0.00  0.00    +0.000 A 
ATOM     20  C   UNL     1      48.264   8.708  14.827  0.00  0.00    +0.000 A 
ATOM     21  C   UNL     1      48.310   9.025  16.188  0.00  0.00    +0.000 A 
ATOM     22  C   UNL     1      49.062   8.246  17.082  0.00  0.00    +0.000 A 
ATOM     23  C   UNL     1      49.783   7.156  16.584  0.00  0.00    +0.000 A 
ATOM     24  C   UNL     1      49.760   6.855  15.222  0.00  0.00    +0.000 A 
BRANCH  22  25
ATOM     25  C   UNL     1      49.099   8.569  18.557  0.00  0.00    +0.000 C 
BRANCH  25  26
ATOM     26  N   UNL     1      49.483   7.389  19.324  0.00  0.00    +0.000 NA
ATOM     27  H   UNL     1      50.367   7.586  19.789  0.00  0.00    +0.000 HD
BRANCH  26  28
ATOM     28  C   UNL     1      48.472   7.006  20.304  0.00  0.00    +0.000 C 
BRANCH  28  29
ATOM     29  C   UNL     1      47.920   5.613  19.971  0.00  0.00    +0.000 C 
ATOM     30  C   UNL     1      46.841   5.558  18.876  0.00  0.00    +0.000 C 
ATOM     31  C   UNL     1      47.474   4.761  17.748  0.00  0.00    +0.000 C 
ATOM     32  N   UNL     1      48.342   3.842  18.481  0.00  0.00    +0.000 NA
ATOM     33  C   UNL     1      49.265   3.134  17.610  0.00  0.00    +0.000 C 
ATOM     34  C   UNL     1      49.027   4.682  19.465  0.00  0.00    +0.000 C 
ENDBRANCH  28  29
ENDBRANCH  26  28
ENDBRANCH  25  26
ENDBRANCH  22  25
ENDBRANCH  18  19
ENDBRANCH   1  18
TORSDOF 10
ENDMDL
MODEL 8
REMARK VINA RESULT:    -6.393      2.452      3.686
REMARK INTER + INTRA:         -11.447
REMARK INTER:                 -10.125
REMARK INTRA:                  -1.323
REMARK UNBOUND:                -1.317
REMARK  Name = 
REMARK  12 active torsions:
REMARK  status: ('A' for Active; 'I' for Inactive)
REMARK    1  A    between atoms: C_1  and  C_2
REMARK    2  A    between atoms: C_2  and  C_3
REMARK    3  A    between atoms: C_3  and  C_4
REMARK    4  A    between atoms: C_4  and  N_5
REMARK    5  A    between atoms: C_4  and  C_22
REMARK    6  A    between atoms: N_5  and  C_6
REMARK    7  A    between atoms: C_6  and  C_7
REMARK    8  A    between atoms: C_10  and  C_11
REMARK    9  A    between atoms: C_11  and  N_12
REMARK   10  A    between atoms: N_12  and  C_13
REMARK   11  A    between atoms: C_13  and  C_14
REMARK   12  A    between atoms: N_17  and  C_18
REMARK                            x       y       z     vdW  Elec       q    Type
REMARK                         _______ _______ _______ _____ _____    ______ ____
ROOT
ATOM      1  N   UNL     1      49.177   6.519  13.911  0.00  0.00    +0.000 NA
ATOM      2  H   UNL     1      49.886   5.900  14.299  0.00  0.00    +0.000 HD
ENDROOT
BRANCH   1   3
ATOM      3  C   UNL     1      49.521   7.927  14.193  0.00  0.00    +0.000 C 
BRANCH   3   4
ATOM      4  C   UNL     1      49.079   8.270  15.630  0.00  0.00    +0.000 A 
ATOM      5  C   UNL     1      48.224   9.340  15.912  0.00  0.00    +0.000 A 
ATOM      6  S   UNL     1      47.929   9.580  17.567  0.00  0.00    +0.000 S 
ATOM      7  C   UNL     1      48.903   8.254  17.984  0.00  0.00    +0.000 A 
ATOM      8  N   UNL     1      49.053   7.925  19.291  0.00  0.00    +0.000 NA
ATOM      9  C   UNL     1      49.802   6.885  19.493  0.00  0.00    +0.000 A 
ATOM     10  N   UNL     1      50.407   6.161  18.495  0.00  0.00    +0.000 N 
ATOM     11  C   UNL     1      50.285   6.457  17.153  0.00  0.00    +0.000 A 
ATOM     12  O   UNL     1      50.813   5.759  16.299  0.00  0.00    +0.000 OA
ATOM     13  C   UNL     1      49.450   7.624  16.875  0.00  0.00    +0.000 A 
ATOM     14  H   UNL     1      50.954   5.347  18.728  0.00  0.00    +0.000 HD
ENDBRANCH   3   4
BRANCH   3  15
ATOM     15  C   UNL     1      51.026   8.317  13.976  0.00  0.00    +0.000 C 
BRANCH  15  17
ATOM     16  C   UNL     1      51.020   8.309  11.423  0.00  0.00    +0.000 C 
ATOM     17  C   UNL     1      51.464   9.012  12.688  0.00  0.00    +0.000 C 
ENDBRANCH  15  17
ENDBRANCH   3  15
ENDBRANCH   1   3
BRANCH   1  18
ATOM     18  C   UNL     1      47.853   6.114  14.374  0.00  0.00    +0.000 C 
BRANCH  18  19
ATOM     19  C   UNL     1      46.933   5.591  13.294  0.00  0.00    +0.000 A 
ATOM     20  C   UNL     1      46.391   4.304  13.375  0.00  0.00    +0.000 A 
ATOM     21  C   UNL     1      45.398   3.899  12.477  0.00  0.00    +0.000 A 
ATOM     22  C   UNL     1      44.929   4.773  11.483  0.00  0.00    +0.000 A 
ATOM     23  C   UNL     1      45.487   6.052  11.393  0.00  0.00    +0.000 A 
ATOM     24  C   UNL     1      46.497   6.447  12.271  0.00  0.00    +0.000 A 
BRANCH  22  25
ATOM     25  C   UNL     1      43.842   4.351  10.523  0.00  0.00    +0.000 C 
BRANCH  25  26
ATOM     26  N   UNL     1      44.164   4.790   9.169  0.00  0.00    +0.000 NA
ATOM     27  H   UNL     1      45.009   5.355   9.212  0.00  0.00    +0.000 HD
BRANCH  26  28
ATOM     28  C   UNL     1      44.349   3.673   8.249  0.00  0.00    +0.000 C 
BRANCH  28  29
ATOM     29  C   UNL     1      45.798   3.174   8.315  0.00  0.00    +0.000 C 
ATOM     30  C   UNL     1      45.982   1.660   8.516  0.00  0.00    +0.000 C 
ATOM     31  C   UNL     1      46.659   1.180   7.242  0.00  0.00    +0.000 C 
ATOM     32  N   UNL     1      47.461   2.344   6.873  0.00  0.00    +0.000 NA
ATOM     33  C   UNL     1      48.015   2.237   5.533  0.00  0.00    +0.000 C 
ATOM     34  C   UNL     1      46.553   3.484   7.019  0.00  0.00    +0.000 C 
ENDBRANCH  28  29
ENDBRANCH  26  28
ENDBRANCH  25  26
ENDBRANCH  22  25
ENDBRANCH  18  19
ENDBRANCH   1  18
TORSDOF 10
ENDMDL
MODEL 9
REMARK VINA RESULT:    -6.266      2.510      3.761
REMARK INTER + INTRA:         -11.246
REMARK INTER:                  -9.412
REMARK INTRA:                  -1.834
REMARK UNBOUND:                -1.317
REMARK  Name = 
REMARK  12 active torsions:
REMARK  status: ('A' for Active; 'I' for Inactive)
REMARK    1  A    between atoms: C_1  and  C_2
REMARK    2  A    between atoms: C_2  and  C_3
REMARK    3  A    between atoms: C_3  and  C_4
REMARK    4  A    between atoms: C_4  and  N_5
REMARK    5  A    between atoms: C_4  and  C_22
REMARK    6  A    between atoms: N_5  and  C_6
REMARK    7  A    between atoms: C_6  and  C_7
REMARK    8  A    between atoms: C_10  and  C_11
REMARK    9  A    between atoms: C_11  and  N_12
REMARK   10  A    between atoms: N_12  and  C_13
REMARK   11  A    between atoms: C_13  and  C_14
REMARK   12  A    between atoms: N_17  and  C_18
REMARK                            x       y       z     vdW  Elec       q    Type
REMARK                         _______ _______ _______ _____ _____    ______ ____
ROOT
ATOM      1  N   UNL     1      50.381   6.983  14.703  0.00  0.00    +0.000 NA
ATOM      2  H   UNL     1      49.710   6.231  14.845  0.00  0.00    +0.000 HD
ENDROOT
BRANCH   1   3
ATOM      3  C   UNL     1      51.068   7.300  15.972  0.00  0.00    +0.000 C 
BRANCH   3   4
ATOM      4  C   UNL     1      50.007   7.595  17.052  0.00  0.00    +0.000 A 
ATOM      5  C   UNL     1      50.008   8.780  17.794  0.00  0.00    +0.000 A 
ATOM      6  S   UNL     1      48.796   8.861  18.980  0.00  0.00    +0.000 S 
ATOM      7  C   UNL     1      48.195   7.336  18.542  0.00  0.00    +0.000 A 
ATOM      8  N   UNL     1      47.123   6.830  19.201  0.00  0.00    +0.000 NA
ATOM      9  C   UNL     1      46.738   5.668  18.772  0.00  0.00    +0.000 A 
ATOM     10  N   UNL     1      47.342   4.981  17.747  0.00  0.00    +0.000 N 
ATOM     11  C   UNL     1      48.433   5.454  17.049  0.00  0.00    +0.000 A 
ATOM     12  O   UNL     1      48.913   4.822  16.118  0.00  0.00    +0.000 OA
ATOM     13  C   UNL     1      48.906   6.762  17.497  0.00  0.00    +0.000 A 
ATOM     14  H   UNL     1      46.969   4.093  17.452  0.00  0.00    +0.000 HD
ENDBRANCH   3   4
BRANCH   3  15
ATOM     15  C   UNL     1      52.084   6.219  16.484  0.00  0.00    +0.000 C 
BRANCH  15  17
ATOM     16  C   UNL     1      51.968   4.818  18.616  0.00  0.00    +0.000 C 
ATOM     17  C   UNL     1      52.413   6.114  17.972  0.00  0.00    +0.000 C 
ENDBRANCH  15  17
ENDBRANCH   3  15
ENDBRANCH   1   3
BRANCH   1  18
ATOM     18  C   UNL     1      49.727   8.123  14.068  0.00  0.00    +0.000 C 
BRANCH  18  19
ATOM     19  C   UNL     1      48.351   7.838  13.510  0.00  0.00    +0.000 A 
ATOM     20  C   UNL     1      47.263   8.659  13.830  0.00  0.00    +0.000 A 
ATOM     21  C   UNL     1      46.043   8.504  13.165  0.00  0.00    +0.000 A 
ATOM     22  C   UNL     1      45.887   7.526  12.169  0.00  0.00    +0.000 A 
ATOM     23  C   UNL     1      46.970   6.694  11.866  0.00  0.00    +0.000 A 
ATOM     24  C   UNL     1      48.180   6.831  12.548  0.00  0.00    +0.000 A 
BRANCH  22  25
ATOM     25  C   UNL     1      44.579   7.366  11.431  0.00  0.00    +0.000 C 
BRANCH  25  26
ATOM     26  N   UNL     1      43.856   6.201  11.931  0.00  0.00    +0.000 NA
ATOM     27  H   UNL     1      43.036   6.530  12.437  0.00  0.00    +0.000 HD
BRANCH  26  28
ATOM     28  C   UNL     1      43.457   5.290  10.862  0.00  0.00    +0.000 C 
BRANCH  28  29
ATOM     29  C   UNL     1      44.599   4.313  10.554  0.00  0.00    +0.000 C 
ATOM     30  C   UNL     1      44.211   2.826  10.470  0.00  0.00    +0.000 C 
ATOM     31  C   UNL     1      44.483   2.436   9.027  0.00  0.00    +0.000 C 
ATOM     32  N   UNL     1      45.616   3.295   8.693  0.00  0.00    +0.000 NA
ATOM     33  C   UNL     1      45.910   3.302   7.269  0.00  0.00    +0.000 C 
ATOM     34  C   UNL     1      45.243   4.618   9.198  0.00  0.00    +0.000 C 
ENDBRANCH  28  29
ENDBRANCH  26  28
ENDBRANCH  25  26
ENDBRANCH  22  25
ENDBRANCH  18  19
ENDBRANCH   1  18
TORSDOF 10
ENDMDL
