MODEL 1
REMARK VINA RESULT:    -8.149      0.000      0.000
REMARK INTER + INTRA:         -13.311
REMARK INTER:                 -11.960
REMARK INTRA:                  -1.351
REMARK UNBOUND:                -1.351
REMARK  Name = 
REMARK  9 active torsions:
REMARK  status: ('A' for Active; 'I' for Inactive)
REMARK    1  A    between atoms: C_1  and  O_2
REMARK    2  A    between atoms: O_2  and  C_3
REMARK    3  A    between atoms: C_10  and  C_11
REMARK    4  A    between atoms: N_13  and  C_14
REMARK    5  A    between atoms: C_14  and  C_15
REMARK    6  A    between atoms: C_18  and  C_19
REMARK    7  A    between atoms: C_19  and  N_20
REMARK    8  A    between atoms: N_20  and  C_21
REMARK    9  A    between atoms: C_21  and  C_22
REMARK                            x       y       z     vdW  Elec       q    Type
REMARK                         _______ _______ _______ _____ _____    ______ ____
ROOT
ATOM      1  C   UNL     1      46.974   6.177  12.843  0.00  0.00    +0.000 A 
ATOM      2  C   UNL     1      46.323   5.171  13.571  0.00  0.00    +0.000 A 
ATOM      3  C   UNL     1      45.166   4.562  13.069  0.00  0.00    +0.000 A 
ATOM      4  C   UNL     1      44.636   4.938  11.826  0.00  0.00    +0.000 A 
ATOM      5  C   UNL     1      45.308   5.919  11.085  0.00  0.00    +0.000 A 
ATOM      6  C   UNL     1      46.466   6.527  11.584  0.00  0.00    +0.000 A 
ENDROOT
BRANCH   1   7
ATOM      7  C   UNL     1      48.226   6.830  13.377  0.00  0.00    +0.000 C 
BRANCH   7  10
ATOM      8  C   UNL     1      49.340   7.045  15.569  0.00  0.00    +0.000 C 
ATOM      9  O   UNL     1      50.444   7.181  15.043  0.00  0.00    +0.000 OA
ATOM     10  N   UNL     1      48.214   6.866  14.816  0.00  0.00    +0.000 N 
ATOM     11  H   UNL     1      47.329   6.689  15.270  0.00  0.00    +0.000 HD
BRANCH   8  19
ATOM     12  C   UNL     1      48.925   4.595  17.952  0.00  0.00    +0.000 A 
ATOM     13  N   UNL     1      48.736   3.858  19.060  0.00  0.00    +0.000 NA
ATOM     14  C   UNL     1      48.599   4.496  20.224  0.00  0.00    +0.000 A 
ATOM     15  N   UNL     1      48.636   5.813  20.423  0.00  0.00    +0.000 NA
ATOM     16  C   UNL     1      48.835   6.512  19.292  0.00  0.00    +0.000 A 
ATOM     17  S   UNL     1      48.916   8.206  19.356  0.00  0.00    +0.000 S 
ATOM     18  C   UNL     1      49.151   8.310  17.676  0.00  0.00    +0.000 A 
ATOM     19  C   UNL     1      49.172   7.076  17.036  0.00  0.00    +0.000 A 
ATOM     20  C   UNL     1      48.991   6.001  18.009  0.00  0.00    +0.000 A 
BRANCH  12  22
ATOM     21  C   UNL     1      47.937   3.239  16.323  0.00  0.00    +0.000 C 
ATOM     22  O   UNL     1      49.106   3.928  16.760  0.00  0.00    +0.000 OA
ENDBRANCH  12  22
ENDBRANCH   8  19
ENDBRANCH   7  10
ENDBRANCH   1   7
BRANCH   4  23
ATOM     23  C   UNL     1      43.372   4.293  11.294  0.00  0.00    +0.000 C 
BRANCH  23  24
ATOM     24  N   UNL     1      43.589   3.735   9.961  0.00  0.00    +0.000 NA
ATOM     25  H   UNL     1      44.035   4.440   9.375  0.00  0.00    +0.000 HD
BRANCH  24  26
ATOM     26  C   UNL     1      44.433   2.542   9.992  0.00  0.00    +0.000 C 
BRANCH  26  27
ATOM     27  C   UNL     1      45.355   2.505   8.791  0.00  0.00    +0.000 A 
ATOM     28  C   UNL     1      45.987   1.317   8.397  0.00  0.00    +0.000 A 
ATOM     29  C   UNL     1      46.821   1.294   7.273  0.00  0.00    +0.000 A 
ATOM     30  C   UNL     1      47.030   2.461   6.541  0.00  0.00    +0.000 A 
ATOM     31 CL   UNL     1      48.049   2.430   5.154  0.00  0.00    +0.000 Cl
ATOM     32  C   UNL     1      46.416   3.650   6.920  0.00  0.00    +0.000 A 
ATOM     33  C   UNL     1      45.580   3.671   8.040  0.00  0.00    +0.000 A 
ENDBRANCH  26  27
ENDBRANCH  24  26
ENDBRANCH  23  24
ENDBRANCH   4  23
TORSDOF 8
ENDMDL
MODEL 2
REMARK VINA RESULT:    -7.687      1.770      2.181
REMARK INTER + INTRA:         -12.633
REMARK INTER:                 -11.629
REMARK INTRA:                  -1.003
REMARK UNBOUND:                -1.351
REMARK  Name = 
REMARK  9 active torsions:
REMARK  status: ('A' for Active; 'I' for Inactive)
REMARK    1  A    between atoms: C_1  and  O_2
REMARK    2  A    between atoms: O_2  and  C_3
REMARK    3  A    between atoms: C_10  and  C_11
REMARK    4  A    between atoms: N_13  and  C_14
REMARK    5  A    between atoms: C_14  and  C_15
REMARK    6  A    between atoms: C_18  and  C_19
REMARK    7  A    between atoms: C_19  and  N_20
REMARK    8  A    between atoms: N_20  and  C_21
REMARK    9  A    between atoms: C_21  and  C_22
REMARK                            x       y       z     vdW  Elec       q    Type
REMARK                         _______ _______ _______ _____ _____    ______ ____
ROOT
ATOM      1  C   UNL     1      46.498   6.583  12.996  0.00  0.00    +0.000 A 
ATOM      2  C   UNL     1      46.814   5.220  13.083  0.00  0.00    +0.000 A 
ATOM      3  C   UNL     1      45.819   4.246  12.926  0.00  0.00    +0.000 A 
ATOM      4  C   UNL     1      44.488   4.611  12.672  0.00  0.00    +0.000 A 
ATOM      5  C   UNL     1      44.183   5.973  12.551  0.00  0.00    +0.000 A 
ATOM      6  C   UNL     1      45.176   6.947  12.705  0.00  0.00    +0.000 A 
ENDROOT
BRANCH   1   7
ATOM      7  C   UNL     1      47.569   7.635  13.156  0.00  0.00    +0.000 C 
BRANCH   7  10
ATOM      8  C   UNL     1      49.117   7.671  15.078  0.00  0.00    +0.000 C 
ATOM      9  O   UNL     1      48.561   8.655  15.563  0.00  0.00    +0.000 OA
ATOM     10  N   UNL     1      48.688   7.122  13.903  0.00  0.00    +0.000 N 
ATOM     11  H   UNL     1      49.200   6.356  13.489  0.00  0.00    +0.000 HD
BRANCH   8  19
ATOM     12  C   UNL     1      49.417   4.996  17.225  0.00  0.00    +0.000 A 
ATOM     13  N   UNL     1      49.808   4.024  18.067  0.00  0.00    +0.000 NA
ATOM     14  C   UNL     1      51.106   3.934  18.363  0.00  0.00    +0.000 A 
ATOM     15  N   UNL     1      52.087   4.710  17.904  0.00  0.00    +0.000 NA
ATOM     16  C   UNL     1      51.655   5.662  17.059  0.00  0.00    +0.000 A 
ATOM     17  S   UNL     1      52.769   6.741  16.370  0.00  0.00    +0.000 S 
ATOM     18  C   UNL     1      51.539   7.550  15.522  0.00  0.00    +0.000 A 
ATOM     19  C   UNL     1      50.269   7.027  15.741  0.00  0.00    +0.000 A 
ATOM     20  C   UNL     1      50.345   5.890  16.655  0.00  0.00    +0.000 A 
BRANCH  12  22
ATOM     21  C   UNL     1      47.547   3.799  16.494  0.00  0.00    +0.000 C 
ATOM     22  O   UNL     1      48.081   5.059  16.892  0.00  0.00    +0.000 OA
ENDBRANCH  12  22
ENDBRANCH   8  19
ENDBRANCH   7  10
ENDBRANCH   1   7
BRANCH   4  23
ATOM     23  C   UNL     1      43.410   3.556  12.523  0.00  0.00    +0.000 C 
BRANCH  23  24
ATOM     24  N   UNL     1      43.396   3.008  11.168  0.00  0.00    +0.000 NA
ATOM     25  H   UNL     1      42.465   2.644  10.968  0.00  0.00    +0.000 HD
BRANCH  24  26
ATOM     26  C   UNL     1      43.740   4.011  10.163  0.00  0.00    +0.000 C 
BRANCH  26  27
ATOM     27  C   UNL     1      44.778   3.472   9.200  0.00  0.00    +0.000 A 
ATOM     28  C   UNL     1      45.480   4.325   8.336  0.00  0.00    +0.000 A 
ATOM     29  C   UNL     1      46.449   3.814   7.465  0.00  0.00    +0.000 A 
ATOM     30  C   UNL     1      46.719   2.448   7.453  0.00  0.00    +0.000 A 
ATOM     31 CL   UNL     1      47.919   1.822   6.388  0.00  0.00    +0.000 Cl
ATOM     32  C   UNL     1      46.029   1.586   8.298  0.00  0.00    +0.000 A 
ATOM     33  C   UNL     1      45.063   2.097   9.170  0.00  0.00    +0.000 A 
ENDBRANCH  26  27
ENDBRANCH  24  26
ENDBRANCH  23  24
ENDBRANCH   4  23
TORSDOF 8
ENDMDL
MODEL 3
REMARK VINA RESULT:    -7.031      1.862      2.606
REMARK INTER + INTRA:         -11.671
REMARK INTER:                 -10.400
REMARK INTRA:                  -1.271
REMARK UNBOUND:                -1.351
REMARK  Name = 
REMARK  9 active torsions:
REMARK  status: ('A' for Active; 'I' for Inactive)
REMARK    1  A    between atoms: C_1  and  O_2
REMARK    2  A    between atoms: O_2  and  C_3
REMARK    3  A    between atoms: C_10  and  C_11
REMARK    4  A    between atoms: N_13  and  C_14
REMARK    5  A    between atoms: C_14  and  C_15
REMARK    6  A    between atoms: C_18  and  C_19
REMARK    7  A    between atoms: C_19  and  N_20
REMARK    8  A    between atoms: N_20  and  C_21
REMARK    9  A    between atoms: C_21  and  C_22
REMARK                            x       y       z     vdW  Elec       q    Type
REMARK                         _______ _______ _______ _____ _____    ______ ____
ROOT
ATOM      1  C   UNL     1      48.027   7.334  13.559  0.00  0.00    +0.000 A 
ATOM      2  C   UNL     1      47.764   6.054  13.053  0.00  0.00    +0.000 A 
ATOM      3  C   UNL     1      46.514   5.749  12.497  0.00  0.00    +0.000 A 
ATOM      4  C   UNL     1      45.502   6.718  12.429  0.00  0.00    +0.000 A 
ATOM      5  C   UNL     1      45.780   8.006  12.905  0.00  0.00    +0.000 A 
ATOM      6  C   UNL     1      47.029   8.312  13.457  0.00  0.00    +0.000 A 
ENDROOT
BRANCH   1   7
ATOM      7  C   UNL     1      49.375   7.668  14.151  0.00  0.00    +0.000 C 
BRANCH   7  10
ATOM      8  C   UNL     1      50.829   6.854  15.972  0.00  0.00    +0.000 C 
ATOM      9  O   UNL     1      51.802   7.461  15.524  0.00  0.00    +0.000 OA
ATOM     10  N   UNL     1      49.614   6.908  15.350  0.00  0.00    +0.000 N 
ATOM     11  H   UNL     1      48.847   6.350  15.697  0.00  0.00    +0.000 HD
BRANCH   8  19
ATOM     12  C   UNL     1      48.883   6.632  18.803  0.00  0.00    +0.000 A 
ATOM     13  N   UNL     1      48.323   6.366  19.996  0.00  0.00    +0.000 NA
ATOM     14  C   UNL     1      48.930   5.482  20.791  0.00  0.00    +0.000 A 
ATOM     15  N   UNL     1      50.050   4.810  20.531  0.00  0.00    +0.000 NA
ATOM     16  C   UNL     1      50.571   5.098  19.326  0.00  0.00    +0.000 A 
ATOM     17  S   UNL     1      51.997   4.329  18.822  0.00  0.00    +0.000 S 
ATOM     18  C   UNL     1      51.992   5.171  17.347  0.00  0.00    +0.000 A 
ATOM     19  C   UNL     1      50.921   6.045  17.204  0.00  0.00    +0.000 A 
ATOM     20  C   UNL     1      50.067   5.992  18.388  0.00  0.00    +0.000 A 
BRANCH  12  22
ATOM     21  C   UNL     1      48.467   8.879  18.307  0.00  0.00    +0.000 C 
ATOM     22  O   UNL     1      48.230   7.515  17.970  0.00  0.00    +0.000 OA
ENDBRANCH  12  22
ENDBRANCH   8  19
ENDBRANCH   7  10
ENDBRANCH   1   7
BRANCH   4  23
ATOM     23  C   UNL     1      44.144   6.381  11.847  0.00  0.00    +0.000 C 
BRANCH  23  24
ATOM     24  N   UNL     1      44.265   5.919  10.465  0.00  0.00    +0.000 NA
ATOM     25  H   UNL     1      45.245   5.959  10.187  0.00  0.00    +0.000 HD
BRANCH  24  26
ATOM     26  C   UNL     1      43.780   4.550  10.296  0.00  0.00    +0.000 C 
BRANCH  26  27
ATOM     27  C   UNL     1      44.694   3.767   9.377  0.00  0.00    +0.000 A 
ATOM     28  C   UNL     1      45.517   4.417   8.445  0.00  0.00    +0.000 A 
ATOM     29  C   UNL     1      46.370   3.680   7.615  0.00  0.00    +0.000 A 
ATOM     30  C   UNL     1      46.403   2.291   7.712  0.00  0.00    +0.000 A 
ATOM     31 CL   UNL     1      47.461   1.387   6.698  0.00  0.00    +0.000 Cl
ATOM     32  C   UNL     1      45.590   1.629   8.627  0.00  0.00    +0.000 A 
ATOM     33  C   UNL     1      44.741   2.366   9.458  0.00  0.00    +0.000 A 
ENDBRANCH  26  27
ENDBRANCH  24  26
ENDBRANCH  23  24
ENDBRANCH   4  23
TORSDOF 8
ENDMDL
MODEL 4
REMARK VINA RESULT:    -6.943      2.411      3.007
REMARK INTER + INTRA:         -11.541
REMARK INTER:                 -10.424
REMARK INTRA:                  -1.117
REMARK UNBOUND:                -1.351
REMARK  Name = 
REMARK  9 active torsions:
REMARK  status: ('A' for Active; 'I' for Inactive)
REMARK    1  A    between atoms: C_1  and  O_2
REMARK    2  A    between atoms: O_2  and  C_3
REMARK    3  A    between atoms: C_10  and  C_11
REMARK    4  A    between atoms: N_13  and  C_14
REMARK    5  A    between atoms: C_14  and  C_15
REMARK    6  A    between atoms: C_18  and  C_19
REMARK    7  A    between atoms: C_19  and  N_20
REMARK    8  A    between atoms: N_20  and  C_21
REMARK    9  A    between atoms: C_21  and  C_22
REMARK                            x       y       z     vdW  Elec       q    Type
REMARK                         _______ _______ _______ _____ _____    ______ ____
ROOT
ATOM      1  C   UNL     1      48.136   7.082  14.322  0.00  0.00    +0.000 A 
ATOM      2  C   UNL     1      47.340   7.677  13.334  0.00  0.00    +0.000 A 
ATOM      3  C   UNL     1      46.362   6.933  12.661  0.00  0.00    +0.000 A 
ATOM      4  C   UNL     1      46.152   5.579  12.965  0.00  0.00    +0.000 A 
ATOM      5  C   UNL     1      46.926   4.996  13.977  0.00  0.00    +0.000 A 
ATOM      6  C   UNL     1      47.902   5.740  14.652  0.00  0.00    +0.000 A 
ENDROOT
BRANCH   1   7
ATOM      7  C   UNL     1      49.185   7.883  15.055  0.00  0.00    +0.000 C 
BRANCH   7  10
ATOM      8  C   UNL     1      50.391   6.707  16.860  0.00  0.00    +0.000 C 
ATOM      9  O   UNL     1      49.624   7.144  17.716  0.00  0.00    +0.000 OA
ATOM     10  N   UNL     1      50.238   7.030  15.541  0.00  0.00    +0.000 N 
ATOM     11  H   UNL     1      50.919   6.714  14.864  0.00  0.00    +0.000 HD
BRANCH   8  19
ATOM     12  C   UNL     1      50.644   3.298  17.270  0.00  0.00    +0.000 A 
ATOM     13  N   UNL     1      51.010   2.026  17.504  0.00  0.00    +0.000 NA
ATOM     14  C   UNL     1      52.275   1.791  17.857  0.00  0.00    +0.000 A 
ATOM     15  N   UNL     1      53.246   2.692  18.002  0.00  0.00    +0.000 NA
ATOM     16  C   UNL     1      52.841   3.949  17.750  0.00  0.00    +0.000 A 
ATOM     17  S   UNL     1      53.947   5.229  17.878  0.00  0.00    +0.000 S 
ATOM     18  C   UNL     1      52.759   6.367  17.454  0.00  0.00    +0.000 A 
ATOM     19  C   UNL     1      51.510   5.808  17.208  0.00  0.00    +0.000 A 
ATOM     20  C   UNL     1      51.565   4.358  17.378  0.00  0.00    +0.000 A 
BRANCH  12  22
ATOM     21  C   UNL     1      48.426   3.589  17.953  0.00  0.00    +0.000 C 
ATOM     22  O   UNL     1      49.347   3.530  16.866  0.00  0.00    +0.000 OA
ENDBRANCH  12  22
ENDBRANCH   8  19
ENDBRANCH   7  10
ENDBRANCH   1   7
BRANCH   4  23
ATOM     23  C   UNL     1      45.108   4.771  12.222  0.00  0.00    +0.000 C 
BRANCH  23  24
ATOM     24  N   UNL     1      44.445   5.581  11.202  0.00  0.00    +0.000 NA
ATOM     25  H   UNL     1      45.150   6.109  10.688  0.00  0.00    +0.000 HD
BRANCH  24  26
ATOM     26  C   UNL     1      43.683   4.765  10.258  0.00  0.00    +0.000 C 
BRANCH  26  27
ATOM     27  C   UNL     1      44.609   3.900   9.427  0.00  0.00    +0.000 A 
ATOM     28  C   UNL     1      44.595   2.502   9.543  0.00  0.00    +0.000 A 
ATOM     29  C   UNL     1      45.442   1.715   8.755  0.00  0.00    +0.000 A 
ATOM     30  C   UNL     1      46.309   2.322   7.849  0.00  0.00    +0.000 A 
ATOM     31 CL   UNL     1      47.343   1.353   6.873  0.00  0.00    +0.000 Cl
ATOM     32  C   UNL     1      46.340   3.707   7.724  0.00  0.00    +0.000 A 
ATOM     33  C   UNL     1      45.491   4.493   8.509  0.00  0.00    +0.000 A 
ENDBRANCH  26  27
ENDBRANCH  24  26
ENDBRANCH  23  24
ENDBRANCH   4  23
TORSDOF 8
ENDMDL
MODEL 5
REMARK VINA RESULT:    -6.838      5.242      9.538
REMARK INTER + INTRA:         -11.387
REMARK INTER:                 -10.351
REMARK INTRA:                  -1.036
REMARK UNBOUND:                -1.351
REMARK  Name = 
REMARK  9 active torsions:
REMARK  status: ('A' for Active; 'I' for Inactive)
REMARK    1  A    between atoms: C_1  and  O_2
REMARK    2  A    between atoms: O_2  and  C_3
REMARK    3  A    between atoms: C_10  and  C_11
REMARK    4  A    between atoms: N_13  and  C_14
REMARK    5  A    between atoms: C_14  and  C_15
REMARK    6  A    between atoms: C_18  and  C_19
REMARK    7  A    between atoms: C_19  and  N_20
REMARK    8  A    between atoms: N_20  and  C_21
REMARK    9  A    between atoms: C_21  and  C_22
REMARK                            x       y       z     vdW  Elec       q    Type
REMARK                         _______ _______ _______ _____ _____    ______ ____
ROOT
ATOM      1  C   UNL     1      48.618   3.375  17.113  0.00  0.00    +0.000 A 
ATOM      2  C   UNL     1      49.337   2.177  16.999  0.00  0.00    +0.000 A 
ATOM      3  C   UNL     1      50.704   2.134  17.301  0.00  0.00    +0.000 A 
ATOM      4  C   UNL     1      51.383   3.284  17.730  0.00  0.00    +0.000 A 
ATOM      5  C   UNL     1      50.654   4.472  17.876  0.00  0.00    +0.000 A 
ATOM      6  C   UNL     1      49.287   4.516  17.578  0.00  0.00    +0.000 A 
ENDROOT
BRANCH   1   7
ATOM      7  C   UNL     1      47.143   3.423  16.797  0.00  0.00    +0.000 C 
BRANCH   7  10
ATOM      8  C   UNL     1      46.902   4.280  14.494  0.00  0.00    +0.000 C 
ATOM      9  O   UNL     1      47.209   3.191  14.011  0.00  0.00    +0.000 OA
ATOM     10  N   UNL     1      46.853   4.466  15.847  0.00  0.00    +0.000 N 
ATOM     11  H   UNL     1      46.665   5.385  16.221  0.00  0.00    +0.000 HD
BRANCH   8  19
ATOM     12  C   UNL     1      44.109   5.142  12.676  0.00  0.00    +0.000 A 
ATOM     13  N   UNL     1      43.176   5.700  11.884  0.00  0.00    +0.000 NA
ATOM     14  C   UNL     1      43.472   6.853  11.281  0.00  0.00    +0.000 A 
ATOM     15  N   UNL     1      44.610   7.539  11.380  0.00  0.00    +0.000 NA
ATOM     16  C   UNL     1      45.511   6.953  12.187  0.00  0.00    +0.000 A 
ATOM     17  S   UNL     1      47.019   7.689  12.438  0.00  0.00    +0.000 S 
ATOM     18  C   UNL     1      47.520   6.434  13.468  0.00  0.00    +0.000 A 
ATOM     19  C   UNL     1      46.565   5.438  13.642  0.00  0.00    +0.000 A 
ATOM     20  C   UNL     1      45.360   5.757  12.881  0.00  0.00    +0.000 A 
BRANCH  12  22
ATOM     21  C   UNL     1      43.641   2.863  12.444  0.00  0.00    +0.000 C 
ATOM     22  O   UNL     1      43.783   3.973  13.328  0.00  0.00    +0.000 OA
ENDBRANCH  12  22
ENDBRANCH   8  19
ENDBRANCH   7  10
ENDBRANCH   1   7
BRANCH   4  23
ATOM     23  C   UNL     1      52.867   3.241  18.036  0.00  0.00    +0.000 C 
BRANCH  23  24
ATOM     24  N   UNL     1      53.179   2.156  18.964  0.00  0.00    +0.000 NA
ATOM     25  H   UNL     1      52.587   1.354  18.749  0.00  0.00    +0.000 HD
BRANCH  24  26
ATOM     26  C   UNL     1      54.580   1.745  18.882  0.00  0.00    +0.000 C 
BRANCH  26  27
ATOM     27  C   UNL     1      54.707   0.408  18.181  0.00  0.00    +0.000 A 
ATOM     28  C   UNL     1      54.695  -0.794  18.904  0.00  0.00    +0.000 A 
ATOM     29  C   UNL     1      54.795  -2.022  18.241  0.00  0.00    +0.000 A 
ATOM     30  C   UNL     1      54.908  -2.054  16.852  0.00  0.00    +0.000 A 
ATOM     31 CL   UNL     1      55.020  -3.566  16.038  0.00  0.00    +0.000 Cl
ATOM     32  C   UNL     1      54.927  -0.872  16.120  0.00  0.00    +0.000 A 
ATOM     33  C   UNL     1      54.825   0.355  16.783  0.00  0.00    +0.000 A 
ENDBRANCH  26  27
ENDBRANCH  24  26
ENDBRANCH  23  24
ENDBRANCH   4  23
TORSDOF 8
ENDMDL
MODEL 6
REMARK VINA RESULT:    -6.736      4.093      8.898
REMARK INTER + INTRA:         -11.237
REMARK INTER:                  -9.738
REMARK INTRA:                  -1.499
REMARK UNBOUND:                -1.351
REMARK  Name = 
REMARK  9 active torsions:
REMARK  status: ('A' for Active; 'I' for Inactive)
REMARK    1  A    between atoms: C_1  and  O_2
REMARK    2  A    between atoms: O_2  and  C_3
REMARK    3  A    between atoms: C_10  and  C_11
REMARK    4  A    between atoms: N_13  and  C_14
REMARK    5  A    between atoms: C_14  and  C_15
REMARK    6  A    between atoms: C_18  and  C_19
REMARK    7  A    between atoms: C_19  and  N_20
REMARK    8  A    between atoms: N_20  and  C_21
REMARK    9  A    between atoms: C_21  and  C_22
REMARK                            x       y       z     vdW  Elec       q    Type
REMARK                         _______ _______ _______ _____ _____    ______ ____
ROOT
ATOM      1  C   UNL     1      48.789   3.298  17.361  0.00  0.00    +0.000 A 
ATOM      2  C   UNL     1      49.638   2.267  16.934  0.00  0.00    +0.000 A 
ATOM      3  C   UNL     1      50.992   2.263  17.295  0.00  0.00    +0.000 A 
ATOM      4  C   UNL     1      51.527   3.283  18.095  0.00  0.00    +0.000 A 
ATOM      5  C   UNL     1      50.668   4.293  18.548  0.00  0.00    +0.000 A 
ATOM      6  C   UNL     1      49.314   4.297  18.191  0.00  0.00    +0.000 A 
ENDROOT
BRANCH   1   7
ATOM      7  C   UNL     1      47.328   3.301  16.982  0.00  0.00    +0.000 C 
BRANCH   7  10
ATOM      8  C   UNL     1      47.062   4.184  14.692  0.00  0.00    +0.000 C 
ATOM      9  O   UNL     1      47.338   3.093  14.193  0.00  0.00    +0.000 OA
ATOM     10  N   UNL     1      47.041   4.358  16.047  0.00  0.00    +0.000 N 
ATOM     11  H   UNL     1      46.878   5.277  16.433  0.00  0.00    +0.000 HD
BRANCH   8  19
ATOM     12  C   UNL     1      44.368   4.985  12.703  0.00  0.00    +0.000 A 
ATOM     13  N   UNL     1      43.469   5.528  11.864  0.00  0.00    +0.000 NA
ATOM     14  C   UNL     1      43.751   6.715  11.323  0.00  0.00    +0.000 A 
ATOM     15  N   UNL     1      44.845   7.448  11.529  0.00  0.00    +0.000 NA
ATOM     16  C   UNL     1      45.713   6.874  12.379  0.00  0.00    +0.000 A 
ATOM     17  S   UNL     1      47.161   7.668  12.765  0.00  0.00    +0.000 S 
ATOM     18  C   UNL     1      47.647   6.400  13.786  0.00  0.00    +0.000 A 
ATOM     19  C   UNL     1      46.731   5.356  13.856  0.00  0.00    +0.000 A 
ATOM     20  C   UNL     1      45.570   5.648  13.020  0.00  0.00    +0.000 A 
BRANCH  12  22
ATOM     21  C   UNL     1      43.571   2.814  12.357  0.00  0.00    +0.000 C 
ATOM     22  O   UNL     1      44.053   3.778  13.289  0.00  0.00    +0.000 OA
ENDBRANCH  12  22
ENDBRANCH   8  19
ENDBRANCH   7  10
ENDBRANCH   1   7
BRANCH   4  23
ATOM     23  C   UNL     1      52.996   3.288  18.467  0.00  0.00    +0.000 C 
BRANCH  23  24
ATOM     24  N   UNL     1      53.548   4.639  18.406  0.00  0.00    +0.000 NA
ATOM     25  H   UNL     1      54.061   4.827  19.267  0.00  0.00    +0.000 HD
BRANCH  24  26
ATOM     26  C   UNL     1      54.451   4.816  17.269  0.00  0.00    +0.000 C 
BRANCH  26  27
ATOM     27  C   UNL     1      53.940   5.900  16.342  0.00  0.00    +0.000 A 
ATOM     28  C   UNL     1      52.654   6.437  16.493  0.00  0.00    +0.000 A 
ATOM     29  C   UNL     1      52.203   7.451  15.640  0.00  0.00    +0.000 A 
ATOM     30  C   UNL     1      53.036   7.931  14.631  0.00  0.00    +0.000 A 
ATOM     31 CL   UNL     1      52.484   9.185  13.590  0.00  0.00    +0.000 Cl
ATOM     32  C   UNL     1      54.313   7.406  14.464  0.00  0.00    +0.000 A 
ATOM     33  C   UNL     1      54.764   6.395  15.318  0.00  0.00    +0.000 A 
ENDBRANCH  26  27
ENDBRANCH  24  26
ENDBRANCH  23  24
ENDBRANCH   4  23
TORSDOF 8
ENDMDL
MODEL 7
REMARK VINA RESULT:    -6.736      1.948      2.401
REMARK INTER + INTRA:         -11.237
REMARK INTER:                  -9.873
REMARK INTRA:                  -1.364
REMARK UNBOUND:                -1.351
REMARK  Name = 
REMARK  9 active torsions:
REMARK  status: ('A' for Active; 'I' for Inactive)
REMARK    1  A    between atoms: C_1  and  O_2
REMARK    2  A    between atoms: O_2  and  C_3
REMARK    3  A    between atoms: C_10  and  C_11
REMARK    4  A    between atoms: N_13  and  C_14
REMARK    5  A    between atoms: C_14  and  C_15
REMARK    6  A    between atoms: C_18  and  C_19
REMARK    7  A    between atoms: C_19  and  N_20
REMARK    8  A    between atoms: N_20  and  C_21
REMARK    9  A    between atoms: C_21  and  C_22
REMARK                            x       y       z     vdW  Elec       q    Type
REMARK                         _______ _______ _______ _____ _____    ______ ____
ROOT
ATOM      1  C   UNL     1      47.054   8.450  12.318  0.00  0.00    +0.000 A 
ATOM      2  C   UNL     1      45.703   8.641  12.641  0.00  0.00    +0.000 A 
ATOM      3  C   UNL     1      44.740   7.694  12.268  0.00  0.00    +0.000 A 
ATOM      4  C   UNL     1      45.104   6.533  11.570  0.00  0.00    +0.000 A 
ATOM      5  C   UNL     1      46.459   6.329  11.279  0.00  0.00    +0.000 A 
ATOM      6  C   UNL     1      47.423   7.272  11.653  0.00  0.00    +0.000 A 
ENDROOT
BRANCH   1   7
ATOM      7  C   UNL     1      48.096   9.463  12.725  0.00  0.00    +0.000 C 
BRANCH   7  10
ATOM      8  C   UNL     1      49.908   9.619  14.394  0.00  0.00    +0.000 C 
ATOM      9  O   UNL     1      50.507  10.462  13.728  0.00  0.00    +0.000 OA
ATOM     10  N   UNL     1      48.726   9.085  13.963  0.00  0.00    +0.000 N 
ATOM     11  H   UNL     1      48.286   8.347  14.492  0.00  0.00    +0.000 HD
BRANCH   8  19
ATOM     12  C   UNL     1      49.866   6.566  15.984  0.00  0.00    +0.000 A 
ATOM     13  N   UNL     1      49.973   5.516  16.818  0.00  0.00    +0.000 NA
ATOM     14  C   UNL     1      50.570   5.707  17.996  0.00  0.00    +0.000 A 
ATOM     15  N   UNL     1      51.092   6.845  18.453  0.00  0.00    +0.000 NA
ATOM     16  C   UNL     1      50.972   7.866  17.587  0.00  0.00    +0.000 A 
ATOM     17  S   UNL     1      51.587   9.393  17.998  0.00  0.00    +0.000 S 
ATOM     18  C   UNL     1      51.071  10.057  16.522  0.00  0.00    +0.000 A 
ATOM     19  C   UNL     1      50.427   9.145  15.693  0.00  0.00    +0.000 A 
ATOM     20  C   UNL     1      50.378   7.832  16.330  0.00  0.00    +0.000 A 
BRANCH  12  22
ATOM     21  C   UNL     1      47.987   5.772  14.842  0.00  0.00    +0.000 C 
ATOM     22  O   UNL     1      49.286   6.352  14.753  0.00  0.00    +0.000 OA
ENDBRANCH  12  22
ENDBRANCH   8  19
ENDBRANCH   7  10
ENDBRANCH   1   7
BRANCH   4  23
ATOM     23  C   UNL     1      44.057   5.521  11.150  0.00  0.00    +0.000 C 
BRANCH  23  24
ATOM     24  N   UNL     1      44.603   4.165  11.165  0.00  0.00    +0.000 NA
ATOM     25  H   UNL     1      44.408   3.739  12.071  0.00  0.00    +0.000 HD
BRANCH  24  26
ATOM     26  C   UNL     1      44.029   3.327  10.114  0.00  0.00    +0.000 C 
BRANCH  26  27
ATOM     27  C   UNL     1      45.065   3.010   9.055  0.00  0.00    +0.000 A 
ATOM     28  C   UNL     1      45.489   1.694   8.825  0.00  0.00    +0.000 A 
ATOM     29  C   UNL     1      46.432   1.415   7.830  0.00  0.00    +0.000 A 
ATOM     30  C   UNL     1      46.958   2.451   7.061  0.00  0.00    +0.000 A 
ATOM     31 CL   UNL     1      48.110   2.105   5.831  0.00  0.00    +0.000 Cl
ATOM     32  C   UNL     1      46.553   3.764   7.279  0.00  0.00    +0.000 A 
ATOM     33  C   UNL     1      45.608   4.042   8.271  0.00  0.00    +0.000 A 
ENDBRANCH  26  27
ENDBRANCH  24  26
ENDBRANCH  23  24
ENDBRANCH   4  23
TORSDOF 8
ENDMDL
MODEL 8
REMARK VINA RESULT:    -6.637      2.576      3.407
REMARK INTER + INTRA:         -11.092
REMARK INTER:                  -9.717
REMARK INTRA:                  -1.374
REMARK UNBOUND:                -1.351
REMARK  Name = 
REMARK  9 active torsions:
REMARK  status: ('A' for Active; 'I' for Inactive)
REMARK    1  A    between atoms: C_1  and  O_2
REMARK    2  A    between atoms: O_2  and  C_3
REMARK    3  A    between atoms: C_10  and  C_11
REMARK    4  A    between atoms: N_13  and  C_14
REMARK    5  A    between atoms: C_14  and  C_15
REMARK    6  A    between atoms: C_18  and  C_19
REMARK    7  A    between atoms: C_19  and  N_20
REMARK    8  A    between atoms: N_20  and  C_21
REMARK    9  A    between atoms: C_21  and  C_22
REMARK                            x       y       z     vdW  Elec       q    Type
REMARK                         _______ _______ _______ _____ _____    ______ ____
ROOT
ATOM      1  C   UNL     1      46.127   7.318  12.049  0.00  0.00    +0.000 A 
ATOM      2  C   UNL     1      46.392   6.421  11.005  0.00  0.00    +0.000 A 
ATOM      3  C   UNL     1      45.682   5.218  10.902  0.00  0.00    +0.000 A 
ATOM      4  C   UNL     1      44.688   4.885  11.835  0.00  0.00    +0.000 A 
ATOM      5  C   UNL     1      44.403   5.800  12.857  0.00  0.00    +0.000 A 
ATOM      6  C   UNL     1      45.109   7.005  12.960  0.00  0.00    +0.000 A 
ENDROOT
BRANCH   1   7
ATOM      7  C   UNL     1      46.884   8.620  12.159  0.00  0.00    +0.000 C 
BRANCH   7  10
ATOM      8  C   UNL     1      48.973   9.385  13.229  0.00  0.00    +0.000 C 
ATOM      9  O   UNL     1      48.546  10.534  13.340  0.00  0.00    +0.000 OA
ATOM     10  N   UNL     1      48.216   8.401  12.658  0.00  0.00    +0.000 N 
ATOM     11  H   UNL     1      48.612   7.482  12.517  0.00  0.00    +0.000 HD
BRANCH   8  19
ATOM     12  C   UNL     1      50.091   7.217  15.658  0.00  0.00    +0.000 A 
ATOM     13  N   UNL     1      50.783   6.472  16.537  0.00  0.00    +0.000 NA
ATOM     14  C   UNL     1      52.113   6.581  16.543  0.00  0.00    +0.000 A 
ATOM     15  N   UNL     1      52.856   7.358  15.755  0.00  0.00    +0.000 NA
ATOM     16  C   UNL     1      52.127   8.079  14.887  0.00  0.00    +0.000 A 
ATOM     17  S   UNL     1      52.906   9.122  13.798  0.00  0.00    +0.000 S 
ATOM     18  C   UNL     1      51.425   9.616  13.129  0.00  0.00    +0.000 A 
ATOM     19  C   UNL     1      50.317   9.009  13.710  0.00  0.00    +0.000 A 
ATOM     20  C   UNL     1      50.742   8.082  14.756  0.00  0.00    +0.000 A 
BRANCH  12  22
ATOM     21  C   UNL     1      48.308   5.806  15.115  0.00  0.00    +0.000 C 
ATOM     22  O   UNL     1      48.721   7.069  15.628  0.00  0.00    +0.000 OA
ENDBRANCH  12  22
ENDBRANCH   8  19
ENDBRANCH   7  10
ENDBRANCH   1   7
BRANCH   4  23
ATOM     23  C   UNL     1      43.936   3.574  11.733  0.00  0.00    +0.000 C 
BRANCH  23  24
ATOM     24  N   UNL     1      44.723   2.572  11.017  0.00  0.00    +0.000 NA
ATOM     25  H   UNL     1      44.810   1.740  11.600  0.00  0.00    +0.000 HD
BRANCH  24  26
ATOM     26  C   UNL     1      44.112   2.197   9.743  0.00  0.00    +0.000 C 
BRANCH  26  27
ATOM     27  C   UNL     1      45.130   2.253   8.623  0.00  0.00    +0.000 A 
ATOM     28  C   UNL     1      45.263   3.394   7.819  0.00  0.00    +0.000 A 
ATOM     29  C   UNL     1      46.221   3.438   6.800  0.00  0.00    +0.000 A 
ATOM     30  C   UNL     1      47.049   2.339   6.578  0.00  0.00    +0.000 A 
ATOM     31 CL   UNL     1      48.233   2.399   5.331  0.00  0.00    +0.000 Cl
ATOM     32  C   UNL     1      46.927   1.197   7.362  0.00  0.00    +0.000 A 
ATOM     33  C   UNL     1      45.973   1.155   8.382  0.00  0.00    +0.000 A 
ENDBRANCH  26  27
ENDBRANCH  24  26
ENDBRANCH  23  24
ENDBRANCH   4  23
TORSDOF 8
ENDMDL
MODEL 9
REMARK VINA RESULT:    -6.583      4.800      6.811
REMARK INTER + INTRA:         -11.013
REMARK INTER:                  -9.816
REMARK INTRA:                  -1.197
REMARK UNBOUND:                -1.351
REMARK  Name = 
REMARK  9 active torsions:
REMARK  status: ('A' for Active; 'I' for Inactive)
REMARK    1  A    between atoms: C_1  and  O_2
REMARK    2  A    between atoms: O_2  and  C_3
REMARK    3  A    between atoms: C_10  and  C_11
REMARK    4  A    between atoms: N_13  and  C_14
REMARK    5  A    between atoms: C_14  and  C_15
REMARK    6  A    between atoms: C_18  and  C_19
REMARK    7  A    between atoms: C_19  and  N_20
REMARK    8  A    between atoms: N_20  and  C_21
REMARK    9  A    between atoms: C_21  and  C_22
REMARK                            x       y       z     vdW  Elec       q    Type
REMARK                         _______ _______ _______ _____ _____    ______ ____
ROOT
ATOM      1  C   UNL     1      48.456   6.968  12.836  0.00  0.00    +0.000 A 
ATOM      2  C   UNL     1      47.892   6.103  13.784  0.00  0.00    +0.000 A 
ATOM      3  C   UNL     1      46.652   5.496  13.547  0.00  0.00    +0.000 A 
ATOM      4  C   UNL     1      45.951   5.732  12.356  0.00  0.00    +0.000 A 
ATOM      5  C   UNL     1      46.533   6.570  11.395  0.00  0.00    +0.000 A 
ATOM      6  C   UNL     1      47.774   7.175  11.630  0.00  0.00    +0.000 A 
ENDROOT
BRANCH   1   7
ATOM      7  C   UNL     1      49.796   7.617  13.084  0.00  0.00    +0.000 C 
BRANCH   7  10
ATOM      8  C   UNL     1      51.305   9.167  11.894  0.00  0.00    +0.000 C 
ATOM      9  O   UNL     1      51.852   9.507  12.942  0.00  0.00    +0.000 OA
ATOM     10  N   UNL     1      50.291   8.251  11.890  0.00  0.00    +0.000 N 
ATOM     11  H   UNL     1      49.811   8.036  11.027  0.00  0.00    +0.000 HD
BRANCH   8  19
ATOM     12  C   UNL     1      53.326   8.001   9.363  0.00  0.00    +0.000 A 
ATOM     13  N   UNL     1      54.065   7.799   8.258  0.00  0.00    +0.000 NA
ATOM     14  C   UNL     1      54.093   8.764   7.336  0.00  0.00    +0.000 A 
ATOM     15  N   UNL     1      53.452   9.931   7.379  0.00  0.00    +0.000 NA
ATOM     16  C   UNL     1      52.719  10.089   8.495  0.00  0.00    +0.000 A 
ATOM     17  S   UNL     1      51.828  11.515   8.719  0.00  0.00    +0.000 S 
ATOM     18  C   UNL     1      51.251  10.980  10.225  0.00  0.00    +0.000 A 
ATOM     19  C   UNL     1      51.717   9.722  10.589  0.00  0.00    +0.000 A 
ATOM     20  C   UNL     1      52.589   9.187   9.545  0.00  0.00    +0.000 A 
BRANCH  12  22
ATOM     21  C   UNL     1      54.417   6.937  11.137  0.00  0.00    +0.000 C 
ATOM     22  O   UNL     1      53.270   6.985  10.292  0.00  0.00    +0.000 OA
ENDBRANCH  12  22
ENDBRANCH   8  19
ENDBRANCH   7  10
ENDBRANCH   1   7
BRANCH   4  23
ATOM     23  C   UNL     1      44.600   5.091  12.110  0.00  0.00    +0.000 C 
BRANCH  23  24
ATOM     24  N   UNL     1      44.750   3.751  11.546  0.00  0.00    +0.000 NA
ATOM     25  H   UNL     1      44.369   3.070  12.202  0.00  0.00    +0.000 HD
BRANCH  24  26
ATOM     26  C   UNL     1      44.062   3.611  10.264  0.00  0.00    +0.000 C 
BRANCH  26  27
ATOM     27  C   UNL     1      45.039   3.243   9.167  0.00  0.00    +0.000 A 
ATOM     28  C   UNL     1      45.626   4.226   8.357  0.00  0.00    +0.000 A 
ATOM     29  C   UNL     1      46.542   3.871   7.360  0.00  0.00    +0.000 A 
ATOM     30  C   UNL     1      46.874   2.532   7.167  0.00  0.00    +0.000 A 
ATOM     31 CL   UNL     1      48.008   2.098   5.947  0.00  0.00    +0.000 Cl
ATOM     32  C   UNL     1      46.297   1.543   7.957  0.00  0.00    +0.000 A 
ATOM     33  C   UNL     1      45.385   1.898   8.955  0.00  0.00    +0.000 A 
ENDBRANCH  26  27
ENDBRANCH  24  26
ENDBRANCH  23  24
ENDBRANCH   4  23
TORSDOF 8
ENDMDL
