MODEL 1
REMARK VINA RESULT:    -8.866      0.000      0.000
REMARK INTER + INTRA:         -13.488
REMARK INTER:                 -12.494
REMARK INTRA:                  -0.994
REMARK UNBOUND:                -0.994
REMARK  Name = 
REMARK  7 active torsions:
REMARK  status: ('A' for Active; 'I' for Inactive)
REMARK    1  A    between atoms: C_2  and  C_4
REMARK    2  A    between atoms: C_7  and  N_8
REMARK    3  A    between atoms: N_8  and  C_9
REMARK    4  A    between atoms: C_9  and  C_10
REMARK    5  A    between atoms: C_10  and  C_13
REMARK    6  A    between atoms: C_15  and  O_16
REMARK    7  A    between atoms: O_16  and  C_17
REMARK                            x       y       z     vdW  Elec       q    Type
REMARK                         _______ _______ _______ _____ _____    ______ ____
ROOT
ATOM      1  C   UNL     1      43.456   5.025  12.536  0.00  0.00    +0.000 C 
ATOM      2  F   UNL     1      42.704   6.153  12.341  0.00  0.00    +0.000 F 
ATOM      3  F   UNL     1      42.935   4.449  13.667  0.00  0.00    +0.000 F 
ENDROOT
BRANCH   1   4
ATOM      4  C   UNL     1      44.934   5.371  12.706  0.00  0.00    +0.000 A 
ATOM      5  C   UNL     1      45.633   4.850  13.801  0.00  0.00    +0.000 A 
ATOM      6  C   UNL     1      46.964   5.222  13.975  0.00  0.00    +0.000 A 
ATOM      7  C   UNL     1      47.571   6.059  13.048  0.00  0.00    +0.000 A 
ATOM      8  C   UNL     1      46.819   6.521  11.988  0.00  0.00    +0.000 A 
ATOM      9  N   UNL     1      45.521   6.200  11.801  0.00  0.00    +0.000 NA
BRANCH   6  10
ATOM     10  O   UNL     1      47.772   4.803  15.001  0.00  0.00    +0.000 OA
BRANCH  10  11
ATOM     11  C   UNL     1      47.171   4.157  16.147  0.00  0.00    +0.000 C 
ATOM     12  C   UNL     1      47.493   4.708  17.552  0.00  0.00    +0.000 C 
ATOM     13  N   UNL     1      47.734   3.334  18.035  0.00  0.00    +0.000 NA
ATOM     14  C   UNL     1      47.902   2.883  16.639  0.00  0.00    +0.000 C 
ATOM     15  H   UNL     1      46.933   2.915  18.507  0.00  0.00    +0.000 HD
ENDBRANCH  10  11
ENDBRANCH   6  10
ENDBRANCH   1   4
BRANCH   1  16
ATOM     16  C   UNL     1      43.221   4.054  11.351  0.00  0.00    +0.000 C 
BRANCH  16  17
ATOM     17  N   UNL     1      43.694   4.583  10.055  0.00  0.00    +0.000 N 
ATOM     18  H   UNL     1      43.002   5.130   9.546  0.00  0.00    +0.000 HD
BRANCH  17  22
ATOM     19  C   UNL     1      46.451   2.459   7.672  0.00  0.00    +0.000 A 
ATOM     20  C   UNL     1      45.620   1.757   8.548  0.00  0.00    +0.000 A 
ATOM     21  C   UNL     1      44.685   2.447   9.331  0.00  0.00    +0.000 A 
ATOM     22  C   UNL     1      44.536   3.836   9.235  0.00  0.00    +0.000 A 
ATOM     23  C   UNL     1      45.389   4.523   8.361  0.00  0.00    +0.000 A 
ATOM     24  C   UNL     1      46.342   3.848   7.589  0.00  0.00    +0.000 A 
BRANCH  19  26
ATOM     25  N   UNL     1      48.561   2.516   6.457  0.00  0.00    +0.000 N 
ATOM     26  C   UNL     1      47.485   1.772   6.856  0.00  0.00    +0.000 C 
ATOM     27  O   UNL     1      47.403   0.583   6.580  0.00  0.00    +0.000 OA
ATOM     28  H   UNL     1      49.308   2.008   6.000  0.00  0.00    +0.000 HD
ATOM     29  H   UNL     1      48.783   3.408   6.872  0.00  0.00    +0.000 HD
ENDBRANCH  19  26
ENDBRANCH  17  22
ENDBRANCH  16  17
ENDBRANCH   1  16
TORSDOF 7
ENDMDL
MODEL 2
REMARK VINA RESULT:    -8.454      2.132      2.455
REMARK INTER + INTRA:         -12.908
REMARK INTER:                 -11.787
REMARK INTRA:                  -1.121
REMARK UNBOUND:                -0.994
REMARK  Name = 
REMARK  7 active torsions:
REMARK  status: ('A' for Active; 'I' for Inactive)
REMARK    1  A    between atoms: C_2  and  C_4
REMARK    2  A    between atoms: C_7  and  N_8
REMARK    3  A    between atoms: N_8  and  C_9
REMARK    4  A    between atoms: C_9  and  C_10
REMARK    5  A    between atoms: C_10  and  C_13
REMARK    6  A    between atoms: C_15  and  O_16
REMARK    7  A    between atoms: O_16  and  C_17
REMARK                            x       y       z     vdW  Elec       q    Type
REMARK                         _______ _______ _______ _____ _____    ______ ____
ROOT
ATOM      1  C   UNL     1      43.728   4.479  12.586  0.00  0.00    +0.000 C 
ATOM      2  F   UNL     1      42.783   4.685  13.555  0.00  0.00    +0.000 F 
ATOM      3  F   UNL     1      44.261   3.247  12.873  0.00  0.00    +0.000 F 
ENDROOT
BRANCH   1   4
ATOM      4  C   UNL     1      44.792   5.575  12.613  0.00  0.00    +0.000 A 
ATOM      5  C   UNL     1      46.076   5.266  13.076  0.00  0.00    +0.000 A 
ATOM      6  C   UNL     1      47.017   6.289  13.150  0.00  0.00    +0.000 A 
ATOM      7  C   UNL     1      46.677   7.569  12.730  0.00  0.00    +0.000 A 
ATOM      8  C   UNL     1      45.395   7.791  12.273  0.00  0.00    +0.000 A 
ATOM      9  N   UNL     1      44.451   6.829  12.209  0.00  0.00    +0.000 NA
BRANCH   6  10
ATOM     10  O   UNL     1      48.308   6.144  13.591  0.00  0.00    +0.000 OA
BRANCH  10  11
ATOM     11  C   UNL     1      49.061   7.323  13.954  0.00  0.00    +0.000 C 
ATOM     12  C   UNL     1      50.294   7.695  13.103  0.00  0.00    +0.000 C 
ATOM     13  N   UNL     1      51.077   7.916  14.336  0.00  0.00    +0.000 NA
ATOM     14  C   UNL     1      50.091   7.119  15.092  0.00  0.00    +0.000 C 
ATOM     15  H   UNL     1      51.124   8.892  14.626  0.00  0.00    +0.000 HD
ENDBRANCH  10  11
ENDBRANCH   6  10
ENDBRANCH   1   4
BRANCH   1  16
ATOM     16  C   UNL     1      43.024   4.388  11.208  0.00  0.00    +0.000 C 
BRANCH  16  17
ATOM     17  N   UNL     1      43.863   4.860  10.088  0.00  0.00    +0.000 N 
ATOM     18  H   UNL     1      43.458   5.626   9.552  0.00  0.00    +0.000 HD
BRANCH  17  22
ATOM     19  C   UNL     1      46.342   2.285   7.848  0.00  0.00    +0.000 A 
ATOM     20  C   UNL     1      45.462   1.743   8.787  0.00  0.00    +0.000 A 
ATOM     21  C   UNL     1      44.617   2.583   9.523  0.00  0.00    +0.000 A 
ATOM     22  C   UNL     1      44.608   3.969   9.320  0.00  0.00    +0.000 A 
ATOM     23  C   UNL     1      45.509   4.495   8.383  0.00  0.00    +0.000 A 
ATOM     24  C   UNL     1      46.372   3.667   7.656  0.00  0.00    +0.000 A 
BRANCH  19  26
ATOM     25  N   UNL     1      48.382   2.047   6.540  0.00  0.00    +0.000 N 
ATOM     26  C   UNL     1      47.284   1.434   7.077  0.00  0.00    +0.000 C 
ATOM     27  O   UNL     1      47.111   0.229   6.954  0.00  0.00    +0.000 OA
ATOM     28  H   UNL     1      49.070   1.437   6.116  0.00  0.00    +0.000 HD
ATOM     29  H   UNL     1      48.683   2.965   6.830  0.00  0.00    +0.000 HD
ENDBRANCH  19  26
ENDBRANCH  17  22
ENDBRANCH  16  17
ENDBRANCH   1  16
TORSDOF 7
ENDMDL
MODEL 3
REMARK VINA RESULT:    -8.027      1.992      3.455
REMARK INTER + INTRA:         -12.305
REMARK INTER:                 -11.404
REMARK INTRA:                  -0.901
REMARK UNBOUND:                -0.994
REMARK  Name = 
REMARK  7 active torsions:
REMARK  status: ('A' for Active; 'I' for Inactive)
REMARK    1  A    between atoms: C_2  and  C_4
REMARK    2  A    between atoms: C_7  and  N_8
REMARK    3  A    between atoms: N_8  and  C_9
REMARK    4  A    between atoms: C_9  and  C_10
REMARK    5  A    between atoms: C_10  and  C_13
REMARK    6  A    between atoms: C_15  and  O_16
REMARK    7  A    between atoms: O_16  and  C_17
REMARK                            x       y       z     vdW  Elec       q    Type
REMARK                         _______ _______ _______ _____ _____    ______ ____
ROOT
ATOM      1  C   UNL     1      43.563   4.485  12.651  0.00  0.00    +0.000 C 
ATOM      2  F   UNL     1      42.643   5.342  13.195  0.00  0.00    +0.000 F 
ATOM      3  F   UNL     1      43.286   3.268  13.220  0.00  0.00    +0.000 F 
ENDROOT
BRANCH   1   4
ATOM      4  C   UNL     1      44.988   4.942  12.956  0.00  0.00    +0.000 A 
ATOM      5  C   UNL     1      45.571   5.933  12.158  0.00  0.00    +0.000 A 
ATOM      6  C   UNL     1      46.891   6.296  12.410  0.00  0.00    +0.000 A 
ATOM      7  C   UNL     1      47.578   5.703  13.462  0.00  0.00    +0.000 A 
ATOM      8  C   UNL     1      46.931   4.744  14.213  0.00  0.00    +0.000 A 
ATOM      9  N   UNL     1      45.660   4.351  13.981  0.00  0.00    +0.000 NA
BRANCH   6  10
ATOM     10  O   UNL     1      47.597   7.240  11.709  0.00  0.00    +0.000 OA
BRANCH  10  11
ATOM     11  C   UNL     1      48.360   8.228  12.438  0.00  0.00    +0.000 C 
ATOM     12  C   UNL     1      47.594   9.274  13.275  0.00  0.00    +0.000 C 
ATOM     13  N   UNL     1      48.443  10.344  12.714  0.00  0.00    +0.000 NA
ATOM     14  C   UNL     1      48.819   9.449  11.603  0.00  0.00    +0.000 C 
ATOM     15  H   UNL     1      49.227  10.606  13.313  0.00  0.00    +0.000 HD
ENDBRANCH  10  11
ENDBRANCH   6  10
ENDBRANCH   1   4
BRANCH   1  16
ATOM     16  C   UNL     1      43.304   4.372  11.127  0.00  0.00    +0.000 C 
BRANCH  16  17
ATOM     17  N   UNL     1      43.776   3.099  10.544  0.00  0.00    +0.000 N 
ATOM     18  H   UNL     1      43.873   2.339  11.216  0.00  0.00    +0.000 HD
BRANCH  17  22
ATOM     19  C   UNL     1      46.505   2.883   7.336  0.00  0.00    +0.000 A 
ATOM     20  C   UNL     1      46.043   4.131   7.758  0.00  0.00    +0.000 A 
ATOM     21  C   UNL     1      45.152   4.221   8.837  0.00  0.00    +0.000 A 
ATOM     22  C   UNL     1      44.731   3.081   9.532  0.00  0.00    +0.000 A 
ATOM     23  C   UNL     1      45.196   1.837   9.083  0.00  0.00    +0.000 A 
ATOM     24  C   UNL     1      46.069   1.732   7.994  0.00  0.00    +0.000 A 
BRANCH  19  26
ATOM     25  N   UNL     1      48.703   2.359   6.429  0.00  0.00    +0.000 N 
ATOM     26  C   UNL     1      47.416   2.741   6.171  0.00  0.00    +0.000 C 
ATOM     27  O   UNL     1      47.028   2.919   5.024  0.00  0.00    +0.000 OA
ATOM     28  H   UNL     1      49.278   2.158   5.620  0.00  0.00    +0.000 HD
ATOM     29  H   UNL     1      48.982   1.965   7.314  0.00  0.00    +0.000 HD
ENDBRANCH  19  26
ENDBRANCH  17  22
ENDBRANCH  16  17
ENDBRANCH   1  16
TORSDOF 7
ENDMDL
MODEL 4
REMARK VINA RESULT:    -7.951      1.707      2.106
REMARK INTER + INTRA:         -12.199
REMARK INTER:                 -11.326
REMARK INTRA:                  -0.873
REMARK UNBOUND:                -0.994
REMARK  Name = 
REMARK  7 active torsions:
REMARK  status: ('A' for Active; 'I' for Inactive)
REMARK    1  A    between atoms: C_2  and  C_4
REMARK    2  A    between atoms: C_7  and  N_8
REMARK    3  A    between atoms: N_8  and  C_9
REMARK    4  A    between atoms: C_9  and  C_10
REMARK    5  A    between atoms: C_10  and  C_13
REMARK    6  A    between atoms: C_15  and  O_16
REMARK    7  A    between atoms: O_16  and  C_17
REMARK                            x       y       z     vdW  Elec       q    Type
REMARK                         _______ _______ _______ _____ _____    ______ ____
ROOT
ATOM      1  C   UNL     1      44.166   4.630  12.458  0.00  0.00    +0.000 C 
ATOM      2  F   UNL     1      43.274   5.118  13.374  0.00  0.00    +0.000 F 
ATOM      3  F   UNL     1      44.251   3.288  12.732  0.00  0.00    +0.000 F 
ENDROOT
BRANCH   1   4
ATOM      4  C   UNL     1      45.523   5.321  12.589  0.00  0.00    +0.000 A 
ATOM      5  C   UNL     1      46.294   5.096  13.734  0.00  0.00    +0.000 A 
ATOM      6  C   UNL     1      47.500   5.778  13.866  0.00  0.00    +0.000 A 
ATOM      7  C   UNL     1      47.924   6.626  12.851  0.00  0.00    +0.000 A 
ATOM      8  C   UNL     1      47.114   6.786  11.746  0.00  0.00    +0.000 A 
ATOM      9  N   UNL     1      45.929   6.158  11.596  0.00  0.00    +0.000 NA
BRANCH   6  10
ATOM     10  O   UNL     1      48.356   5.670  14.932  0.00  0.00    +0.000 OA
BRANCH  10  11
ATOM     11  C   UNL     1      48.876   6.875  15.538  0.00  0.00    +0.000 C 
ATOM     12  C   UNL     1      50.407   7.043  15.638  0.00  0.00    +0.000 C 
ATOM     13  N   UNL     1      50.267   7.472  17.044  0.00  0.00    +0.000 NA
ATOM     14  C   UNL     1      48.924   6.862  17.086  0.00  0.00    +0.000 C 
ATOM     15  H   UNL     1      50.261   8.485  17.169  0.00  0.00    +0.000 HD
ENDBRANCH  10  11
ENDBRANCH   6  10
ENDBRANCH   1   4
BRANCH   1  16
ATOM     16  C   UNL     1      43.567   4.792  11.038  0.00  0.00    +0.000 C 
BRANCH  16  17
ATOM     17  N   UNL     1      43.637   3.559  10.227  0.00  0.00    +0.000 N 
ATOM     18  H   UNL     1      43.313   2.721  10.707  0.00  0.00    +0.000 HD
BRANCH  17  22
ATOM     19  C   UNL     1      46.677   2.708   7.429  0.00  0.00    +0.000 A 
ATOM     20  C   UNL     1      46.283   4.032   7.631  0.00  0.00    +0.000 A 
ATOM     21  C   UNL     1      45.289   4.333   8.572  0.00  0.00    +0.000 A 
ATOM     22  C   UNL     1      44.694   3.332   9.349  0.00  0.00    +0.000 A 
ATOM     23  C   UNL     1      45.093   2.008   9.122  0.00  0.00    +0.000 A 
ATOM     24  C   UNL     1      46.069   1.692   8.170  0.00  0.00    +0.000 A 
BRANCH  19  26
ATOM     25  N   UNL     1      47.684   3.042   5.238  0.00  0.00    +0.000 N 
ATOM     26  C   UNL     1      47.695   2.341   6.412  0.00  0.00    +0.000 C 
ATOM     27  O   UNL     1      48.533   1.475   6.623  0.00  0.00    +0.000 OA
ATOM     28  H   UNL     1      48.452   2.858   4.603  0.00  0.00    +0.000 HD
ATOM     29  H   UNL     1      47.186   3.912   5.134  0.00  0.00    +0.000 HD
ENDBRANCH  19  26
ENDBRANCH  17  22
ENDBRANCH  16  17
ENDBRANCH   1  16
TORSDOF 7
ENDMDL
MODEL 5
REMARK VINA RESULT:    -7.482      2.440      7.149
REMARK INTER + INTRA:         -11.538
REMARK INTER:                 -10.451
REMARK INTRA:                  -1.087
REMARK UNBOUND:                -0.994
REMARK  Name = 
REMARK  7 active torsions:
REMARK  status: ('A' for Active; 'I' for Inactive)
REMARK    1  A    between atoms: C_2  and  C_4
REMARK    2  A    between atoms: C_7  and  N_8
REMARK    3  A    between atoms: N_8  and  C_9
REMARK    4  A    between atoms: C_9  and  C_10
REMARK    5  A    between atoms: C_10  and  C_13
REMARK    6  A    between atoms: C_15  and  O_16
REMARK    7  A    between atoms: O_16  and  C_17
REMARK                            x       y       z     vdW  Elec       q    Type
REMARK                         _______ _______ _______ _____ _____    ______ ____
ROOT
ATOM      1  C   UNL     1      43.489   5.443  11.406  0.00  0.00    +0.000 C 
ATOM      2  F   UNL     1      42.131   5.332  11.543  0.00  0.00    +0.000 F 
ATOM      3  F   UNL     1      43.687   6.693  10.874  0.00  0.00    +0.000 F 
ENDROOT
BRANCH   1   4
ATOM      4  C   UNL     1      44.042   4.347  10.496  0.00  0.00    +0.000 A 
ATOM      5  C   UNL     1      44.865   4.705   9.422  0.00  0.00    +0.000 A 
ATOM      6  C   UNL     1      45.313   3.702   8.568  0.00  0.00    +0.000 A 
ATOM      7  C   UNL     1      44.971   2.380   8.821  0.00  0.00    +0.000 A 
ATOM      8  C   UNL     1      44.167   2.105   9.908  0.00  0.00    +0.000 A 
ATOM      9  N   UNL     1      43.696   3.055  10.743  0.00  0.00    +0.000 NA
BRANCH   6  10
ATOM     10  O   UNL     1      46.113   3.898   7.471  0.00  0.00    +0.000 OA
BRANCH  10  11
ATOM     11  C   UNL     1      46.597   2.747   6.742  0.00  0.00    +0.000 C 
ATOM     12  C   UNL     1      48.079   2.348   6.903  0.00  0.00    +0.000 C 
ATOM     13  N   UNL     1      48.197   2.199   5.439  0.00  0.00    +0.000 NA
ATOM     14  C   UNL     1      46.983   3.020   5.268  0.00  0.00    +0.000 C 
ATOM     15  H   UNL     1      48.092   1.238   5.112  0.00  0.00    +0.000 HD
ENDBRANCH  10  11
ENDBRANCH   6  10
ENDBRANCH   1   4
BRANCH   1  16
ATOM     16  C   UNL     1      44.140   5.412  12.813  0.00  0.00    +0.000 C 
BRANCH  16  17
ATOM     17  N   UNL     1      45.541   4.944  12.801  0.00  0.00    +0.000 N 
ATOM     18  H   UNL     1      45.708   4.102  13.349  0.00  0.00    +0.000 HD
BRANCH  17  22
ATOM     19  C   UNL     1      48.920   7.468  12.899  0.00  0.00    +0.000 A 
ATOM     20  C   UNL     1      48.123   7.434  11.752  0.00  0.00    +0.000 A 
ATOM     21  C   UNL     1      46.986   6.617  11.712  0.00  0.00    +0.000 A 
ATOM     22  C   UNL     1      46.602   5.845  12.816  0.00  0.00    +0.000 A 
ATOM     23  C   UNL     1      47.423   5.882  13.952  0.00  0.00    +0.000 A 
ATOM     24  C   UNL     1      48.573   6.679  13.997  0.00  0.00    +0.000 A 
BRANCH  19  26
ATOM     25  N   UNL     1      51.194   7.789  13.706  0.00  0.00    +0.000 N 
ATOM     26  C   UNL     1      50.157   8.286  12.967  0.00  0.00    +0.000 C 
ATOM     27  O   UNL     1      50.264   9.344  12.361  0.00  0.00    +0.000 OA
ATOM     28  H   UNL     1      52.066   8.302  13.651  0.00  0.00    +0.000 HD
ATOM     29  H   UNL     1      51.233   6.825  14.001  0.00  0.00    +0.000 HD
ENDBRANCH  19  26
ENDBRANCH  17  22
ENDBRANCH  16  17
ENDBRANCH   1  16
TORSDOF 7
ENDMDL
MODEL 6
REMARK VINA RESULT:    -7.178      1.953      7.799
REMARK INTER + INTRA:         -11.109
REMARK INTER:                 -10.314
REMARK INTRA:                  -0.796
REMARK UNBOUND:                -0.994
REMARK  Name = 
REMARK  7 active torsions:
REMARK  status: ('A' for Active; 'I' for Inactive)
REMARK    1  A    between atoms: C_2  and  C_4
REMARK    2  A    between atoms: C_7  and  N_8
REMARK    3  A    between atoms: N_8  and  C_9
REMARK    4  A    between atoms: C_9  and  C_10
REMARK    5  A    between atoms: C_10  and  C_13
REMARK    6  A    between atoms: C_15  and  O_16
REMARK    7  A    between atoms: O_16  and  C_17
REMARK                            x       y       z     vdW  Elec       q    Type
REMARK                         _______ _______ _______ _____ _____    ______ ____
ROOT
ATOM      1  C   UNL     1      44.143   5.732  11.455  0.00  0.00    +0.000 C 
ATOM      2  F   UNL     1      42.791   5.932  11.524  0.00  0.00    +0.000 F 
ATOM      3  F   UNL     1      44.653   6.930  11.022  0.00  0.00    +0.000 F 
ENDROOT
BRANCH   1   4
ATOM      4  C   UNL     1      44.484   4.592  10.497  0.00  0.00    +0.000 A 
ATOM      5  C   UNL     1      45.278   4.860   9.376  0.00  0.00    +0.000 A 
ATOM      6  C   UNL     1      45.530   3.825   8.481  0.00  0.00    +0.000 A 
ATOM      7  C   UNL     1      45.029   2.555   8.738  0.00  0.00    +0.000 A 
ATOM      8  C   UNL     1      44.267   2.367   9.872  0.00  0.00    +0.000 A 
ATOM      9  N   UNL     1      43.983   3.353  10.749  0.00  0.00    +0.000 NA
BRANCH   6  10
ATOM     10  O   UNL     1      46.278   3.936   7.336  0.00  0.00    +0.000 OA
BRANCH  10  11
ATOM     11  C   UNL     1      46.687   2.733   6.647  0.00  0.00    +0.000 C 
ATOM     12  C   UNL     1      48.130   2.225   6.852  0.00  0.00    +0.000 C 
ATOM     13  N   UNL     1      48.267   2.029   5.395  0.00  0.00    +0.000 NA
ATOM     14  C   UNL     1      47.124   2.936   5.175  0.00  0.00    +0.000 C 
ATOM     15  H   UNL     1      48.094   1.071   5.089  0.00  0.00    +0.000 HD
ENDBRANCH  10  11
ENDBRANCH   6  10
ENDBRANCH   1   4
BRANCH   1  16
ATOM     16  C   UNL     1      44.685   5.469  12.885  0.00  0.00    +0.000 C 
BRANCH  16  17
ATOM     17  N   UNL     1      46.039   4.878  12.900  0.00  0.00    +0.000 N 
ATOM     18  H   UNL     1      46.085   3.925  12.544  0.00  0.00    +0.000 HD
BRANCH  17  22
ATOM     19  C   UNL     1      48.610   5.895  16.085  0.00  0.00    +0.000 A 
ATOM     20  C   UNL     1      47.809   4.756  16.189  0.00  0.00    +0.000 A 
ATOM     21  C   UNL     1      46.965   4.393  15.130  0.00  0.00    +0.000 A 
ATOM     22  C   UNL     1      46.925   5.134  13.943  0.00  0.00    +0.000 A 
ATOM     23  C   UNL     1      47.726   6.282  13.864  0.00  0.00    +0.000 A 
ATOM     24  C   UNL     1      48.557   6.666  14.923  0.00  0.00    +0.000 A 
BRANCH  19  26
ATOM     25  N   UNL     1      50.818   6.481  16.927  0.00  0.00    +0.000 N 
ATOM     26  C   UNL     1      49.486   6.339  17.199  0.00  0.00    +0.000 C 
ATOM     27  O   UNL     1      49.037   6.603  18.306  0.00  0.00    +0.000 OA
ATOM     28  H   UNL     1      51.382   6.891  17.662  0.00  0.00    +0.000 HD
ATOM     29  H   UNL     1      51.175   6.520  15.984  0.00  0.00    +0.000 HD
ENDBRANCH  19  26
ENDBRANCH  17  22
ENDBRANCH  16  17
ENDBRANCH   1  16
TORSDOF 7
ENDMDL
MODEL 7
REMARK VINA RESULT:    -6.707      2.351      8.081
REMARK INTER + INTRA:         -10.446
REMARK INTER:                  -9.561
REMARK INTRA:                  -0.885
REMARK UNBOUND:                -0.994
REMARK  Name = 
REMARK  7 active torsions:
REMARK  status: ('A' for Active; 'I' for Inactive)
REMARK    1  A    between atoms: C_2  and  C_4
REMARK    2  A    between atoms: C_7  and  N_8
REMARK    3  A    between atoms: N_8  and  C_9
REMARK    4  A    between atoms: C_9  and  C_10
REMARK    5  A    between atoms: C_10  and  C_13
REMARK    6  A    between atoms: C_15  and  O_16
REMARK    7  A    between atoms: O_16  and  C_17
REMARK                            x       y       z     vdW  Elec       q    Type
REMARK                         _______ _______ _______ _____ _____    ______ ____
ROOT
ATOM      1  C   UNL     1      46.179   6.816  12.630  0.00  0.00    +0.000 C 
ATOM      2  F   UNL     1      45.633   7.865  13.319  0.00  0.00    +0.000 F 
ATOM      3  F   UNL     1      46.765   7.387  11.529  0.00  0.00    +0.000 F 
ENDROOT
BRANCH   1   4
ATOM      4  C   UNL     1      45.109   5.798  12.238  0.00  0.00    +0.000 A 
ATOM      5  C   UNL     1      45.306   5.010  11.098  0.00  0.00    +0.000 A 
ATOM      6  C   UNL     1      44.296   4.129  10.720  0.00  0.00    +0.000 A 
ATOM      7  C   UNL     1      43.148   4.025  11.495  0.00  0.00    +0.000 A 
ATOM      8  C   UNL     1      43.034   4.827  12.612  0.00  0.00    +0.000 A 
ATOM      9  N   UNL     1      43.982   5.707  12.995  0.00  0.00    +0.000 NA
BRANCH   6  10
ATOM     10  O   UNL     1      44.339   3.302   9.626  0.00  0.00    +0.000 OA
BRANCH  10  11
ATOM     11  C   UNL     1      45.619   3.002   9.025  0.00  0.00    +0.000 C 
ATOM     12  C   UNL     1      45.867   3.446   7.568  0.00  0.00    +0.000 C 
ATOM     13  N   UNL     1      46.421   2.113   7.257  0.00  0.00    +0.000 NA
ATOM     14  C   UNL     1      45.756   1.568   8.457  0.00  0.00    +0.000 C 
ATOM     15  H   UNL     1      47.439   2.069   7.297  0.00  0.00    +0.000 HD
ENDBRANCH  10  11
ENDBRANCH   6  10
ENDBRANCH   1   4
BRANCH   1  16
ATOM     16  C   UNL     1      47.298   6.177  13.492  0.00  0.00    +0.000 C 
BRANCH  16  17
ATOM     17  N   UNL     1      46.810   5.113  14.393  0.00  0.00    +0.000 N 
ATOM     18  H   UNL     1      45.795   5.033  14.439  0.00  0.00    +0.000 HD
BRANCH  17  22
ATOM     19  C   UNL     1      48.661   4.517  18.136  0.00  0.00    +0.000 A 
ATOM     20  C   UNL     1      47.746   3.572  17.667  0.00  0.00    +0.000 A 
ATOM     21  C   UNL     1      47.139   3.745  16.416  0.00  0.00    +0.000 A 
ATOM     22  C   UNL     1      47.451   4.838  15.598  0.00  0.00    +0.000 A 
ATOM     23  C   UNL     1      48.361   5.782  16.093  0.00  0.00    +0.000 A 
ATOM     24  C   UNL     1      48.959   5.632  17.350  0.00  0.00    +0.000 A 
BRANCH  19  26
ATOM     25  N   UNL     1      48.593   3.724  20.437  0.00  0.00    +0.000 N 
ATOM     26  C   UNL     1      49.295   4.394  19.473  0.00  0.00    +0.000 C 
ATOM     27  O   UNL     1      50.412   4.837  19.701  0.00  0.00    +0.000 OA
ATOM     28  H   UNL     1      49.084   3.551  21.306  0.00  0.00    +0.000 HD
ATOM     29  H   UNL     1      47.801   3.138  20.219  0.00  0.00    +0.000 HD
ENDBRANCH  19  26
ENDBRANCH  17  22
ENDBRANCH  16  17
ENDBRANCH   1  16
TORSDOF 7
ENDMDL
MODEL 8
REMARK VINA RESULT:    -6.399      3.462      5.077
REMARK INTER + INTRA:         -10.012
REMARK INTER:                  -8.728
REMARK INTRA:                  -1.284
REMARK UNBOUND:                -0.994
REMARK  Name = 
REMARK  7 active torsions:
REMARK  status: ('A' for Active; 'I' for Inactive)
REMARK    1  A    between atoms: C_2  and  C_4
REMARK    2  A    between atoms: C_7  and  N_8
REMARK    3  A    between atoms: N_8  and  C_9
REMARK    4  A    between atoms: C_9  and  C_10
REMARK    5  A    between atoms: C_10  and  C_13
REMARK    6  A    between atoms: C_15  and  O_16
REMARK    7  A    between atoms: O_16  and  C_17
REMARK                            x       y       z     vdW  Elec       q    Type
REMARK                         _______ _______ _______ _____ _____    ______ ____
ROOT
ATOM      1  C   UNL     1      48.979   8.064  13.458  0.00  0.00    +0.000 C 
ATOM      2  F   UNL     1      49.317   6.898  12.824  0.00  0.00    +0.000 F 
ATOM      3  F   UNL     1      49.971   8.948  13.116  0.00  0.00    +0.000 F 
ENDROOT
BRANCH   1   4
ATOM      4  C   UNL     1      48.894   7.864  14.970  0.00  0.00    +0.000 A 
ATOM      5  C   UNL     1      49.128   6.592  15.503  0.00  0.00    +0.000 A 
ATOM      6  C   UNL     1      48.989   6.412  16.876  0.00  0.00    +0.000 A 
ATOM      7  C   UNL     1      48.665   7.497  17.682  0.00  0.00    +0.000 A 
ATOM      8  C   UNL     1      48.464   8.723  17.084  0.00  0.00    +0.000 A 
ATOM      9  N   UNL     1      48.567   8.927  15.754  0.00  0.00    +0.000 NA
BRANCH   6  10
ATOM     10  O   UNL     1      49.175   5.226  17.540  0.00  0.00    +0.000 OA
BRANCH  10  11
ATOM     11  C   UNL     1      48.460   4.053  17.090  0.00  0.00    +0.000 C 
ATOM     12  C   UNL     1      46.920   4.116  17.016  0.00  0.00    +0.000 C 
ATOM     13  N   UNL     1      46.835   2.805  17.689  0.00  0.00    +0.000 NA
ATOM     14  C   UNL     1      48.217   2.976  18.176  0.00  0.00    +0.000 C 
ATOM     15  H   UNL     1      46.720   2.019  17.049  0.00  0.00    +0.000 HD
ENDBRANCH  10  11
ENDBRANCH   6  10
ENDBRANCH   1   4
BRANCH   1  16
ATOM     16  C   UNL     1      47.645   8.588  12.867  0.00  0.00    +0.000 C 
BRANCH  16  17
ATOM     17  N   UNL     1      46.455   7.883  13.386  0.00  0.00    +0.000 N 
ATOM     18  H   UNL     1      46.420   7.810  14.402  0.00  0.00    +0.000 HD
BRANCH  17  22
ATOM     19  C   UNL     1      44.757   4.452  11.615  0.00  0.00    +0.000 A 
ATOM     20  C   UNL     1      44.376   5.717  11.162  0.00  0.00    +0.000 A 
ATOM     21  C   UNL     1      44.947   6.866  11.725  0.00  0.00    +0.000 A 
ATOM     22  C   UNL     1      45.925   6.779  12.724  0.00  0.00    +0.000 A 
ATOM     23  C   UNL     1      46.284   5.502  13.175  0.00  0.00    +0.000 A 
ATOM     24  C   UNL     1      45.706   4.347  12.634  0.00  0.00    +0.000 A 
BRANCH  19  26
ATOM     25  N   UNL     1      44.925   2.434  10.264  0.00  0.00    +0.000 N 
ATOM     26  C   UNL     1      44.146   3.211  11.075  0.00  0.00    +0.000 C 
ATOM     27  O   UNL     1      43.007   2.873  11.369  0.00  0.00    +0.000 OA
ATOM     28  H   UNL     1      44.534   1.539   9.996  0.00  0.00    +0.000 HD
ATOM     29  H   UNL     1      45.926   2.546  10.208  0.00  0.00    +0.000 HD
ENDBRANCH  19  26
ENDBRANCH  17  22
ENDBRANCH  16  17
ENDBRANCH   1  16
TORSDOF 7
ENDMDL
MODEL 9
REMARK VINA RESULT:    -6.026      4.178      7.978
REMARK INTER + INTRA:          -9.486
REMARK INTER:                  -9.053
REMARK INTRA:                  -0.433
REMARK UNBOUND:                -0.994
REMARK  Name = 
REMARK  7 active torsions:
REMARK  status: ('A' for Active; 'I' for Inactive)
REMARK    1  A    between atoms: C_2  and  C_4
REMARK    2  A    between atoms: C_7  and  N_8
REMARK    3  A    between atoms: N_8  and  C_9
REMARK    4  A    between atoms: C_9  and  C_10
REMARK    5  A    between atoms: C_10  and  C_13
REMARK    6  A    between atoms: C_15  and  O_16
REMARK    7  A    between atoms: O_16  and  C_17
REMARK                            x       y       z     vdW  Elec       q    Type
REMARK                         _______ _______ _______ _____ _____    ______ ____
ROOT
ATOM      1  C   UNL     1      46.827   4.264  13.729  0.00  0.00    +0.000 C 
ATOM      2  F   UNL     1      47.894   4.866  13.116  0.00  0.00    +0.000 F 
ATOM      3  F   UNL     1      47.117   2.923  13.699  0.00  0.00    +0.000 F 
ENDROOT
BRANCH   1   4
ATOM      4  C   UNL     1      45.523   4.578  12.998  0.00  0.00    +0.000 A 
ATOM      5  C   UNL     1      45.303   5.877  12.528  0.00  0.00    +0.000 A 
ATOM      6  C   UNL     1      44.085   6.163  11.917  0.00  0.00    +0.000 A 
ATOM      7  C   UNL     1      43.144   5.154  11.754  0.00  0.00    +0.000 A 
ATOM      8  C   UNL     1      43.440   3.895  12.233  0.00  0.00    +0.000 A 
ATOM      9  N   UNL     1      44.601   3.589  12.851  0.00  0.00    +0.000 NA
BRANCH   6  10
ATOM     10  O   UNL     1      43.721   7.387  11.417  0.00  0.00    +0.000 OA
BRANCH  10  11
ATOM     11  C   UNL     1      44.691   8.459  11.415  0.00  0.00    +0.000 C 
ATOM     12  C   UNL     1      45.122   9.060  12.770  0.00  0.00    +0.000 C 
ATOM     13  N   UNL     1      44.955  10.420  12.219  0.00  0.00    +0.000 NA
ATOM     14  C   UNL     1      44.110   9.869  11.142  0.00  0.00    +0.000 C 
ATOM     15  H   UNL     1      45.822  10.840  11.885  0.00  0.00    +0.000 HD
ENDBRANCH  10  11
ENDBRANCH   6  10
ENDBRANCH   1   4
BRANCH   1  16
ATOM     16  C   UNL     1      46.783   4.712  15.213  0.00  0.00    +0.000 C 
BRANCH  16  17
ATOM     17  N   UNL     1      47.070   3.619  16.165  0.00  0.00    +0.000 N 
ATOM     18  H   UNL     1      46.310   3.414  16.812  0.00  0.00    +0.000 HD
BRANCH  17  22
ATOM     19  C   UNL     1      50.993   3.031  17.598  0.00  0.00    +0.000 A 
ATOM     20  C   UNL     1      50.434   4.310  17.639  0.00  0.00    +0.000 A 
ATOM     21  C   UNL     1      49.124   4.517  17.187  0.00  0.00    +0.000 A 
ATOM     22  C   UNL     1      48.339   3.458  16.716  0.00  0.00    +0.000 A 
ATOM     23  C   UNL     1      48.924   2.185  16.668  0.00  0.00    +0.000 A 
ATOM     24  C   UNL     1      50.238   1.969  17.098  0.00  0.00    +0.000 A 
BRANCH  19  26
ATOM     25  N   UNL     1      52.718   1.490  18.357  0.00  0.00    +0.000 N 
ATOM     26  C   UNL     1      52.392   2.776  18.027  0.00  0.00    +0.000 C 
ATOM     27  O   UNL     1      53.231   3.666  18.052  0.00  0.00    +0.000 OA
ATOM     28  H   UNL     1      53.699   1.312  18.538  0.00  0.00    +0.000 HD
ATOM     29  H   UNL     1      52.136   0.705  18.109  0.00  0.00    +0.000 HD
ENDBRANCH  19  26
ENDBRANCH  17  22
ENDBRANCH  16  17
ENDBRANCH   1  16
TORSDOF 7
ENDMDL
