MODEL 1
REMARK VINA RESULT:    -8.583      0.000      0.000
REMARK INTER + INTRA:         -11.164
REMARK INTER:                 -10.590
REMARK INTRA:                  -0.574
REMARK UNBOUND:                -0.574
REMARK  Name = 
REMARK  4 active torsions:
REMARK  status: ('A' for Active; 'I' for Inactive)
REMARK    1  A    between atoms: C_2  and  C_4
REMARK    2  A    between atoms: N_8  and  C_9
REMARK    3  A    between atoms: C_9  and  C_10
REMARK    4  A    between atoms: C_14  and  C_15
REMARK                            x       y       z     vdW  Elec       q    Type
REMARK                         _______ _______ _______ _____ _____    ______ ____
ROOT
ATOM      1  C   UNL     1      43.733   3.940  10.970  0.00  0.00    +0.000 C 
ENDROOT
BRANCH   1   6
ATOM      2  C   UNL     1      46.658   2.470   7.207  0.00  0.00    +0.000 A 
ATOM      3  C   UNL     1      46.115   3.654   7.638  0.00  0.00    +0.000 A 
ATOM      4  N   UNL     1      45.284   3.750   8.695  0.00  0.00    +0.000 NA
ATOM      5  C   UNL     1      44.997   2.621   9.361  0.00  0.00    +0.000 A 
ATOM      6  N   UNL     1      44.156   2.666  10.444  0.00  0.00    +0.000 N 
ATOM      7  N   UNL     1      45.476   1.417   9.017  0.00  0.00    +0.000 NA
ATOM      8  C   UNL     1      46.277   1.360   7.924  0.00  0.00    +0.000 A 
ATOM      9  H   UNL     1      44.288   1.881  11.064  0.00  0.00    +0.000 HD
BRANCH   2  11
ATOM     10  N   UNL     1      47.423   3.318   5.072  0.00  0.00    +0.000 N 
ATOM     11  C   UNL     1      47.551   2.372   6.051  0.00  0.00    +0.000 C 
ATOM     12  O   UNL     1      48.401   1.491   5.979  0.00  0.00    +0.000 OA
ATOM     13  H   UNL     1      48.107   3.289   4.323  0.00  0.00    +0.000 HD
ATOM     14  H   UNL     1      46.927   4.190   5.203  0.00  0.00    +0.000 HD
ENDBRANCH   2  11
ENDBRANCH   1   6
BRANCH   1  15
ATOM     15  C   UNL     1      44.726   4.550  11.921  0.00  0.00    +0.000 A 
ATOM     16  C   UNL     1      45.064   3.915  13.110  0.00  0.00    +0.000 A 
ATOM     17  N   UNL     1      45.990   4.377  13.976  0.00  0.00    +0.000 NA
ATOM     18  C   UNL     1      46.613   5.532  13.638  0.00  0.00    +0.000 A 
ATOM     19  C   UNL     1      46.359   6.281  12.485  0.00  0.00    +0.000 A 
ATOM     20  C   UNL     1      45.378   5.755  11.628  0.00  0.00    +0.000 A 
BRANCH  19  21
ATOM     21  C   UNL     1      47.088   7.532  12.179  0.00  0.00    +0.000 A 
ATOM     22  C   UNL     1      46.459   8.790  12.267  0.00  0.00    +0.000 A 
ATOM     23  C   UNL     1      47.148   9.978  11.991  0.00  0.00    +0.000 A 
ATOM     24  C   UNL     1      48.483   9.933  11.606  0.00  0.00    +0.000 A 
ATOM     25  C   UNL     1      49.115   8.703  11.508  0.00  0.00    +0.000 A 
ATOM     26  F   UNL     1      50.401   8.652  11.134  0.00  0.00    +0.000 F 
ATOM     27  C   UNL     1      48.440   7.518  11.792  0.00  0.00    +0.000 A 
ENDBRANCH  19  21
ENDBRANCH   1  15
TORSDOF 4
ENDMDL
MODEL 2
REMARK VINA RESULT:    -8.497      4.690      8.066
REMARK INTER + INTRA:         -11.057
REMARK INTER:                 -10.591
REMARK INTRA:                  -0.467
REMARK UNBOUND:                -0.574
REMARK  Name = 
REMARK  4 active torsions:
REMARK  status: ('A' for Active; 'I' for Inactive)
REMARK    1  A    between atoms: C_2  and  C_4
REMARK    2  A    between atoms: N_8  and  C_9
REMARK    3  A    between atoms: C_9  and  C_10
REMARK    4  A    between atoms: C_14  and  C_15
REMARK                            x       y       z     vdW  Elec       q    Type
REMARK                         _______ _______ _______ _____ _____    ______ ____
ROOT
ATOM      1  C   UNL     1      45.654   4.885  13.432  0.00  0.00    +0.000 C 
ENDROOT
BRANCH   1   6
ATOM      2  C   UNL     1      48.494   3.817  17.389  0.00  0.00    +0.000 A 
ATOM      3  C   UNL     1      47.762   4.892  16.955  0.00  0.00    +0.000 A 
ATOM      4  N   UNL     1      47.115   4.922  15.773  0.00  0.00    +0.000 NA
ATOM      5  C   UNL     1      47.186   3.827  15.000  0.00  0.00    +0.000 A 
ATOM      6  N   UNL     1      46.545   3.808  13.788  0.00  0.00    +0.000 N 
ATOM      7  N   UNL     1      47.877   2.729  15.336  0.00  0.00    +0.000 NA
ATOM      8  C   UNL     1      48.545   2.756  16.516  0.00  0.00    +0.000 A 
ATOM      9  H   UNL     1      46.358   2.870  13.468  0.00  0.00    +0.000 HD
BRANCH   2  11
ATOM     10  N   UNL     1      48.502   3.396  19.774  0.00  0.00    +0.000 N 
ATOM     11  C   UNL     1      49.204   3.795  18.671  0.00  0.00    +0.000 C 
ATOM     12  O   UNL     1      50.391   4.095  18.744  0.00  0.00    +0.000 OA
ATOM     13  H   UNL     1      49.030   3.300  20.635  0.00  0.00    +0.000 HD
ATOM     14  H   UNL     1      47.619   2.906  19.724  0.00  0.00    +0.000 HD
ENDBRANCH   2  11
ENDBRANCH   1   6
BRANCH   1  15
ATOM     15  C   UNL     1      44.994   4.692  12.094  0.00  0.00    +0.000 A 
ATOM     16  C   UNL     1      43.757   5.260  11.815  0.00  0.00    +0.000 A 
ATOM     17  N   UNL     1      43.140   5.176  10.617  0.00  0.00    +0.000 NA
ATOM     18  C   UNL     1      43.791   4.491   9.647  0.00  0.00    +0.000 A 
ATOM     19  C   UNL     1      45.029   3.857   9.795  0.00  0.00    +0.000 A 
ATOM     20  C   UNL     1      45.616   3.969  11.066  0.00  0.00    +0.000 A 
BRANCH  19  21
ATOM     21  C   UNL     1      45.683   3.132   8.683  0.00  0.00    +0.000 A 
ATOM     22  C   UNL     1      46.163   3.810   7.544  0.00  0.00    +0.000 A 
ATOM     23  C   UNL     1      46.793   3.130   6.494  0.00  0.00    +0.000 A 
ATOM     24  C   UNL     1      46.948   1.750   6.555  0.00  0.00    +0.000 A 
ATOM     25  C   UNL     1      46.477   1.067   7.665  0.00  0.00    +0.000 A 
ATOM     26  F   UNL     1      46.620  -0.264   7.729  0.00  0.00    +0.000 F 
ATOM     27  C   UNL     1      45.859   1.737   8.718  0.00  0.00    +0.000 A 
ENDBRANCH  19  21
ENDBRANCH   1  15
TORSDOF 4
ENDMDL
MODEL 3
REMARK VINA RESULT:    -8.222      3.665      6.884
REMARK INTER + INTRA:         -10.718
REMARK INTER:                 -10.088
REMARK INTRA:                  -0.631
REMARK UNBOUND:                -0.574
REMARK  Name = 
REMARK  4 active torsions:
REMARK  status: ('A' for Active; 'I' for Inactive)
REMARK    1  A    between atoms: C_2  and  C_4
REMARK    2  A    between atoms: N_8  and  C_9
REMARK    3  A    between atoms: C_9  and  C_10
REMARK    4  A    between atoms: C_14  and  C_15
REMARK                            x       y       z     vdW  Elec       q    Type
REMARK                         _______ _______ _______ _____ _____    ______ ____
ROOT
ATOM      1  C   UNL     1      44.790   5.894  12.822  0.00  0.00    +0.000 C 
ENDROOT
BRANCH   1   6
ATOM      2  C   UNL     1      49.429   7.697  12.513  0.00  0.00    +0.000 A 
ATOM      3  C   UNL     1      48.318   7.676  11.711  0.00  0.00    +0.000 A 
ATOM      4  N   UNL     1      47.174   7.043  12.040  0.00  0.00    +0.000 NA
ATOM      5  C   UNL     1      47.131   6.421  13.228  0.00  0.00    +0.000 A 
ATOM      6  N   UNL     1      45.990   5.762  13.610  0.00  0.00    +0.000 N 
ATOM      7  N   UNL     1      48.165   6.383  14.081  0.00  0.00    +0.000 NA
ATOM      8  C   UNL     1      49.309   6.999  13.693  0.00  0.00    +0.000 A 
ATOM      9  H   UNL     1      45.929   5.651  14.611  0.00  0.00    +0.000 HD
BRANCH   2  11
ATOM     10  N   UNL     1      51.795   8.074  12.863  0.00  0.00    +0.000 N 
ATOM     11  C   UNL     1      50.673   8.377  12.144  0.00  0.00    +0.000 C 
ATOM     12  O   UNL     1      50.710   9.165  11.205  0.00  0.00    +0.000 OA
ATOM     13  H   UNL     1      52.665   8.484  12.538  0.00  0.00    +0.000 HD
ATOM     14  H   UNL     1      51.870   7.262  13.461  0.00  0.00    +0.000 HD
ENDBRANCH   2  11
ENDBRANCH   1   6
BRANCH   1  15
ATOM     15  C   UNL     1      44.473   4.667  12.013  0.00  0.00    +0.000 A 
ATOM     16  C   UNL     1      43.422   3.828  12.362  0.00  0.00    +0.000 A 
ATOM     17  N   UNL     1      43.047   2.747  11.646  0.00  0.00    +0.000 NA
ATOM     18  C   UNL     1      43.758   2.489  10.522  0.00  0.00    +0.000 A 
ATOM     19  C   UNL     1      44.846   3.238  10.063  0.00  0.00    +0.000 A 
ATOM     20  C   UNL     1      45.195   4.343  10.856  0.00  0.00    +0.000 A 
BRANCH  19  21
ATOM     21  C   UNL     1      45.570   2.898   8.817  0.00  0.00    +0.000 A 
ATOM     22  C   UNL     1      45.911   3.886   7.872  0.00  0.00    +0.000 A 
ATOM     23  C   UNL     1      46.605   3.572   6.697  0.00  0.00    +0.000 A 
ATOM     24  C   UNL     1      46.965   2.255   6.435  0.00  0.00    +0.000 A 
ATOM     25  C   UNL     1      46.633   1.270   7.351  0.00  0.00    +0.000 A 
ATOM     26  F   UNL     1      46.974  -0.002   7.103  0.00  0.00    +0.000 F 
ATOM     27  C   UNL     1      45.952   1.576   8.527  0.00  0.00    +0.000 A 
ENDBRANCH  19  21
ENDBRANCH   1  15
TORSDOF 4
ENDMDL
MODEL 4
REMARK VINA RESULT:    -8.175      3.777      6.973
REMARK INTER + INTRA:         -10.661
REMARK INTER:                 -10.375
REMARK INTRA:                  -0.286
REMARK UNBOUND:                -0.574
REMARK  Name = 
REMARK  4 active torsions:
REMARK  status: ('A' for Active; 'I' for Inactive)
REMARK    1  A    between atoms: C_2  and  C_4
REMARK    2  A    between atoms: N_8  and  C_9
REMARK    3  A    between atoms: C_9  and  C_10
REMARK    4  A    between atoms: C_14  and  C_15
REMARK                            x       y       z     vdW  Elec       q    Type
REMARK                         _______ _______ _______ _____ _____    ______ ____
ROOT
ATOM      1  C   UNL     1      43.347   6.397  11.342  0.00  0.00    +0.000 C 
ENDROOT
BRANCH   1   6
ATOM      2  C   UNL     1      47.845   6.910  13.433  0.00  0.00    +0.000 A 
ATOM      3  C   UNL     1      46.693   6.222  13.715  0.00  0.00    +0.000 A 
ATOM      4  N   UNL     1      45.570   6.318  12.977  0.00  0.00    +0.000 NA
ATOM      5  C   UNL     1      45.603   7.120  11.901  0.00  0.00    +0.000 A 
ATOM      6  N   UNL     1      44.485   7.252  11.117  0.00  0.00    +0.000 N 
ATOM      7  N   UNL     1      46.680   7.835  11.544  0.00  0.00    +0.000 NA
ATOM      8  C   UNL     1      47.776   7.738  12.338  0.00  0.00    +0.000 A 
ATOM      9  H   UNL     1      44.708   7.564  10.183  0.00  0.00    +0.000 HD
BRANCH   2  11
ATOM     10  N   UNL     1      50.171   7.470  13.806  0.00  0.00    +0.000 N 
ATOM     11  C   UNL     1      49.059   6.809  14.247  0.00  0.00    +0.000 C 
ATOM     12  O   UNL     1      49.066   6.179  15.300  0.00  0.00    +0.000 OA
ATOM     13  H   UNL     1      50.975   7.465  14.425  0.00  0.00    +0.000 HD
ATOM     14  H   UNL     1      50.145   8.194  13.100  0.00  0.00    +0.000 HD
ENDBRANCH   2  11
ENDBRANCH   1   6
BRANCH   1  15
ATOM     15  C   UNL     1      43.624   4.949  11.046  0.00  0.00    +0.000 A 
ATOM     16  C   UNL     1      43.020   3.937  11.782  0.00  0.00    +0.000 A 
ATOM     17  N   UNL     1      43.179   2.620  11.529  0.00  0.00    +0.000 NA
ATOM     18  C   UNL     1      43.981   2.296  10.487  0.00  0.00    +0.000 A 
ATOM     19  C   UNL     1      44.662   3.209   9.676  0.00  0.00    +0.000 A 
ATOM     20  C   UNL     1      44.467   4.562   9.995  0.00  0.00    +0.000 A 
BRANCH  19  21
ATOM     21  C   UNL     1      45.516   2.777   8.546  0.00  0.00    +0.000 A 
ATOM     22  C   UNL     1      45.929   3.683   7.548  0.00  0.00    +0.000 A 
ATOM     23  C   UNL     1      46.747   3.283   6.484  0.00  0.00    +0.000 A 
ATOM     24  C   UNL     1      47.162   1.959   6.388  0.00  0.00    +0.000 A 
ATOM     25  C   UNL     1      46.760   1.054   7.357  0.00  0.00    +0.000 A 
ATOM     26  F   UNL     1      47.154  -0.224   7.268  0.00  0.00    +0.000 F 
ATOM     27  C   UNL     1      45.956   1.447   8.425  0.00  0.00    +0.000 A 
ENDBRANCH  19  21
ENDBRANCH   1  15
TORSDOF 4
ENDMDL
MODEL 5
REMARK VINA RESULT:    -8.033      2.468      3.558
REMARK INTER + INTRA:         -10.485
REMARK INTER:                 -10.153
REMARK INTRA:                  -0.333
REMARK UNBOUND:                -0.574
REMARK  Name = 
REMARK  4 active torsions:
REMARK  status: ('A' for Active; 'I' for Inactive)
REMARK    1  A    between atoms: C_2  and  C_4
REMARK    2  A    between atoms: N_8  and  C_9
REMARK    3  A    between atoms: C_9  and  C_10
REMARK    4  A    between atoms: C_14  and  C_15
REMARK                            x       y       z     vdW  Elec       q    Type
REMARK                         _______ _______ _______ _____ _____    ______ ____
ROOT
ATOM      1  C   UNL     1      43.650   3.948  10.920  0.00  0.00    +0.000 C 
ENDROOT
BRANCH   1   6
ATOM      2  C   UNL     1      46.615   2.465   7.195  0.00  0.00    +0.000 A 
ATOM      3  C   UNL     1      45.938   3.610   7.527  0.00  0.00    +0.000 A 
ATOM      4  N   UNL     1      45.137   3.713   8.606  0.00  0.00    +0.000 NA
ATOM      5  C   UNL     1      45.022   2.635   9.397  0.00  0.00    +0.000 A 
ATOM      6  N   UNL     1      44.218   2.688  10.508  0.00  0.00    +0.000 N 
ATOM      7  N   UNL     1      45.641   1.470   9.155  0.00  0.00    +0.000 NA
ATOM      8  C   UNL     1      46.406   1.399   8.037  0.00  0.00    +0.000 A 
ATOM      9  H   UNL     1      44.472   1.997  11.197  0.00  0.00    +0.000 HD
BRANCH   2  11
ATOM     10  N   UNL     1      47.322   3.297   5.033  0.00  0.00    +0.000 N 
ATOM     11  C   UNL     1      47.476   2.357   6.014  0.00  0.00    +0.000 C 
ATOM     12  O   UNL     1      48.321   1.474   5.924  0.00  0.00    +0.000 OA
ATOM     13  H   UNL     1      47.984   3.262   4.265  0.00  0.00    +0.000 HD
ATOM     14  H   UNL     1      46.831   4.171   5.172  0.00  0.00    +0.000 HD
ENDBRANCH   2  11
ENDBRANCH   1   6
BRANCH   1  15
ATOM     15  C   UNL     1      44.667   4.902  11.482  0.00  0.00    +0.000 A 
ATOM     16  C   UNL     1      44.879   6.148  10.904  0.00  0.00    +0.000 A 
ATOM     17  N   UNL     1      45.731   7.073  11.394  0.00  0.00    +0.000 NA
ATOM     18  C   UNL     1      46.406   6.739  12.520  0.00  0.00    +0.000 A 
ATOM     19  C   UNL     1      46.302   5.519  13.193  0.00  0.00    +0.000 A 
ATOM     20  C   UNL     1      45.409   4.593  12.630  0.00  0.00    +0.000 A 
BRANCH  19  21
ATOM     21  C   UNL     1      47.069   5.229  14.426  0.00  0.00    +0.000 A 
ATOM     22  C   UNL     1      48.053   6.117  14.906  0.00  0.00    +0.000 A 
ATOM     23  C   UNL     1      48.773   5.854  16.078  0.00  0.00    +0.000 A 
ATOM     24  C   UNL     1      48.531   4.686  16.793  0.00  0.00    +0.000 A 
ATOM     25  C   UNL     1      47.571   3.799  16.332  0.00  0.00    +0.000 A 
ATOM     26  F   UNL     1      47.336   2.670  17.015  0.00  0.00    +0.000 F 
ATOM     27  C   UNL     1      46.843   4.060  15.173  0.00  0.00    +0.000 A 
ENDBRANCH  19  21
ENDBRANCH   1  15
TORSDOF 4
ENDMDL
MODEL 6
REMARK VINA RESULT:    -7.229      4.471      7.826
REMARK INTER + INTRA:          -9.494
REMARK INTER:                  -9.317
REMARK INTRA:                  -0.176
REMARK UNBOUND:                -0.574
REMARK  Name = 
REMARK  4 active torsions:
REMARK  status: ('A' for Active; 'I' for Inactive)
REMARK    1  A    between atoms: C_2  and  C_4
REMARK    2  A    between atoms: N_8  and  C_9
REMARK    3  A    between atoms: C_9  and  C_10
REMARK    4  A    between atoms: C_14  and  C_15
REMARK                            x       y       z     vdW  Elec       q    Type
REMARK                         _______ _______ _______ _____ _____    ______ ____
ROOT
ATOM      1  C   UNL     1      48.772   7.579  13.276  0.00  0.00    +0.000 C 
ENDROOT
BRANCH   1   6
ATOM      2  C   UNL     1      47.904   4.465  17.073  0.00  0.00    +0.000 A 
ATOM      3  C   UNL     1      47.774   4.425  15.709  0.00  0.00    +0.000 A 
ATOM      4  N   UNL     1      48.042   5.474  14.906  0.00  0.00    +0.000 NA
ATOM      5  C   UNL     1      48.475   6.604  15.486  0.00  0.00    +0.000 A 
ATOM      6  N   UNL     1      48.762   7.699  14.712  0.00  0.00    +0.000 N 
ATOM      7  N   UNL     1      48.632   6.741  16.811  0.00  0.00    +0.000 NA
ATOM      8  C   UNL     1      48.313   5.674  17.584  0.00  0.00    +0.000 A 
ATOM      9  H   UNL     1      49.394   8.337  15.171  0.00  0.00    +0.000 HD
BRANCH   2  11
ATOM     10  N   UNL     1      48.368   3.161  19.060  0.00  0.00    +0.000 N 
ATOM     11  C   UNL     1      47.600   3.324  17.941  0.00  0.00    +0.000 C 
ATOM     12  O   UNL     1      46.672   2.564  17.687  0.00  0.00    +0.000 OA
ATOM     13  H   UNL     1      48.088   2.422  19.696  0.00  0.00    +0.000 HD
ATOM     14  H   UNL     1      48.960   3.888  19.439  0.00  0.00    +0.000 HD
ENDBRANCH   2  11
ENDBRANCH   1   6
BRANCH   1  15
ATOM     15  C   UNL     1      47.396   7.464  12.680  0.00  0.00    +0.000 A 
ATOM     16  C   UNL     1      46.475   8.498  12.796  0.00  0.00    +0.000 A 
ATOM     17  N   UNL     1      45.248   8.484  12.233  0.00  0.00    +0.000 NA
ATOM     18  C   UNL     1      44.923   7.381  11.517  0.00  0.00    +0.000 A 
ATOM     19  C   UNL     1      45.744   6.265  11.333  0.00  0.00    +0.000 A 
ATOM     20  C   UNL     1      47.003   6.333  11.951  0.00  0.00    +0.000 A 
BRANCH  19  21
ATOM     21  C   UNL     1      45.321   5.097  10.527  0.00  0.00    +0.000 A 
ATOM     22  C   UNL     1      44.572   4.045  11.092  0.00  0.00    +0.000 A 
ATOM     23  C   UNL     1      44.159   2.944  10.332  0.00  0.00    +0.000 A 
ATOM     24  C   UNL     1      44.498   2.865   8.985  0.00  0.00    +0.000 A 
ATOM     25  C   UNL     1      45.238   3.888   8.415  0.00  0.00    +0.000 A 
ATOM     26  F   UNL     1      45.571   3.816   7.119  0.00  0.00    +0.000 F 
ATOM     27  C   UNL     1      45.643   4.991   9.163  0.00  0.00    +0.000 A 
ENDBRANCH  19  21
ENDBRANCH   1  15
TORSDOF 4
ENDMDL
MODEL 7
REMARK VINA RESULT:    -7.077      4.519      7.999
REMARK INTER + INTRA:          -9.306
REMARK INTER:                  -8.855
REMARK INTRA:                  -0.451
REMARK UNBOUND:                -0.574
REMARK  Name = 
REMARK  4 active torsions:
REMARK  status: ('A' for Active; 'I' for Inactive)
REMARK    1  A    between atoms: C_2  and  C_4
REMARK    2  A    between atoms: N_8  and  C_9
REMARK    3  A    between atoms: C_9  and  C_10
REMARK    4  A    between atoms: C_14  and  C_15
REMARK                            x       y       z     vdW  Elec       q    Type
REMARK                         _______ _______ _______ _____ _____    ______ ____
ROOT
ATOM      1  C   UNL     1      45.823   5.008  13.915  0.00  0.00    +0.000 C 
ENDROOT
BRANCH   1   6
ATOM      2  C   UNL     1      49.986   6.096  16.435  0.00  0.00    +0.000 A 
ATOM      3  C   UNL     1      48.916   5.256  16.604  0.00  0.00    +0.000 A 
ATOM      4  N   UNL     1      47.867   5.209  15.759  0.00  0.00    +0.000 NA
ATOM      5  C   UNL     1      47.896   6.021  14.691  0.00  0.00    +0.000 A 
ATOM      6  N   UNL     1      46.852   6.011  13.801  0.00  0.00    +0.000 N 
ATOM      7  N   UNL     1      48.896   6.878  14.440  0.00  0.00    +0.000 NA
ATOM      8  C   UNL     1      49.912   6.920  15.337  0.00  0.00    +0.000 A 
ATOM      9  H   UNL     1      47.120   6.361  12.893  0.00  0.00    +0.000 HD
BRANCH   2  11
ATOM     10  N   UNL     1      51.265   7.282  18.115  0.00  0.00    +0.000 N 
ATOM     11  C   UNL     1      51.118   6.149  17.364  0.00  0.00    +0.000 C 
ATOM     12  O   UNL     1      51.886   5.201  17.483  0.00  0.00    +0.000 OA
ATOM     13  H   UNL     1      51.998   7.268  18.817  0.00  0.00    +0.000 HD
ATOM     14  H   UNL     1      50.531   7.967  18.238  0.00  0.00    +0.000 HD
ENDBRANCH   2  11
ENDBRANCH   1   6
BRANCH   1  15
ATOM     15  C   UNL     1      45.040   4.813  12.646  0.00  0.00    +0.000 A 
ATOM     16  C   UNL     1      43.748   5.306  12.516  0.00  0.00    +0.000 A 
ATOM     17  N   UNL     1      43.016   5.218  11.385  0.00  0.00    +0.000 NA
ATOM     18  C   UNL     1      43.604   4.607  10.329  0.00  0.00    +0.000 A 
ATOM     19  C   UNL     1      44.887   4.052  10.326  0.00  0.00    +0.000 A 
ATOM     20  C   UNL     1      45.595   4.165  11.534  0.00  0.00    +0.000 A 
BRANCH  19  21
ATOM     21  C   UNL     1      45.466   3.406   9.127  0.00  0.00    +0.000 A 
ATOM     22  C   UNL     1      45.883   4.163   8.013  0.00  0.00    +0.000 A 
ATOM     23  C   UNL     1      46.442   3.558   6.880  0.00  0.00    +0.000 A 
ATOM     24  C   UNL     1      46.586   2.176   6.832  0.00  0.00    +0.000 A 
ATOM     25  C   UNL     1      46.176   1.416   7.915  0.00  0.00    +0.000 A 
ATOM     26  F   UNL     1      46.309   0.084   7.874  0.00  0.00    +0.000 F 
ATOM     27  C   UNL     1      45.629   2.012   9.050  0.00  0.00    +0.000 A 
ENDBRANCH  19  21
ENDBRANCH   1  15
TORSDOF 4
ENDMDL
MODEL 8
REMARK VINA RESULT:    -6.811      5.599      7.480
REMARK INTER + INTRA:          -8.978
REMARK INTER:                  -8.509
REMARK INTRA:                  -0.468
REMARK UNBOUND:                -0.574
REMARK  Name = 
REMARK  4 active torsions:
REMARK  status: ('A' for Active; 'I' for Inactive)
REMARK    1  A    between atoms: C_2  and  C_4
REMARK    2  A    between atoms: N_8  and  C_9
REMARK    3  A    between atoms: C_9  and  C_10
REMARK    4  A    between atoms: C_14  and  C_15
REMARK                            x       y       z     vdW  Elec       q    Type
REMARK                         _______ _______ _______ _____ _____    ______ ____
ROOT
ATOM      1  C   UNL     1      47.125   4.372  15.884  0.00  0.00    +0.000 C 
ENDROOT
BRANCH   1   6
ATOM      2  C   UNL     1      45.028   4.159  11.364  0.00  0.00    +0.000 A 
ATOM      3  C   UNL     1      45.263   3.281  12.391  0.00  0.00    +0.000 A 
ATOM      4  N   UNL     1      45.925   3.613  13.516  0.00  0.00    +0.000 NA
ATOM      5  C   UNL     1      46.356   4.879  13.631  0.00  0.00    +0.000 A 
ATOM      6  N   UNL     1      47.036   5.267  14.757  0.00  0.00    +0.000 N 
ATOM      7  N   UNL     1      46.178   5.809  12.682  0.00  0.00    +0.000 NA
ATOM      8  C   UNL     1      45.540   5.422  11.549  0.00  0.00    +0.000 A 
ATOM      9  H   UNL     1      46.994   6.264  14.905  0.00  0.00    +0.000 HD
BRANCH   2  11
ATOM     10  N   UNL     1      44.187   4.744   9.170  0.00  0.00    +0.000 N 
ATOM     11  C   UNL     1      44.317   3.788  10.138  0.00  0.00    +0.000 C 
ATOM     12  O   UNL     1      43.881   2.653   9.977  0.00  0.00    +0.000 OA
ATOM     13  H   UNL     1      43.773   4.446   8.293  0.00  0.00    +0.000 HD
ATOM     14  H   UNL     1      44.738   5.592   9.148  0.00  0.00    +0.000 HD
ENDBRANCH   2  11
ENDBRANCH   1   6
BRANCH   1  15
ATOM     15  C   UNL     1      48.315   4.640  16.763  0.00  0.00    +0.000 A 
ATOM     16  C   UNL     1      48.383   5.783  17.551  0.00  0.00    +0.000 A 
ATOM     17  N   UNL     1      49.393   6.053  18.405  0.00  0.00    +0.000 NA
ATOM     18  C   UNL     1      50.386   5.135  18.478  0.00  0.00    +0.000 A 
ATOM     19  C   UNL     1      50.453   3.954  17.733  0.00  0.00    +0.000 A 
ATOM     20  C   UNL     1      49.380   3.734  16.854  0.00  0.00    +0.000 A 
BRANCH  19  21
ATOM     21  C   UNL     1      51.570   2.993  17.874  0.00  0.00    +0.000 A 
ATOM     22  C   UNL     1      51.464   1.667  17.407  0.00  0.00    +0.000 A 
ATOM     23  C   UNL     1      52.521   0.757  17.528  0.00  0.00    +0.000 A 
ATOM     24  C   UNL     1      53.710   1.151  18.132  0.00  0.00    +0.000 A 
ATOM     25  C   UNL     1      53.830   2.449  18.602  0.00  0.00    +0.000 A 
ATOM     26  F   UNL     1      54.972   2.835  19.188  0.00  0.00    +0.000 F 
ATOM     27  C   UNL     1      52.786   3.363  18.475  0.00  0.00    +0.000 A 
ENDBRANCH  19  21
ENDBRANCH   1  15
TORSDOF 4
ENDMDL
MODEL 9
REMARK VINA RESULT:    -6.810      4.984      8.527
REMARK INTER + INTRA:          -8.976
REMARK INTER:                  -8.456
REMARK INTRA:                  -0.520
REMARK UNBOUND:                -0.574
REMARK  Name = 
REMARK  4 active torsions:
REMARK  status: ('A' for Active; 'I' for Inactive)
REMARK    1  A    between atoms: C_2  and  C_4
REMARK    2  A    between atoms: N_8  and  C_9
REMARK    3  A    between atoms: C_9  and  C_10
REMARK    4  A    between atoms: C_14  and  C_15
REMARK                            x       y       z     vdW  Elec       q    Type
REMARK                         _______ _______ _______ _____ _____    ______ ____
ROOT
ATOM      1  C   UNL     1      48.080   7.515  14.157  0.00  0.00    +0.000 C 
ENDROOT
BRANCH   1   6
ATOM      2  C   UNL     1      48.834   5.376  18.598  0.00  0.00    +0.000 A 
ATOM      3  C   UNL     1      48.617   6.647  18.134  0.00  0.00    +0.000 A 
ATOM      4  N   UNL     1      48.499   6.952  16.827  0.00  0.00    +0.000 NA
ATOM      5  C   UNL     1      48.581   5.942  15.946  0.00  0.00    +0.000 A 
ATOM      6  N   UNL     1      48.467   6.200  14.604  0.00  0.00    +0.000 N 
ATOM      7  N   UNL     1      48.793   4.667  16.301  0.00  0.00    +0.000 NA
ATOM      8  C   UNL     1      48.945   4.411  17.624  0.00  0.00    +0.000 A 
ATOM      9  H   UNL     1      48.187   5.384  14.080  0.00  0.00    +0.000 HD
BRANCH   2  11
ATOM     10  N   UNL     1      48.531   3.828  20.437  0.00  0.00    +0.000 N 
ATOM     11  C   UNL     1      48.972   5.054  20.021  0.00  0.00    +0.000 C 
ATOM     12  O   UNL     1      49.492   5.844  20.802  0.00  0.00    +0.000 OA
ATOM     13  H   UNL     1      48.716   3.586  21.404  0.00  0.00    +0.000 HD
ATOM     14  H   UNL     1      48.337   3.063  19.804  0.00  0.00    +0.000 HD
ENDBRANCH   2  11
ENDBRANCH   1   6
BRANCH   1  15
ATOM     15  C   UNL     1      46.913   7.500  13.208  0.00  0.00    +0.000 A 
ATOM     16  C   UNL     1      46.112   8.622  13.038  0.00  0.00    +0.000 A 
ATOM     17  N   UNL     1      45.089   8.695  12.159  0.00  0.00    +0.000 NA
ATOM     18  C   UNL     1      44.854   7.590  11.411  0.00  0.00    +0.000 A 
ATOM     19  C   UNL     1      45.569   6.391  11.491  0.00  0.00    +0.000 A 
ATOM     20  C   UNL     1      46.613   6.373  12.430  0.00  0.00    +0.000 A 
BRANCH  19  21
ATOM     21  C   UNL     1      45.258   5.227  10.632  0.00  0.00    +0.000 A 
ATOM     22  C   UNL     1      44.495   4.142  11.110  0.00  0.00    +0.000 A 
ATOM     23  C   UNL     1      44.187   3.044  10.298  0.00  0.00    +0.000 A 
ATOM     24  C   UNL     1      44.648   3.000   8.987  0.00  0.00    +0.000 A 
ATOM     25  C   UNL     1      45.405   4.055   8.502  0.00  0.00    +0.000 A 
ATOM     26  F   UNL     1      45.855   4.017   7.241  0.00  0.00    +0.000 F 
ATOM     27  C   UNL     1      45.705   5.156   9.301  0.00  0.00    +0.000 A 
ENDBRANCH  19  21
ENDBRANCH   1  15
TORSDOF 4
ENDMDL
