MODEL 1
REMARK VINA RESULT:    -7.504      0.000      0.000
REMARK INTER + INTRA:         -11.476
REMARK INTER:                 -10.794
REMARK INTRA:                  -0.682
REMARK UNBOUND:                -0.682
REMARK  Name = 
REMARK  11 active torsions:
REMARK  status: ('A' for Active; 'I' for Inactive)
REMARK    1  A    between atoms: C_1  and  C_2
REMARK    2  A    between atoms: C_2  and  C_3
REMARK    3  A    between atoms: C_2  and  C_4
REMARK    4  A    between atoms: C_2  and  C_5
REMARK    5  A    between atoms: N_7  and  C_8
REMARK    6  A    between atoms: C_8  and  C_9
REMARK    7  A    between atoms: C_12  and  C_13
REMARK    8  A    between atoms: C_13  and  C_14
REMARK    9  A    between atoms: C_14  and  C_15
REMARK   10  A    between atoms: C_15  and  O_17
REMARK   11  A    between atoms: C_23  and  C_24
REMARK                            x       y       z     vdW  Elec       q    Type
REMARK                         _______ _______ _______ _____ _____    ______ ____
ROOT
ATOM      1  C   UNL     1      47.596   7.906  12.839  0.00  0.00    +0.000 A 
ATOM      2  C   UNL     1      46.554   7.665  11.958  0.00  0.00    +0.000 A 
ATOM      3  N   UNL     1      45.917   6.498  12.306  0.00  0.00    +0.000 N 
ATOM      4  C   UNL     1      46.581   5.913  13.366  0.00  0.00    +0.000 A 
ATOM      5  C   UNL     1      46.399   4.677  14.021  0.00  0.00    +0.000 A 
ATOM      6  C   UNL     1      47.170   4.399  15.160  0.00  0.00    +0.000 A 
ATOM      7  C   UNL     1      48.099   5.316  15.645  0.00  0.00    +0.000 A 
ATOM      8  C   UNL     1      48.284   6.529  14.972  0.00  0.00    +0.000 A 
ATOM      9  C   UNL     1      47.559   6.824  13.791  0.00  0.00    +0.000 A 
ENDROOT
BRANCH   7  10
ATOM     10  C   UNL     1      48.863   4.993  16.884  0.00  0.00    +0.000 C 
ATOM     11  N   UNL     1      48.908   5.940  17.871  0.00  0.00    +0.000 N 
ATOM     12  O   UNL     1      49.467   3.934  17.007  0.00  0.00    +0.000 OA
ATOM     13  H   UNL     1      48.618   6.896  17.731  0.00  0.00    +0.000 HD
ATOM     14  H   UNL     1      49.519   5.742  18.650  0.00  0.00    +0.000 HD
ENDBRANCH   7  10
BRANCH   1  16
ATOM     15  C   UNL     1      48.012  10.136  11.781  0.00  0.00    +0.000 C 
ATOM     16  C   UNL     1      48.545   9.109  12.796  0.00  0.00    +0.000 C 
ATOM     17  C   UNL     1      49.969   8.679  12.367  0.00  0.00    +0.000 C 
ATOM     18  C   UNL     1      48.711   9.796  14.167  0.00  0.00    +0.000 C 
ENDBRANCH   1  16
BRANCH   3  19
ATOM     19  C   UNL     1      44.728   6.001  11.606  0.00  0.00    +0.000 C 
BRANCH  19  20
ATOM     20  C   UNL     1      45.092   5.092  10.458  0.00  0.00    +0.000 A 
ATOM     21  C   UNL     1      45.884   5.525   9.396  0.00  0.00    +0.000 A 
ATOM     22  N   UNL     1      46.112   4.782   8.276  0.00  0.00    +0.000 NA
ATOM     23  C   UNL     1      45.475   3.584   8.232  0.00  0.00    +0.000 A 
ATOM     24  C   UNL     1      44.764   3.111   9.329  0.00  0.00    +0.000 A 
ATOM     25  N   UNL     1      44.571   3.840  10.455  0.00  0.00    +0.000 NA
BRANCH  23  26
ATOM     26  C   UNL     1      45.428   2.852   6.914  0.00  0.00    +0.000 C 
BRANCH  26  27
ATOM     27  C   UNL     1      46.682   2.990   6.065  0.00  0.00    +0.000 C 
BRANCH  27  28
ATOM     28  C   UNL     1      47.616   1.832   6.295  0.00  0.00    +0.000 C 
ATOM     29  O   UNL     1      47.500   1.036   7.208  0.00  0.00    +0.000 OA
BRANCH  28  30
ATOM     30  O   UNL     1      48.635   1.791   5.405  0.00  0.00    +0.000 OA
ATOM     31  H   UNL     1      49.345   2.435   5.603  0.00  0.00    +0.000 HD
ENDBRANCH  28  30
ENDBRANCH  27  28
ENDBRANCH  26  27
ENDBRANCH  23  26
ENDBRANCH  19  20
ENDBRANCH   3  19
TORSDOF 8
ENDMDL
MODEL 2
REMARK VINA RESULT:    -6.855      2.016      3.859
REMARK INTER + INTRA:         -10.543
REMARK INTER:                 -10.015
REMARK INTRA:                  -0.529
REMARK UNBOUND:                -0.682
REMARK  Name = 
REMARK  11 active torsions:
REMARK  status: ('A' for Active; 'I' for Inactive)
REMARK    1  A    between atoms: C_1  and  C_2
REMARK    2  A    between atoms: C_2  and  C_3
REMARK    3  A    between atoms: C_2  and  C_4
REMARK    4  A    between atoms: C_2  and  C_5
REMARK    5  A    between atoms: N_7  and  C_8
REMARK    6  A    between atoms: C_8  and  C_9
REMARK    7  A    between atoms: C_12  and  C_13
REMARK    8  A    between atoms: C_13  and  C_14
REMARK    9  A    between atoms: C_14  and  C_15
REMARK   10  A    between atoms: C_15  and  O_17
REMARK   11  A    between atoms: C_23  and  C_24
REMARK                            x       y       z     vdW  Elec       q    Type
REMARK                         _______ _______ _______ _____ _____    ______ ____
ROOT
ATOM      1  C   UNL     1      47.130   5.011  14.868  0.00  0.00    +0.000 A 
ATOM      2  C   UNL     1      45.857   4.729  14.394  0.00  0.00    +0.000 A 
ATOM      3  N   UNL     1      45.598   5.496  13.284  0.00  0.00    +0.000 N 
ATOM      4  C   UNL     1      46.659   6.351  13.061  0.00  0.00    +0.000 A 
ATOM      5  C   UNL     1      46.846   7.395  12.130  0.00  0.00    +0.000 A 
ATOM      6  C   UNL     1      48.097   8.026  12.068  0.00  0.00    +0.000 A 
ATOM      7  C   UNL     1      49.143   7.639  12.902  0.00  0.00    +0.000 A 
ATOM      8  C   UNL     1      48.937   6.618  13.835  0.00  0.00    +0.000 A 
ATOM      9  C   UNL     1      47.673   5.991  13.962  0.00  0.00    +0.000 A 
ENDROOT
BRANCH   7  10
ATOM     10  C   UNL     1      50.468   8.311  12.768  0.00  0.00    +0.000 C 
ATOM     11  N   UNL     1      51.377   7.763  11.905  0.00  0.00    +0.000 N 
ATOM     12  O   UNL     1      50.756   9.299  13.433  0.00  0.00    +0.000 OA
ATOM     13  H   UNL     1      51.273   6.841  11.507  0.00  0.00    +0.000 HD
ATOM     14  H   UNL     1      52.301   8.170  11.913  0.00  0.00    +0.000 HD
ENDBRANCH   7  10
BRANCH   1  16
ATOM     15  C   UNL     1      48.229   2.929  15.721  0.00  0.00    +0.000 C 
ATOM     16  C   UNL     1      47.795   4.361  16.085  0.00  0.00    +0.000 C 
ATOM     17  C   UNL     1      46.818   4.294  17.284  0.00  0.00    +0.000 C 
ATOM     18  C   UNL     1      49.024   5.145  16.592  0.00  0.00    +0.000 C 
ENDBRANCH   1  16
BRANCH   3  19
ATOM     19  C   UNL     1      44.358   5.384  12.511  0.00  0.00    +0.000 C 
BRANCH  19  20
ATOM     20  C   UNL     1      44.559   4.599  11.238  0.00  0.00    +0.000 A 
ATOM     21  C   UNL     1      44.350   3.222  11.180  0.00  0.00    +0.000 A 
ATOM     22  N   UNL     1      44.659   2.460  10.092  0.00  0.00    +0.000 NA
ATOM     23  C   UNL     1      45.235   3.126   9.058  0.00  0.00    +0.000 A 
ATOM     24  C   UNL     1      45.355   4.511   9.079  0.00  0.00    +0.000 A 
ATOM     25  N   UNL     1      45.012   5.268  10.149  0.00  0.00    +0.000 NA
BRANCH  23  26
ATOM     26  C   UNL     1      45.880   2.315   7.962  0.00  0.00    +0.000 C 
BRANCH  26  27
ATOM     27  C   UNL     1      46.654   3.131   6.939  0.00  0.00    +0.000 C 
BRANCH  27  28
ATOM     28  C   UNL     1      47.786   2.327   6.357  0.00  0.00    +0.000 C 
ATOM     29  O   UNL     1      48.282   1.358   6.901  0.00  0.00    +0.000 OA
BRANCH  28  30
ATOM     30  O   UNL     1      48.234   2.822   5.179  0.00  0.00    +0.000 OA
ATOM     31  H   UNL     1      48.536   2.126   4.560  0.00  0.00    +0.000 HD
ENDBRANCH  28  30
ENDBRANCH  27  28
ENDBRANCH  26  27
ENDBRANCH  23  26
ENDBRANCH  19  20
ENDBRANCH   3  19
TORSDOF 8
ENDMDL
MODEL 3
REMARK VINA RESULT:    -6.758      2.612      3.667
REMARK INTER + INTRA:         -10.404
REMARK INTER:                  -9.816
REMARK INTRA:                  -0.587
REMARK UNBOUND:                -0.682
REMARK  Name = 
REMARK  11 active torsions:
REMARK  status: ('A' for Active; 'I' for Inactive)
REMARK    1  A    between atoms: C_1  and  C_2
REMARK    2  A    between atoms: C_2  and  C_3
REMARK    3  A    between atoms: C_2  and  C_4
REMARK    4  A    between atoms: C_2  and  C_5
REMARK    5  A    between atoms: N_7  and  C_8
REMARK    6  A    between atoms: C_8  and  C_9
REMARK    7  A    between atoms: C_12  and  C_13
REMARK    8  A    between atoms: C_13  and  C_14
REMARK    9  A    between atoms: C_14  and  C_15
REMARK   10  A    between atoms: C_15  and  O_17
REMARK   11  A    between atoms: C_23  and  C_24
REMARK                            x       y       z     vdW  Elec       q    Type
REMARK                         _______ _______ _______ _____ _____    ______ ____
ROOT
ATOM      1  C   UNL     1      44.104   9.212  11.082  0.00  0.00    +0.000 A 
ATOM      2  C   UNL     1      43.204   8.172  10.908  0.00  0.00    +0.000 A 
ATOM      3  N   UNL     1      43.654   7.056  11.571  0.00  0.00    +0.000 N 
ATOM      4  C   UNL     1      44.894   7.319  12.120  0.00  0.00    +0.000 A 
ATOM      5  C   UNL     1      45.815   6.494  12.799  0.00  0.00    +0.000 A 
ATOM      6  C   UNL     1      46.965   7.080  13.350  0.00  0.00    +0.000 A 
ATOM      7  C   UNL     1      47.204   8.448  13.236  0.00  0.00    +0.000 A 
ATOM      8  C   UNL     1      46.293   9.250  12.541  0.00  0.00    +0.000 A 
ATOM      9  C   UNL     1      45.145   8.686  11.929  0.00  0.00    +0.000 A 
ENDROOT
BRANCH   7  10
ATOM     10  C   UNL     1      48.419   9.030  13.875  0.00  0.00    +0.000 C 
ATOM     11  N   UNL     1      48.427  10.376  14.122  0.00  0.00    +0.000 N 
ATOM     12  O   UNL     1      49.398   8.342  14.138  0.00  0.00    +0.000 OA
ATOM     13  H   UNL     1      47.748  11.012  13.730  0.00  0.00    +0.000 HD
ATOM     14  H   UNL     1      49.298  10.763  14.453  0.00  0.00    +0.000 HD
ENDBRANCH   7  10
BRANCH   1  16
ATOM     15  C   UNL     1      43.035  11.451  11.416  0.00  0.00    +0.000 C 
ATOM     16  C   UNL     1      43.962  10.624  10.506  0.00  0.00    +0.000 C 
ATOM     17  C   UNL     1      43.357  10.586   9.082  0.00  0.00    +0.000 C 
ATOM     18  C   UNL     1      45.313  11.358  10.366  0.00  0.00    +0.000 C 
ENDBRANCH   1  16
BRANCH   3  19
ATOM     19  C   UNL     1      42.892   5.806  11.634  0.00  0.00    +0.000 C 
BRANCH  19  20
ATOM     20  C   UNL     1      43.521   4.722  10.793  0.00  0.00    +0.000 A 
ATOM     21  C   UNL     1      44.049   3.562  11.358  0.00  0.00    +0.000 A 
ATOM     22  N   UNL     1      44.750   2.633  10.650  0.00  0.00    +0.000 NA
ATOM     23  C   UNL     1      44.949   2.927   9.339  0.00  0.00    +0.000 A 
ATOM     24  C   UNL     1      44.342   4.032   8.755  0.00  0.00    +0.000 A 
ATOM     25  N   UNL     1      43.614   4.934   9.457  0.00  0.00    +0.000 NA
BRANCH  23  26
ATOM     26  C   UNL     1      45.964   2.114   8.574  0.00  0.00    +0.000 C 
BRANCH  26  27
ATOM     27  C   UNL     1      46.526   2.798   7.338  0.00  0.00    +0.000 C 
BRANCH  27  28
ATOM     28  C   UNL     1      47.592   1.952   6.694  0.00  0.00    +0.000 C 
ATOM     29  O   UNL     1      47.470   0.763   6.466  0.00  0.00    +0.000 OA
BRANCH  28  30
ATOM     30  O   UNL     1      48.728   2.641   6.437  0.00  0.00    +0.000 OA
ATOM     31  H   UNL     1      49.202   2.920   7.247  0.00  0.00    +0.000 HD
ENDBRANCH  28  30
ENDBRANCH  27  28
ENDBRANCH  26  27
ENDBRANCH  23  26
ENDBRANCH  19  20
ENDBRANCH   3  19
TORSDOF 8
ENDMDL
MODEL 4
REMARK VINA RESULT:    -6.547      3.170      7.813
REMARK INTER + INTRA:         -10.100
REMARK INTER:                  -9.318
REMARK INTRA:                  -0.782
REMARK UNBOUND:                -0.682
REMARK  Name = 
REMARK  11 active torsions:
REMARK  status: ('A' for Active; 'I' for Inactive)
REMARK    1  A    between atoms: C_1  and  C_2
REMARK    2  A    between atoms: C_2  and  C_3
REMARK    3  A    between atoms: C_2  and  C_4
REMARK    4  A    between atoms: C_2  and  C_5
REMARK    5  A    between atoms: N_7  and  C_8
REMARK    6  A    between atoms: C_8  and  C_9
REMARK    7  A    between atoms: C_12  and  C_13
REMARK    8  A    between atoms: C_13  and  C_14
REMARK    9  A    between atoms: C_14  and  C_15
REMARK   10  A    between atoms: C_15  and  O_17
REMARK   11  A    between atoms: C_23  and  C_24
REMARK                            x       y       z     vdW  Elec       q    Type
REMARK                         _______ _______ _______ _____ _____    ______ ____
ROOT
ATOM      1  C   UNL     1      48.254   7.081  13.487  0.00  0.00    +0.000 A 
ATOM      2  C   UNL     1      48.366   6.648  14.800  0.00  0.00    +0.000 A 
ATOM      3  N   UNL     1      47.488   5.615  15.021  0.00  0.00    +0.000 N 
ATOM      4  C   UNL     1      46.728   5.409  13.886  0.00  0.00    +0.000 A 
ATOM      5  C   UNL     1      45.636   4.554  13.628  0.00  0.00    +0.000 A 
ATOM      6  C   UNL     1      45.131   4.482  12.321  0.00  0.00    +0.000 A 
ATOM      7  C   UNL     1      45.689   5.233  11.289  0.00  0.00    +0.000 A 
ATOM      8  C   UNL     1      46.757   6.093  11.564  0.00  0.00    +0.000 A 
ATOM      9  C   UNL     1      47.262   6.229  12.881  0.00  0.00    +0.000 A 
ENDROOT
BRANCH   7  10
ATOM     10  C   UNL     1      45.145   5.089   9.908  0.00  0.00    +0.000 C 
ATOM     11  N   UNL     1      43.810   4.818   9.773  0.00  0.00    +0.000 N 
ATOM     12  O   UNL     1      45.868   5.170   8.922  0.00  0.00    +0.000 OA
ATOM     13  H   UNL     1      43.226   4.528  10.543  0.00  0.00    +0.000 HD
ATOM     14  H   UNL     1      43.489   4.617   8.837  0.00  0.00    +0.000 HD
ENDBRANCH   7  10
BRANCH   1  16
ATOM     15  C   UNL     1      49.934   8.885  13.924  0.00  0.00    +0.000 C 
ATOM     16  C   UNL     1      49.065   8.211  12.846  0.00  0.00    +0.000 C 
ATOM     17  C   UNL     1      48.135   9.278  12.219  0.00  0.00    +0.000 C 
ATOM     18  C   UNL     1      49.975   7.725  11.698  0.00  0.00    +0.000 C 
ENDBRANCH   1  16
BRANCH   3  19
ATOM     19  C   UNL     1      47.410   4.895  16.295  0.00  0.00    +0.000 C 
BRANCH  19  20
ATOM     20  C   UNL     1      48.559   3.931  16.467  0.00  0.00    +0.000 A 
ATOM     21  C   UNL     1      48.490   2.614  16.017  0.00  0.00    +0.000 A 
ATOM     22  N   UNL     1      49.446   1.678  16.281  0.00  0.00    +0.000 NA
ATOM     23  C   UNL     1      50.473   2.099  17.064  0.00  0.00    +0.000 A 
ATOM     24  C   UNL     1      50.590   3.434  17.432  0.00  0.00    +0.000 A 
ATOM     25  N   UNL     1      49.655   4.369  17.135  0.00  0.00    +0.000 NA
BRANCH  23  26
ATOM     26  C   UNL     1      51.393   1.058  17.649  0.00  0.00    +0.000 C 
BRANCH  26  27
ATOM     27  C   UNL     1      52.875   1.340  17.460  0.00  0.00    +0.000 C 
BRANCH  27  28
ATOM     28  C   UNL     1      53.713   0.268  18.105  0.00  0.00    +0.000 C 
ATOM     29  O   UNL     1      54.192   0.358  19.220  0.00  0.00    +0.000 OA
BRANCH  28  30
ATOM     30  O   UNL     1      53.923  -0.796  17.296  0.00  0.00    +0.000 OA
ATOM     31  H   UNL     1      54.792  -1.224  17.440  0.00  0.00    +0.000 HD
ENDBRANCH  28  30
ENDBRANCH  27  28
ENDBRANCH  26  27
ENDBRANCH  23  26
ENDBRANCH  19  20
ENDBRANCH   3  19
TORSDOF 8
ENDMDL
MODEL 5
REMARK VINA RESULT:    -6.361      3.977      8.478
REMARK INTER + INTRA:          -9.832
REMARK INTER:                  -8.987
REMARK INTRA:                  -0.845
REMARK UNBOUND:                -0.682
REMARK  Name = 
REMARK  11 active torsions:
REMARK  status: ('A' for Active; 'I' for Inactive)
REMARK    1  A    between atoms: C_1  and  C_2
REMARK    2  A    between atoms: C_2  and  C_3
REMARK    3  A    between atoms: C_2  and  C_4
REMARK    4  A    between atoms: C_2  and  C_5
REMARK    5  A    between atoms: N_7  and  C_8
REMARK    6  A    between atoms: C_8  and  C_9
REMARK    7  A    between atoms: C_12  and  C_13
REMARK    8  A    between atoms: C_13  and  C_14
REMARK    9  A    between atoms: C_14  and  C_15
REMARK   10  A    between atoms: C_15  and  O_17
REMARK   11  A    between atoms: C_23  and  C_24
REMARK                            x       y       z     vdW  Elec       q    Type
REMARK                         _______ _______ _______ _____ _____    ______ ____
ROOT
ATOM      1  C   UNL     1      44.960   4.556  12.438  0.00  0.00    +0.000 A 
ATOM      2  C   UNL     1      45.712   3.617  13.126  0.00  0.00    +0.000 A 
ATOM      3  N   UNL     1      46.751   4.242  13.771  0.00  0.00    +0.000 N 
ATOM      4  C   UNL     1      46.749   5.585  13.449  0.00  0.00    +0.000 A 
ATOM      5  C   UNL     1      47.647   6.628  13.758  0.00  0.00    +0.000 A 
ATOM      6  C   UNL     1      47.316   7.937  13.379  0.00  0.00    +0.000 A 
ATOM      7  C   UNL     1      46.126   8.216  12.711  0.00  0.00    +0.000 A 
ATOM      8  C   UNL     1      45.255   7.169  12.391  0.00  0.00    +0.000 A 
ATOM      9  C   UNL     1      45.578   5.828  12.714  0.00  0.00    +0.000 A 
ENDROOT
BRANCH   7  10
ATOM     10  C   UNL     1      45.798   9.630  12.367  0.00  0.00    +0.000 C 
ATOM     11  N   UNL     1      44.495  10.029  12.485  0.00  0.00    +0.000 N 
ATOM     12  O   UNL     1      46.653  10.404  11.953  0.00  0.00    +0.000 OA
ATOM     13  H   UNL     1      43.729   9.383  12.607  0.00  0.00    +0.000 HD
ATOM     14  H   UNL     1      44.280  10.955  12.144  0.00  0.00    +0.000 HD
ENDBRANCH   7  10
BRANCH   1  16
ATOM     15  C   UNL     1      43.289   2.798  11.817  0.00  0.00    +0.000 C 
ATOM     16  C   UNL     1      43.712   4.262  11.598  0.00  0.00    +0.000 C 
ATOM     17  C   UNL     1      43.991   4.479  10.091  0.00  0.00    +0.000 C 
ATOM     18  C   UNL     1      42.523   5.185  11.940  0.00  0.00    +0.000 C 
ENDBRANCH   1  16
BRANCH   3  19
ATOM     19  C   UNL     1      47.693   3.530  14.640  0.00  0.00    +0.000 C 
BRANCH  19  20
ATOM     20  C   UNL     1      47.805   4.179  15.998  0.00  0.00    +0.000 A 
ATOM     21  C   UNL     1      46.765   4.134  16.925  0.00  0.00    +0.000 A 
ATOM     22  N   UNL     1      46.773   4.828  18.099  0.00  0.00    +0.000 NA
ATOM     23  C   UNL     1      47.859   5.618  18.301  0.00  0.00    +0.000 A 
ATOM     24  C   UNL     1      48.937   5.589  17.424  0.00  0.00    +0.000 A 
ATOM     25  N   UNL     1      48.938   4.869  16.276  0.00  0.00    +0.000 NA
BRANCH  23  26
ATOM     26  C   UNL     1      47.799   6.638  19.411  0.00  0.00    +0.000 C 
BRANCH  26  27
ATOM     27  C   UNL     1      48.621   7.893  19.167  0.00  0.00    +0.000 C 
BRANCH  27  28
ATOM     28  C   UNL     1      47.773   8.983  18.567  0.00  0.00    +0.000 C 
ATOM     29  O   UNL     1      47.257   9.875  19.212  0.00  0.00    +0.000 OA
BRANCH  28  30
ATOM     30  O   UNL     1      47.600   8.842  17.232  0.00  0.00    +0.000 OA
ATOM     31  H   UNL     1      46.752   8.412  16.997  0.00  0.00    +0.000 HD
ENDBRANCH  28  30
ENDBRANCH  27  28
ENDBRANCH  26  27
ENDBRANCH  23  26
ENDBRANCH  19  20
ENDBRANCH   3  19
TORSDOF 8
ENDMDL
MODEL 6
REMARK VINA RESULT:    -6.357      3.577      7.922
REMARK INTER + INTRA:          -9.827
REMARK INTER:                  -9.776
REMARK INTRA:                  -0.051
REMARK UNBOUND:                -0.682
REMARK  Name = 
REMARK  11 active torsions:
REMARK  status: ('A' for Active; 'I' for Inactive)
REMARK    1  A    between atoms: C_1  and  C_2
REMARK    2  A    between atoms: C_2  and  C_3
REMARK    3  A    between atoms: C_2  and  C_4
REMARK    4  A    between atoms: C_2  and  C_5
REMARK    5  A    between atoms: N_7  and  C_8
REMARK    6  A    between atoms: C_8  and  C_9
REMARK    7  A    between atoms: C_12  and  C_13
REMARK    8  A    between atoms: C_13  and  C_14
REMARK    9  A    between atoms: C_14  and  C_15
REMARK   10  A    between atoms: C_15  and  O_17
REMARK   11  A    between atoms: C_23  and  C_24
REMARK                            x       y       z     vdW  Elec       q    Type
REMARK                         _______ _______ _______ _____ _____    ______ ____
ROOT
ATOM      1  C   UNL     1      45.154   5.787  11.614  0.00  0.00    +0.000 A 
ATOM      2  C   UNL     1      46.406   5.528  12.149  0.00  0.00    +0.000 A 
ATOM      3  N   UNL     1      47.028   6.712  12.462  0.00  0.00    +0.000 N 
ATOM      4  C   UNL     1      46.232   7.767  12.060  0.00  0.00    +0.000 A 
ATOM      5  C   UNL     1      46.450   9.161  12.057  0.00  0.00    +0.000 A 
ATOM      6  C   UNL     1      45.394  10.007  11.687  0.00  0.00    +0.000 A 
ATOM      7  C   UNL     1      44.150   9.494  11.328  0.00  0.00    +0.000 A 
ATOM      8  C   UNL     1      43.955   8.109  11.315  0.00  0.00    +0.000 A 
ATOM      9  C   UNL     1      45.012   7.221  11.635  0.00  0.00    +0.000 A 
ENDROOT
BRANCH   7  10
ATOM     10  C   UNL     1      43.046  10.435  10.984  0.00  0.00    +0.000 C 
ATOM     11  N   UNL     1      42.384  11.047  12.014  0.00  0.00    +0.000 N 
ATOM     12  O   UNL     1      42.708  10.632   9.823  0.00  0.00    +0.000 OA
ATOM     13  H   UNL     1      42.475  10.757  12.977  0.00  0.00    +0.000 HD
ATOM     14  H   UNL     1      41.573  11.593  11.762  0.00  0.00    +0.000 HD
ENDBRANCH   7  10
BRANCH   1  16
ATOM     15  C   UNL     1      42.734   5.148  11.595  0.00  0.00    +0.000 C 
ATOM     16  C   UNL     1      44.146   4.733  11.145  0.00  0.00    +0.000 C 
ATOM     17  C   UNL     1      44.472   3.344  11.746  0.00  0.00    +0.000 C 
ATOM     18  C   UNL     1      44.148   4.535   9.614  0.00  0.00    +0.000 C 
ENDBRANCH   1  16
BRANCH   3  19
ATOM     19  C   UNL     1      48.343   6.775  13.107  0.00  0.00    +0.000 C 
BRANCH  19  20
ATOM     20  C   UNL     1      48.306   6.226  14.512  0.00  0.00    +0.000 A 
ATOM     21  C   UNL     1      49.112   6.740  15.527  0.00  0.00    +0.000 A 
ATOM     22  N   UNL     1      49.211   6.178  16.765  0.00  0.00    +0.000 NA
ATOM     23  C   UNL     1      48.498   5.037  16.947  0.00  0.00    +0.000 A 
ATOM     24  C   UNL     1      47.621   4.579  15.970  0.00  0.00    +0.000 A 
ATOM     25  N   UNL     1      47.499   5.163  14.753  0.00  0.00    +0.000 NA
BRANCH  23  26
ATOM     26  C   UNL     1      48.794   4.200  18.166  0.00  0.00    +0.000 C 
BRANCH  26  27
ATOM     27  C   UNL     1      48.682   2.700  17.950  0.00  0.00    +0.000 C 
BRANCH  27  28
ATOM     28  C   UNL     1      49.854   2.182  17.159  0.00  0.00    +0.000 C 
ATOM     29  O   UNL     1      49.782   1.806  16.004  0.00  0.00    +0.000 OA
BRANCH  28  30
ATOM     30  O   UNL     1      50.997   2.130  17.882  0.00  0.00    +0.000 OA
ATOM     31  H   UNL     1      51.710   1.625  17.439  0.00  0.00    +0.000 HD
ENDBRANCH  28  30
ENDBRANCH  27  28
ENDBRANCH  26  27
ENDBRANCH  23  26
ENDBRANCH  19  20
ENDBRANCH   3  19
TORSDOF 8
ENDMDL
MODEL 7
REMARK VINA RESULT:    -6.278      4.184      6.803
REMARK INTER + INTRA:          -9.713
REMARK INTER:                  -8.907
REMARK INTRA:                  -0.807
REMARK UNBOUND:                -0.682
REMARK  Name = 
REMARK  11 active torsions:
REMARK  status: ('A' for Active; 'I' for Inactive)
REMARK    1  A    between atoms: C_1  and  C_2
REMARK    2  A    between atoms: C_2  and  C_3
REMARK    3  A    between atoms: C_2  and  C_4
REMARK    4  A    between atoms: C_2  and  C_5
REMARK    5  A    between atoms: N_7  and  C_8
REMARK    6  A    between atoms: C_8  and  C_9
REMARK    7  A    between atoms: C_12  and  C_13
REMARK    8  A    between atoms: C_13  and  C_14
REMARK    9  A    between atoms: C_14  and  C_15
REMARK   10  A    between atoms: C_15  and  O_17
REMARK   11  A    between atoms: C_23  and  C_24
REMARK                            x       y       z     vdW  Elec       q    Type
REMARK                         _______ _______ _______ _____ _____    ______ ____
ROOT
ATOM      1  C   UNL     1      51.682   5.393  17.800  0.00  0.00    +0.000 A 
ATOM      2  C   UNL     1      50.357   5.735  17.580  0.00  0.00    +0.000 A 
ATOM      3  N   UNL     1      49.612   4.596  17.392  0.00  0.00    +0.000 N 
ATOM      4  C   UNL     1      50.447   3.496  17.402  0.00  0.00    +0.000 A 
ATOM      5  C   UNL     1      50.203   2.128  17.154  0.00  0.00    +0.000 A 
ATOM      6  C   UNL     1      51.248   1.212  17.351  0.00  0.00    +0.000 A 
ATOM      7  C   UNL     1      52.504   1.630  17.783  0.00  0.00    +0.000 A 
ATOM      8  C   UNL     1      52.737   2.992  18.003  0.00  0.00    +0.000 A 
ATOM      9  C   UNL     1      51.722   3.952  17.768  0.00  0.00    +0.000 A 
ENDROOT
BRANCH   7  10
ATOM     10  C   UNL     1      53.569   0.613  18.019  0.00  0.00    +0.000 C 
ATOM     11  N   UNL     1      53.799  -0.310  17.036  0.00  0.00    +0.000 N 
ATOM     12  O   UNL     1      54.195   0.573  19.071  0.00  0.00    +0.000 OA
ATOM     13  H   UNL     1      53.172  -0.453  16.257  0.00  0.00    +0.000 HD
ATOM     14  H   UNL     1      54.445  -1.051  17.263  0.00  0.00    +0.000 HD
ENDBRANCH   7  10
BRANCH   1  16
ATOM     15  C   UNL     1      53.341   6.189  19.498  0.00  0.00    +0.000 C 
ATOM     16  C   UNL     1      52.829   6.376  18.058  0.00  0.00    +0.000 C 
ATOM     17  C   UNL     1      52.357   7.840  17.883  0.00  0.00    +0.000 C 
ATOM     18  C   UNL     1      54.008   6.198  17.078  0.00  0.00    +0.000 C 
ENDBRANCH   1  16
BRANCH   3  19
ATOM     19  C   UNL     1      48.159   4.617  17.201  0.00  0.00    +0.000 C 
BRANCH  19  20
ATOM     20  C   UNL     1      47.786   4.791  15.749  0.00  0.00    +0.000 A 
ATOM     21  C   UNL     1      47.920   6.014  15.093  0.00  0.00    +0.000 A 
ATOM     22  N   UNL     1      47.461   6.244  13.830  0.00  0.00    +0.000 NA
ATOM     23  C   UNL     1      46.810   5.204  13.248  0.00  0.00    +0.000 A 
ATOM     24  C   UNL     1      46.761   3.958  13.862  0.00  0.00    +0.000 A 
ATOM     25  N   UNL     1      47.253   3.724  15.103  0.00  0.00    +0.000 NA
BRANCH  23  26
ATOM     26  C   UNL     1      46.015   5.476  11.996  0.00  0.00    +0.000 C 
BRANCH  26  27
ATOM     27  C   UNL     1      44.798   6.365  12.196  0.00  0.00    +0.000 C 
BRANCH  27  28
ATOM     28  C   UNL     1      43.530   5.553  12.178  0.00  0.00    +0.000 C 
ATOM     29  O   UNL     1      43.103   4.981  11.193  0.00  0.00    +0.000 OA
BRANCH  28  30
ATOM     30  O   UNL     1      42.881   5.563  13.365  0.00  0.00    +0.000 OA
ATOM     31  H   UNL     1      41.907   5.512  13.272  0.00  0.00    +0.000 HD
ENDBRANCH  28  30
ENDBRANCH  27  28
ENDBRANCH  26  27
ENDBRANCH  23  26
ENDBRANCH  19  20
ENDBRANCH   3  19
TORSDOF 8
ENDMDL
MODEL 8
REMARK VINA RESULT:    -6.100      3.903      8.067
REMARK INTER + INTRA:          -9.456
REMARK INTER:                  -8.654
REMARK INTRA:                  -0.802
REMARK UNBOUND:                -0.682
REMARK  Name = 
REMARK  11 active torsions:
REMARK  status: ('A' for Active; 'I' for Inactive)
REMARK    1  A    between atoms: C_1  and  C_2
REMARK    2  A    between atoms: C_2  and  C_3
REMARK    3  A    between atoms: C_2  and  C_4
REMARK    4  A    between atoms: C_2  and  C_5
REMARK    5  A    between atoms: N_7  and  C_8
REMARK    6  A    between atoms: C_8  and  C_9
REMARK    7  A    between atoms: C_12  and  C_13
REMARK    8  A    between atoms: C_13  and  C_14
REMARK    9  A    between atoms: C_14  and  C_15
REMARK   10  A    between atoms: C_15  and  O_17
REMARK   11  A    between atoms: C_23  and  C_24
REMARK                            x       y       z     vdW  Elec       q    Type
REMARK                         _______ _______ _______ _____ _____    ______ ____
ROOT
ATOM      1  C   UNL     1      46.126   6.307  12.780  0.00  0.00    +0.000 A 
ATOM      2  C   UNL     1      47.287   6.570  13.490  0.00  0.00    +0.000 A 
ATOM      3  N   UNL     1      47.542   7.920  13.473  0.00  0.00    +0.000 N 
ATOM      4  C   UNL     1      46.602   8.553  12.683  0.00  0.00    +0.000 A 
ATOM      5  C   UNL     1      46.478   9.894  12.261  0.00  0.00    +0.000 A 
ATOM      6  C   UNL     1      45.334  10.270  11.541  0.00  0.00    +0.000 A 
ATOM      7  C   UNL     1      44.333   9.349  11.242  0.00  0.00    +0.000 A 
ATOM      8  C   UNL     1      44.481   8.018  11.647  0.00  0.00    +0.000 A 
ATOM      9  C   UNL     1      45.644   7.590  12.333  0.00  0.00    +0.000 A 
ENDROOT
BRANCH   7  10
ATOM     10  C   UNL     1      43.117   9.806  10.511  0.00  0.00    +0.000 C 
ATOM     11  N   UNL     1      41.901   9.363  10.956  0.00  0.00    +0.000 N 
ATOM     12  O   UNL     1      43.195  10.523   9.521  0.00  0.00    +0.000 OA
ATOM     13  H   UNL     1      41.798   8.609  11.619  0.00  0.00    +0.000 HD
ATOM     14  H   UNL     1      41.104   9.597  10.382  0.00  0.00    +0.000 HD
ENDBRANCH   7  10
BRANCH   1  16
ATOM     15  C   UNL     1      44.114   4.890  13.239  0.00  0.00    +0.000 C 
ATOM     16  C   UNL     1      45.500   4.924  12.570  0.00  0.00    +0.000 C 
ATOM     17  C   UNL     1      46.381   3.814  13.193  0.00  0.00    +0.000 C 
ATOM     18  C   UNL     1      45.349   4.549  11.080  0.00  0.00    +0.000 C 
ENDBRANCH   1  16
BRANCH   3  19
ATOM     19  C   UNL     1      48.665   8.528  14.192  0.00  0.00    +0.000 C 
BRANCH  19  20
ATOM     20  C   UNL     1      49.117   7.675  15.352  0.00  0.00    +0.000 A 
ATOM     21  C   UNL     1      50.312   6.958  15.320  0.00  0.00    +0.000 A 
ATOM     22  N   UNL     1      50.681   6.068  16.284  0.00  0.00    +0.000 NA
ATOM     23  C   UNL     1      49.778   5.881  17.281  0.00  0.00    +0.000 A 
ATOM     24  C   UNL     1      48.633   6.665  17.364  0.00  0.00    +0.000 A 
ATOM     25  N   UNL     1      48.289   7.575  16.421  0.00  0.00    +0.000 NA
BRANCH  23  26
ATOM     26  C   UNL     1      49.972   4.704  18.204  0.00  0.00    +0.000 C 
BRANCH  26  27
ATOM     27  C   UNL     1      50.543   3.462  17.538  0.00  0.00    +0.000 C 
BRANCH  27  28
ATOM     28  C   UNL     1      49.441   2.566  17.038  0.00  0.00    +0.000 C 
ATOM     29  O   UNL     1      49.586   1.736  16.160  0.00  0.00    +0.000 OA
BRANCH  28  30
ATOM     30  O   UNL     1      48.251   2.811  17.633  0.00  0.00    +0.000 OA
ATOM     31  H   UNL     1      48.296   3.518  18.308  0.00  0.00    +0.000 HD
ENDBRANCH  28  30
ENDBRANCH  27  28
ENDBRANCH  26  27
ENDBRANCH  23  26
ENDBRANCH  19  20
ENDBRANCH   3  19
TORSDOF 8
ENDMDL
MODEL 9
REMARK VINA RESULT:    -6.015      3.906      5.645
REMARK INTER + INTRA:          -9.335
REMARK INTER:                  -8.383
REMARK INTRA:                  -0.951
REMARK UNBOUND:                -0.682
REMARK  Name = 
REMARK  11 active torsions:
REMARK  status: ('A' for Active; 'I' for Inactive)
REMARK    1  A    between atoms: C_1  and  C_2
REMARK    2  A    between atoms: C_2  and  C_3
REMARK    3  A    between atoms: C_2  and  C_4
REMARK    4  A    between atoms: C_2  and  C_5
REMARK    5  A    between atoms: N_7  and  C_8
REMARK    6  A    between atoms: C_8  and  C_9
REMARK    7  A    between atoms: C_12  and  C_13
REMARK    8  A    between atoms: C_13  and  C_14
REMARK    9  A    between atoms: C_14  and  C_15
REMARK   10  A    between atoms: C_15  and  O_17
REMARK   11  A    between atoms: C_23  and  C_24
REMARK                            x       y       z     vdW  Elec       q    Type
REMARK                         _______ _______ _______ _____ _____    ______ ____
ROOT
ATOM      1  C   UNL     1      48.274   9.107  17.817  0.00  0.00    +0.000 A 
ATOM      2  C   UNL     1      48.416   9.394  16.468  0.00  0.00    +0.000 A 
ATOM      3  N   UNL     1      48.775   8.255  15.790  0.00  0.00    +0.000 N 
ATOM      4  C   UNL     1      48.957   7.224  16.691  0.00  0.00    +0.000 A 
ATOM      5  C   UNL     1      49.419   5.901  16.525  0.00  0.00    +0.000 A 
ATOM      6  C   UNL     1      49.389   5.034  17.628  0.00  0.00    +0.000 A 
ATOM      7  C   UNL     1      48.913   5.457  18.866  0.00  0.00    +0.000 A 
ATOM      8  C   UNL     1      48.479   6.778  19.021  0.00  0.00    +0.000 A 
ATOM      9  C   UNL     1      48.540   7.696  17.944  0.00  0.00    +0.000 A 
ENDROOT
BRANCH   7  10
ATOM     10  C   UNL     1      48.861   4.486  19.997  0.00  0.00    +0.000 C 
ATOM     11  N   UNL     1      48.321   3.252  19.754  0.00  0.00    +0.000 N 
ATOM     12  O   UNL     1      49.249   4.787  21.119  0.00  0.00    +0.000 OA
ATOM     13  H   UNL     1      47.796   3.036  18.920  0.00  0.00    +0.000 HD
ATOM     14  H   UNL     1      48.198   2.654  20.557  0.00  0.00    +0.000 HD
ENDBRANCH   7  10
BRANCH   1  16
ATOM     15  C   UNL     1      47.471  11.439  18.249  0.00  0.00    +0.000 C 
ATOM     16  C   UNL     1      47.877  10.108  18.907  0.00  0.00    +0.000 C 
ATOM     17  C   UNL     1      49.055  10.371  19.877  0.00  0.00    +0.000 C 
ATOM     18  C   UNL     1      46.714   9.608  19.791  0.00  0.00    +0.000 C 
ENDBRANCH   1  16
BRANCH   3  19
ATOM     19  C   UNL     1      48.939   8.213  14.334  0.00  0.00    +0.000 C 
BRANCH  19  20
ATOM     20  C   UNL     1      47.723   7.640  13.648  0.00  0.00    +0.000 A 
ATOM     21  C   UNL     1      47.652   6.300  13.272  0.00  0.00    +0.000 A 
ATOM     22  N   UNL     1      46.635   5.781  12.525  0.00  0.00    +0.000 NA
ATOM     23  C   UNL     1      45.696   6.674  12.120  0.00  0.00    +0.000 A 
ATOM     24  C   UNL     1      45.716   7.988  12.574  0.00  0.00    +0.000 A 
ATOM     25  N   UNL     1      46.710   8.489  13.347  0.00  0.00    +0.000 NA
BRANCH  23  26
ATOM     26  C   UNL     1      44.724   6.246  11.049  0.00  0.00    +0.000 C 
BRANCH  26  27
ATOM     27  C   UNL     1      43.957   4.971  11.359  0.00  0.00    +0.000 C 
BRANCH  27  28
ATOM     28  C   UNL     1      42.818   5.245  12.305  0.00  0.00    +0.000 C 
ATOM     29  O   UNL     1      42.680   4.696  13.381  0.00  0.00    +0.000 OA
BRANCH  28  30
ATOM     30  O   UNL     1      41.927   6.138  11.813  0.00  0.00    +0.000 OA
ATOM     31  H   UNL     1      41.310   6.480  12.492  0.00  0.00    +0.000 HD
ENDBRANCH  28  30
ENDBRANCH  27  28
ENDBRANCH  26  27
ENDBRANCH  23  26
ENDBRANCH  19  20
ENDBRANCH   3  19
TORSDOF 8
ENDMDL
