MODEL 1
REMARK VINA RESULT:    -8.317      0.000      0.000
REMARK INTER + INTRA:         -12.823
REMARK INTER:                 -11.721
REMARK INTRA:                  -1.102
REMARK UNBOUND:                -1.102
REMARK  Name = 
REMARK  7 active torsions:
REMARK  status: ('A' for Active; 'I' for Inactive)
REMARK    1  A    between atoms: C_2  and  C_3
REMARK    2  A    between atoms: C_5  and  C_6
REMARK    3  A    between atoms: C_11  and  N_12
REMARK    4  A    between atoms: N_12  and  C_13
REMARK    5  A    between atoms: C_13  and  C_14
REMARK    6  A    between atoms: C_17  and  O_18
REMARK    7  A    between atoms: O_18  and  C_19
REMARK                            x       y       z     vdW  Elec       q    Type
REMARK                         _______ _______ _______ _____ _____    ______ ____
ROOT
ATOM      1  N   UNL     1      43.884   5.159   9.699  0.00  0.00    +0.000 N 
ATOM      2  H   UNL     1      43.143   5.394   9.040  0.00  0.00    +0.000 HD
ENDROOT
BRANCH   1   8
ATOM      3  C   UNL     1      44.531   2.740   9.681  0.00  0.00    +0.000 A 
ATOM      4  C   UNL     1      45.329   1.775   9.038  0.00  0.00    +0.000 A 
ATOM      5  C   UNL     1      46.180   2.130   7.998  0.00  0.00    +0.000 A 
ATOM      6  C   UNL     1      46.162   3.452   7.605  0.00  0.00    +0.000 A 
ATOM      7  N   UNL     1      45.364   4.391   8.173  0.00  0.00    +0.000 NA
ATOM      8  C   UNL     1      44.555   4.051   9.216  0.00  0.00    +0.000 A 
BRANCH   5   9
ATOM      9  C   UNL     1      47.056   1.087   7.420  0.00  0.00    +0.000 C 
ATOM     10  N   UNL     1      46.776  -0.227   7.644  0.00  0.00    +0.000 N 
ATOM     11  O   UNL     1      48.019   1.399   6.729  0.00  0.00    +0.000 OA
ATOM     12  H   UNL     1      46.004  -0.596   8.178  0.00  0.00    +0.000 HD
ATOM     13  H   UNL     1      47.394  -0.894   7.193  0.00  0.00    +0.000 HD
ENDBRANCH   5   9
BRANCH   3  15
ATOM     14  N   UNL     1      43.110   1.964  11.700  0.00  0.00    +0.000 NA
ATOM     15  C   UNL     1      43.780   2.262  10.795  0.00  0.00    +0.000 C 
ENDBRANCH   3  15
ENDBRANCH   1   8
BRANCH   1  16
ATOM     16  C   UNL     1      43.847   5.789  11.014  0.00  0.00    +0.000 C 
ATOM     17  C   UNL     1      42.562   5.507  11.793  0.00  0.00    +0.000 C 
ATOM     18  C   UNL     1      42.890   6.902  11.388  0.00  0.00    +0.000 C 
BRANCH  16  19
ATOM     19  C   UNL     1      45.167   5.751  11.766  0.00  0.00    +0.000 A 
ATOM     20  C   UNL     1      46.227   6.580  11.373  0.00  0.00    +0.000 A 
ATOM     21  C   UNL     1      47.427   6.641  12.077  0.00  0.00    +0.000 A 
ATOM     22  C   UNL     1      47.581   5.902  13.240  0.00  0.00    +0.000 A 
ATOM     23  C   UNL     1      46.571   5.016  13.618  0.00  0.00    +0.000 A 
ATOM     24  C   UNL     1      45.380   4.937  12.888  0.00  0.00    +0.000 A 
BRANCH  22  25
ATOM     25  O   UNL     1      48.667   5.935  14.054  0.00  0.00    +0.000 OA
BRANCH  25  26
ATOM     26  C   UNL     1      48.817   7.021  14.963  0.00  0.00    +0.000 C 
ATOM     27  F   UNL     1      47.922   8.018  14.812  0.00  0.00    +0.000 F 
ATOM     28  F   UNL     1      48.683   6.546  16.222  0.00  0.00    +0.000 F 
ATOM     29  F   UNL     1      50.060   7.533  14.838  0.00  0.00    +0.000 F 
ENDBRANCH  25  26
ENDBRANCH  22  25
ENDBRANCH  16  19
ENDBRANCH   1  16
TORSDOF 7
ENDMDL
MODEL 2
REMARK VINA RESULT:    -7.756      4.406      6.893
REMARK INTER + INTRA:         -12.032
REMARK INTER:                 -11.046
REMARK INTRA:                  -0.986
REMARK UNBOUND:                -1.102
REMARK  Name = 
REMARK  7 active torsions:
REMARK  status: ('A' for Active; 'I' for Inactive)
REMARK    1  A    between atoms: C_2  and  C_3
REMARK    2  A    between atoms: C_5  and  C_6
REMARK    3  A    between atoms: C_11  and  N_12
REMARK    4  A    between atoms: N_12  and  C_13
REMARK    5  A    between atoms: C_13  and  C_14
REMARK    6  A    between atoms: C_17  and  O_18
REMARK    7  A    between atoms: O_18  and  C_19
REMARK                            x       y       z     vdW  Elec       q    Type
REMARK                         _______ _______ _______ _____ _____    ______ ____
ROOT
ATOM      1  N   UNL     1      44.814   5.903  12.235  0.00  0.00    +0.000 N 
ATOM      2  H   UNL     1      44.221   6.729  12.313  0.00  0.00    +0.000 HD
ENDROOT
BRANCH   1   8
ATOM      3  C   UNL     1      47.164   5.628  13.058  0.00  0.00    +0.000 A 
ATOM      4  C   UNL     1      48.423   6.250  13.146  0.00  0.00    +0.000 A 
ATOM      5  C   UNL     1      48.620   7.539  12.664  0.00  0.00    +0.000 A 
ATOM      6  C   UNL     1      47.539   8.147  12.059  0.00  0.00    +0.000 A 
ATOM      7  N   UNL     1      46.330   7.550  11.914  0.00  0.00    +0.000 NA
ATOM      8  C   UNL     1      46.127   6.299  12.417  0.00  0.00    +0.000 A 
BRANCH   5   9
ATOM      9  C   UNL     1      49.943   8.170  12.864  0.00  0.00    +0.000 C 
ATOM     10  N   UNL     1      50.777   7.693  13.829  0.00  0.00    +0.000 N 
ATOM     11  O   UNL     1      50.298   9.105  12.155  0.00  0.00    +0.000 OA
ATOM     12  H   UNL     1      50.598   6.921  14.454  0.00  0.00    +0.000 HD
ATOM     13  H   UNL     1      51.684   8.145  13.894  0.00  0.00    +0.000 HD
ENDBRANCH   5   9
BRANCH   3  15
ATOM     14  N   UNL     1      47.098   3.282  14.146  0.00  0.00    +0.000 NA
ATOM     15  C   UNL     1      47.073   4.349  13.678  0.00  0.00    +0.000 C 
ENDBRANCH   3  15
ENDBRANCH   1   8
BRANCH   1  16
ATOM     16  C   UNL     1      44.222   4.692  11.682  0.00  0.00    +0.000 C 
ATOM     17  C   UNL     1      42.705   4.615  11.857  0.00  0.00    +0.000 C 
ATOM     18  C   UNL     1      43.577   3.609  12.523  0.00  0.00    +0.000 C 
BRANCH  16  19
ATOM     19  C   UNL     1      44.815   4.252  10.353  0.00  0.00    +0.000 A 
ATOM     20  C   UNL     1      44.677   2.924   9.925  0.00  0.00    +0.000 A 
ATOM     21  C   UNL     1      45.132   2.490   8.682  0.00  0.00    +0.000 A 
ATOM     22  C   UNL     1      45.699   3.399   7.801  0.00  0.00    +0.000 A 
ATOM     23  C   UNL     1      45.913   4.711   8.226  0.00  0.00    +0.000 A 
ATOM     24  C   UNL     1      45.481   5.132   9.489  0.00  0.00    +0.000 A 
BRANCH  22  25
ATOM     25  O   UNL     1      46.108   3.118   6.537  0.00  0.00    +0.000 OA
BRANCH  25  26
ATOM     26  C   UNL     1      47.260   2.302   6.349  0.00  0.00    +0.000 C 
ATOM     27  F   UNL     1      48.267   2.529   7.217  0.00  0.00    +0.000 F 
ATOM     28  F   UNL     1      46.893   1.008   6.485  0.00  0.00    +0.000 F 
ATOM     29  F   UNL     1      47.724   2.477   5.093  0.00  0.00    +0.000 F 
ENDBRANCH  25  26
ENDBRANCH  22  25
ENDBRANCH  16  19
ENDBRANCH   1  16
TORSDOF 7
ENDMDL
MODEL 3
REMARK VINA RESULT:    -7.660      1.670      2.219
REMARK INTER + INTRA:         -11.897
REMARK INTER:                 -10.529
REMARK INTRA:                  -1.367
REMARK UNBOUND:                -1.102
REMARK  Name = 
REMARK  7 active torsions:
REMARK  status: ('A' for Active; 'I' for Inactive)
REMARK    1  A    between atoms: C_2  and  C_3
REMARK    2  A    between atoms: C_5  and  C_6
REMARK    3  A    between atoms: C_11  and  N_12
REMARK    4  A    between atoms: N_12  and  C_13
REMARK    5  A    between atoms: C_13  and  C_14
REMARK    6  A    between atoms: C_17  and  O_18
REMARK    7  A    between atoms: O_18  and  C_19
REMARK                            x       y       z     vdW  Elec       q    Type
REMARK                         _______ _______ _______ _____ _____    ______ ____
ROOT
ATOM      1  N   UNL     1      44.333   5.521  10.096  0.00  0.00    +0.000 N 
ATOM      2  H   UNL     1      43.328   5.485   9.922  0.00  0.00    +0.000 HD
ENDROOT
BRANCH   1   8
ATOM      3  C   UNL     1      44.752   3.093   9.647  0.00  0.00    +0.000 A 
ATOM      4  C   UNL     1      45.489   2.187   8.861  0.00  0.00    +0.000 A 
ATOM      5  C   UNL     1      46.423   2.639   7.935  0.00  0.00    +0.000 A 
ATOM      6  C   UNL     1      46.547   4.006   7.796  0.00  0.00    +0.000 A 
ATOM      7  N   UNL     1      45.812   4.900   8.503  0.00  0.00    +0.000 NA
ATOM      8  C   UNL     1      44.921   4.458   9.436  0.00  0.00    +0.000 A 
BRANCH   5   9
ATOM      9  C   UNL     1      47.227   1.637   7.201  0.00  0.00    +0.000 C 
ATOM     10  N   UNL     1      48.308   2.041   6.477  0.00  0.00    +0.000 N 
ATOM     11  O   UNL     1      46.936   0.448   7.257  0.00  0.00    +0.000 OA
ATOM     12  H   UNL     1      48.648   2.985   6.377  0.00  0.00    +0.000 HD
ATOM     13  H   UNL     1      48.838   1.303   6.025  0.00  0.00    +0.000 HD
ENDBRANCH   5   9
BRANCH   3  15
ATOM     14  N   UNL     1      43.169   2.109  11.441  0.00  0.00    +0.000 NA
ATOM     15  C   UNL     1      43.904   2.498  10.625  0.00  0.00    +0.000 C 
ENDBRANCH   3  15
ENDBRANCH   1   8
BRANCH   1  16
ATOM     16  C   UNL     1      44.807   6.404  11.154  0.00  0.00    +0.000 C 
ATOM     17  C   UNL     1      43.797   7.479  11.555  0.00  0.00    +0.000 C 
ATOM     18  C   UNL     1      45.099   7.877  10.955  0.00  0.00    +0.000 C 
BRANCH  16  19
ATOM     19  C   UNL     1      45.586   5.703  12.255  0.00  0.00    +0.000 A 
ATOM     20  C   UNL     1      44.962   4.733  13.053  0.00  0.00    +0.000 A 
ATOM     21  C   UNL     1      45.652   4.007  14.020  0.00  0.00    +0.000 A 
ATOM     22  C   UNL     1      47.016   4.198  14.181  0.00  0.00    +0.000 A 
ATOM     23  C   UNL     1      47.651   5.205  13.452  0.00  0.00    +0.000 A 
ATOM     24  C   UNL     1      46.943   5.952  12.503  0.00  0.00    +0.000 A 
BRANCH  22  25
ATOM     25  O   UNL     1      47.813   3.500  15.031  0.00  0.00    +0.000 OA
BRANCH  25  26
ATOM     26  C   UNL     1      47.825   3.850  16.412  0.00  0.00    +0.000 C 
ATOM     27  F   UNL     1      47.577   5.150  16.672  0.00  0.00    +0.000 F 
ATOM     28  F   UNL     1      46.876   3.123  17.044  0.00  0.00    +0.000 F 
ATOM     29  F   UNL     1      49.024   3.524  16.939  0.00  0.00    +0.000 F 
ENDBRANCH  25  26
ENDBRANCH  22  25
ENDBRANCH  16  19
ENDBRANCH   1  16
TORSDOF 7
ENDMDL
MODEL 4
REMARK VINA RESULT:    -7.415      4.582      7.578
REMARK INTER + INTRA:         -11.552
REMARK INTER:                 -11.025
REMARK INTRA:                  -0.527
REMARK UNBOUND:                -1.102
REMARK  Name = 
REMARK  7 active torsions:
REMARK  status: ('A' for Active; 'I' for Inactive)
REMARK    1  A    between atoms: C_2  and  C_3
REMARK    2  A    between atoms: C_5  and  C_6
REMARK    3  A    between atoms: C_11  and  N_12
REMARK    4  A    between atoms: N_12  and  C_13
REMARK    5  A    between atoms: C_13  and  C_14
REMARK    6  A    between atoms: C_17  and  O_18
REMARK    7  A    between atoms: O_18  and  C_19
REMARK                            x       y       z     vdW  Elec       q    Type
REMARK                         _______ _______ _______ _____ _____    ______ ____
ROOT
ATOM      1  N   UNL     1      46.016   3.835  13.144  0.00  0.00    +0.000 N 
ATOM      2  H   UNL     1      46.283   2.852  13.198  0.00  0.00    +0.000 HD
ENDROOT
BRANCH   1   8
ATOM      3  C   UNL     1      47.501   5.703  13.902  0.00  0.00    +0.000 A 
ATOM      4  C   UNL     1      48.216   6.222  14.998  0.00  0.00    +0.000 A 
ATOM      5  C   UNL     1      48.244   5.550  16.215  0.00  0.00    +0.000 A 
ATOM      6  C   UNL     1      47.504   4.390  16.301  0.00  0.00    +0.000 A 
ATOM      7  N   UNL     1      46.765   3.896  15.276  0.00  0.00    +0.000 NA
ATOM      8  C   UNL     1      46.764   4.535  14.072  0.00  0.00    +0.000 A 
BRANCH   5   9
ATOM      9  C   UNL     1      49.082   6.102  17.302  0.00  0.00    +0.000 C 
ATOM     10  N   UNL     1      50.319   5.578  17.531  0.00  0.00    +0.000 N 
ATOM     11  O   UNL     1      48.677   7.036  17.985  0.00  0.00    +0.000 OA
ATOM     12  H   UNL     1      50.759   4.826  17.022  0.00  0.00    +0.000 HD
ATOM     13  H   UNL     1      50.858   6.022  18.268  0.00  0.00    +0.000 HD
ENDBRANCH   5   9
BRANCH   3  15
ATOM     14  N   UNL     1      47.654   7.084  11.719  0.00  0.00    +0.000 NA
ATOM     15  C   UNL     1      47.637   6.436  12.687  0.00  0.00    +0.000 C 
ENDBRANCH   3  15
ENDBRANCH   1   8
BRANCH   1  16
ATOM     16  C   UNL     1      44.803   4.168  12.407  0.00  0.00    +0.000 C 
ATOM     17  C   UNL     1      44.099   5.424  12.919  0.00  0.00    +0.000 C 
ATOM     18  C   UNL     1      43.411   4.107  13.002  0.00  0.00    +0.000 C 
BRANCH  16  19
ATOM     19  C   UNL     1      44.905   3.963  10.904  0.00  0.00    +0.000 A 
ATOM     20  C   UNL     1      45.427   4.976  10.088  0.00  0.00    +0.000 A 
ATOM     21  C   UNL     1      45.615   4.807   8.718  0.00  0.00    +0.000 A 
ATOM     22  C   UNL     1      45.330   3.585   8.130  0.00  0.00    +0.000 A 
ATOM     23  C   UNL     1      44.743   2.581   8.902  0.00  0.00    +0.000 A 
ATOM     24  C   UNL     1      44.529   2.769  10.272  0.00  0.00    +0.000 A 
BRANCH  22  25
ATOM     25  O   UNL     1      45.542   3.271   6.825  0.00  0.00    +0.000 OA
BRANCH  25  26
ATOM     26  C   UNL     1      46.804   2.734   6.441  0.00  0.00    +0.000 C 
ATOM     27  F   UNL     1      47.843   3.111   7.213  0.00  0.00    +0.000 F 
ATOM     28  F   UNL     1      46.728   1.385   6.496  0.00  0.00    +0.000 F 
ATOM     29  F   UNL     1      47.063   3.087   5.163  0.00  0.00    +0.000 F 
ENDBRANCH  25  26
ENDBRANCH  22  25
ENDBRANCH  16  19
ENDBRANCH   1  16
TORSDOF 7
ENDMDL
MODEL 5
REMARK VINA RESULT:    -7.317      4.429      7.358
REMARK INTER + INTRA:         -11.413
REMARK INTER:                 -10.624
REMARK INTRA:                  -0.789
REMARK UNBOUND:                -1.102
REMARK  Name = 
REMARK  7 active torsions:
REMARK  status: ('A' for Active; 'I' for Inactive)
REMARK    1  A    between atoms: C_2  and  C_3
REMARK    2  A    between atoms: C_5  and  C_6
REMARK    3  A    between atoms: C_11  and  N_12
REMARK    4  A    between atoms: N_12  and  C_13
REMARK    5  A    between atoms: C_13  and  C_14
REMARK    6  A    between atoms: C_17  and  O_18
REMARK    7  A    between atoms: O_18  and  C_19
REMARK                            x       y       z     vdW  Elec       q    Type
REMARK                         _______ _______ _______ _____ _____    ______ ____
ROOT
ATOM      1  N   UNL     1      44.593   6.201  11.869  0.00  0.00    +0.000 N 
ATOM      2  H   UNL     1      44.183   6.981  11.356  0.00  0.00    +0.000 HD
ENDROOT
BRANCH   1   8
ATOM      3  C   UNL     1      46.030   7.990  12.871  0.00  0.00    +0.000 A 
ATOM      4  C   UNL     1      47.214   8.234  13.592  0.00  0.00    +0.000 A 
ATOM      5  C   UNL     1      48.060   7.191  13.951  0.00  0.00    +0.000 A 
ATOM      6  C   UNL     1      47.655   5.918  13.609  0.00  0.00    +0.000 A 
ATOM      7  N   UNL     1      46.494   5.651  12.961  0.00  0.00    +0.000 NA
ATOM      8  C   UNL     1      45.680   6.676  12.578  0.00  0.00    +0.000 A 
BRANCH   5   9
ATOM      9  C   UNL     1      49.332   7.521  14.632  0.00  0.00    +0.000 C 
ATOM     10  N   UNL     1      49.771   8.810  14.651  0.00  0.00    +0.000 N 
ATOM     11  O   UNL     1      49.980   6.645  15.193  0.00  0.00    +0.000 OA
ATOM     12  H   UNL     1      49.311   9.610  14.241  0.00  0.00    +0.000 HD
ATOM     13  H   UNL     1      50.631   8.978  15.163  0.00  0.00    +0.000 HD
ENDBRANCH   5   9
BRANCH   3  15
ATOM     14  N   UNL     1      44.668  10.104  12.260  0.00  0.00    +0.000 NA
ATOM     15  C   UNL     1      45.306   9.154  12.481  0.00  0.00    +0.000 C 
ENDBRANCH   3  15
ENDBRANCH   1   8
BRANCH   1  16
ATOM     16  C   UNL     1      44.169   4.854  11.505  0.00  0.00    +0.000 C 
ATOM     17  C   UNL     1      42.686   4.587  11.760  0.00  0.00    +0.000 C 
ATOM     18  C   UNL     1      43.715   3.814  12.509  0.00  0.00    +0.000 C 
BRANCH  16  19
ATOM     19  C   UNL     1      44.783   4.328  10.218  0.00  0.00    +0.000 A 
ATOM     20  C   UNL     1      44.561   3.002   9.821  0.00  0.00    +0.000 A 
ATOM     21  C   UNL     1      45.034   2.496   8.613  0.00  0.00    +0.000 A 
ATOM     22  C   UNL     1      45.707   3.330   7.734  0.00  0.00    +0.000 A 
ATOM     23  C   UNL     1      46.005   4.635   8.130  0.00  0.00    +0.000 A 
ATOM     24  C   UNL     1      45.553   5.127   9.360  0.00  0.00    +0.000 A 
BRANCH  22  25
ATOM     25  O   UNL     1      46.148   2.979   6.497  0.00  0.00    +0.000 OA
BRANCH  25  26
ATOM     26  C   UNL     1      47.238   2.070   6.385  0.00  0.00    +0.000 C 
ATOM     27  F   UNL     1      46.897   0.765   6.423  0.00  0.00    +0.000 F 
ATOM     28  F   UNL     1      47.858   2.292   5.204  0.00  0.00    +0.000 F 
ATOM     29  F   UNL     1      48.121   2.315   7.376  0.00  0.00    +0.000 F 
ENDBRANCH  25  26
ENDBRANCH  22  25
ENDBRANCH  16  19
ENDBRANCH   1  16
TORSDOF 7
ENDMDL
MODEL 6
REMARK VINA RESULT:    -7.257      4.503      7.234
REMARK INTER + INTRA:         -11.329
REMARK INTER:                 -10.971
REMARK INTRA:                  -0.358
REMARK UNBOUND:                -1.102
REMARK  Name = 
REMARK  7 active torsions:
REMARK  status: ('A' for Active; 'I' for Inactive)
REMARK    1  A    between atoms: C_2  and  C_3
REMARK    2  A    between atoms: C_5  and  C_6
REMARK    3  A    between atoms: C_11  and  N_12
REMARK    4  A    between atoms: N_12  and  C_13
REMARK    5  A    between atoms: C_13  and  C_14
REMARK    6  A    between atoms: C_17  and  O_18
REMARK    7  A    between atoms: O_18  and  C_19
REMARK                            x       y       z     vdW  Elec       q    Type
REMARK                         _______ _______ _______ _____ _____    ______ ____
ROOT
ATOM      1  N   UNL     1      45.920   3.989  13.265  0.00  0.00    +0.000 N 
ATOM      2  H   UNL     1      46.011   3.077  13.712  0.00  0.00    +0.000 HD
ENDROOT
BRANCH   1   8
ATOM      3  C   UNL     1      47.418   4.862  15.072  0.00  0.00    +0.000 A 
ATOM      4  C   UNL     1      48.395   5.827  15.380  0.00  0.00    +0.000 A 
ATOM      5  C   UNL     1      48.787   6.772  14.438  0.00  0.00    +0.000 A 
ATOM      6  C   UNL     1      48.210   6.679  13.189  0.00  0.00    +0.000 A 
ATOM      7  N   UNL     1      47.306   5.726  12.851  0.00  0.00    +0.000 NA
ATOM      8  C   UNL     1      46.895   4.821  13.784  0.00  0.00    +0.000 A 
BRANCH   5   9
ATOM      9  C   UNL     1      49.755   7.813  14.848  0.00  0.00    +0.000 C 
ATOM     10  N   UNL     1      51.086   7.618  14.635  0.00  0.00    +0.000 N 
ATOM     11  O   UNL     1      49.364   8.855  15.363  0.00  0.00    +0.000 OA
ATOM     12  H   UNL     1      51.516   6.812  14.205  0.00  0.00    +0.000 HD
ATOM     13  H   UNL     1      51.695   8.382  14.907  0.00  0.00    +0.000 HD
ENDBRANCH   5   9
BRANCH   3  15
ATOM     14  N   UNL     1      46.732   3.417  17.106  0.00  0.00    +0.000 NA
ATOM     15  C   UNL     1      47.036   4.019  16.156  0.00  0.00    +0.000 C 
ENDBRANCH   3  15
ENDBRANCH   1   8
BRANCH   1  16
ATOM     16  C   UNL     1      44.702   4.255  12.509  0.00  0.00    +0.000 C 
ATOM     17  C   UNL     1      43.929   5.479  13.000  0.00  0.00    +0.000 C 
ATOM     18  C   UNL     1      43.308   4.129  13.086  0.00  0.00    +0.000 C 
BRANCH  16  19
ATOM     19  C   UNL     1      44.835   4.042  11.010  0.00  0.00    +0.000 A 
ATOM     20  C   UNL     1      45.390   5.045  10.201  0.00  0.00    +0.000 A 
ATOM     21  C   UNL     1      45.606   4.868   8.838  0.00  0.00    +0.000 A 
ATOM     22  C   UNL     1      45.317   3.648   8.247  0.00  0.00    +0.000 A 
ATOM     23  C   UNL     1      44.699   2.655   9.010  0.00  0.00    +0.000 A 
ATOM     24  C   UNL     1      44.456   2.852  10.374  0.00  0.00    +0.000 A 
BRANCH  22  25
ATOM     25  O   UNL     1      45.554   3.326   6.949  0.00  0.00    +0.000 OA
BRANCH  25  26
ATOM     26  C   UNL     1      46.748   2.623   6.618  0.00  0.00    +0.000 C 
ATOM     27  F   UNL     1      46.723   1.301   6.886  0.00  0.00    +0.000 F 
ATOM     28  F   UNL     1      46.972   2.763   5.292  0.00  0.00    +0.000 F 
ATOM     29  F   UNL     1      47.785   3.179   7.280  0.00  0.00    +0.000 F 
ENDBRANCH  25  26
ENDBRANCH  22  25
ENDBRANCH  16  19
ENDBRANCH   1  16
TORSDOF 7
ENDMDL
MODEL 7
REMARK VINA RESULT:    -6.356      5.301      7.859
REMARK INTER + INTRA:         -10.059
REMARK INTER:                  -9.440
REMARK INTRA:                  -0.619
REMARK UNBOUND:                -1.102
REMARK  Name = 
REMARK  7 active torsions:
REMARK  status: ('A' for Active; 'I' for Inactive)
REMARK    1  A    between atoms: C_2  and  C_3
REMARK    2  A    between atoms: C_5  and  C_6
REMARK    3  A    between atoms: C_11  and  N_12
REMARK    4  A    between atoms: N_12  and  C_13
REMARK    5  A    between atoms: C_13  and  C_14
REMARK    6  A    between atoms: C_17  and  O_18
REMARK    7  A    between atoms: O_18  and  C_19
REMARK                            x       y       z     vdW  Elec       q    Type
REMARK                         _______ _______ _______ _____ _____    ______ ____
ROOT
ATOM      1  N   UNL     1      46.916   5.263  15.072  0.00  0.00    +0.000 N 
ATOM      2  H   UNL     1      46.147   5.504  15.697  0.00  0.00    +0.000 HD
ENDROOT
BRANCH   1   8
ATOM      3  C   UNL     1      48.861   5.206  16.649  0.00  0.00    +0.000 A 
ATOM      4  C   UNL     1      49.785   4.363  17.293  0.00  0.00    +0.000 A 
ATOM      5  C   UNL     1      49.786   2.992  17.060  0.00  0.00    +0.000 A 
ATOM      6  C   UNL     1      48.812   2.507  16.212  0.00  0.00    +0.000 A 
ATOM      7  N   UNL     1      47.877   3.291  15.619  0.00  0.00    +0.000 NA
ATOM      8  C   UNL     1      47.898   4.640  15.820  0.00  0.00    +0.000 A 
BRANCH   5   9
ATOM      9  C   UNL     1      50.836   2.170  17.700  0.00  0.00    +0.000 C 
ATOM     10  N   UNL     1      51.738   2.761  18.534  0.00  0.00    +0.000 N 
ATOM     11  O   UNL     1      50.888   0.962  17.499  0.00  0.00    +0.000 OA
ATOM     12  H   UNL     1      51.777   3.737  18.785  0.00  0.00    +0.000 HD
ATOM     13  H   UNL     1      52.412   2.139  18.969  0.00  0.00    +0.000 HD
ENDBRANCH   5   9
BRANCH   3  15
ATOM     14  N   UNL     1      49.188   7.750  16.996  0.00  0.00    +0.000 NA
ATOM     15  C   UNL     1      49.034   6.599  16.898  0.00  0.00    +0.000 C 
ENDBRANCH   3  15
ENDBRANCH   1   8
BRANCH   1  16
ATOM     16  C   UNL     1      46.927   5.867  13.745  0.00  0.00    +0.000 C 
ATOM     17  C   UNL     1      48.310   6.339  13.297  0.00  0.00    +0.000 C 
ATOM     18  C   UNL     1      47.218   7.331  13.488  0.00  0.00    +0.000 C 
BRANCH  16  19
ATOM     19  C   UNL     1      46.043   5.164  12.728  0.00  0.00    +0.000 A 
ATOM     20  C   UNL     1      45.709   5.801  11.524  0.00  0.00    +0.000 A 
ATOM     21  C   UNL     1      44.969   5.171  10.527  0.00  0.00    +0.000 A 
ATOM     22  C   UNL     1      44.583   3.849  10.688  0.00  0.00    +0.000 A 
ATOM     23  C   UNL     1      44.839   3.211  11.903  0.00  0.00    +0.000 A 
ATOM     24  C   UNL     1      45.556   3.862  12.913  0.00  0.00    +0.000 A 
BRANCH  22  25
ATOM     25  O   UNL     1      43.929   3.102   9.761  0.00  0.00    +0.000 OA
BRANCH  25  26
ATOM     26  C   UNL     1      44.688   2.375   8.800  0.00  0.00    +0.000 C 
ATOM     27  F   UNL     1      44.394   1.061   8.718  0.00  0.00    +0.000 F 
ATOM     28  F   UNL     1      44.463   2.916   7.581  0.00  0.00    +0.000 F 
ATOM     29  F   UNL     1      46.001   2.508   9.083  0.00  0.00    +0.000 F 
ENDBRANCH  25  26
ENDBRANCH  22  25
ENDBRANCH  16  19
ENDBRANCH   1  16
TORSDOF 7
ENDMDL
MODEL 8
REMARK VINA RESULT:    -6.341      5.018      8.159
REMARK INTER + INTRA:         -10.038
REMARK INTER:                  -9.352
REMARK INTRA:                  -0.687
REMARK UNBOUND:                -1.102
REMARK  Name = 
REMARK  7 active torsions:
REMARK  status: ('A' for Active; 'I' for Inactive)
REMARK    1  A    between atoms: C_2  and  C_3
REMARK    2  A    between atoms: C_5  and  C_6
REMARK    3  A    between atoms: C_11  and  N_12
REMARK    4  A    between atoms: N_12  and  C_13
REMARK    5  A    between atoms: C_13  and  C_14
REMARK    6  A    between atoms: C_17  and  O_18
REMARK    7  A    between atoms: O_18  and  C_19
REMARK                            x       y       z     vdW  Elec       q    Type
REMARK                         _______ _______ _______ _____ _____    ______ ____
ROOT
ATOM      1  N   UNL     1      48.163   6.255  13.825  0.00  0.00    +0.000 N 
ATOM      2  H   UNL     1      48.884   5.714  13.348  0.00  0.00    +0.000 HD
ENDROOT
BRANCH   1   8
ATOM      3  C   UNL     1      48.685   6.868  16.196  0.00  0.00    +0.000 A 
ATOM      4  C   UNL     1      48.742   6.382  17.516  0.00  0.00    +0.000 A 
ATOM      5  C   UNL     1      48.456   5.052  17.801  0.00  0.00    +0.000 A 
ATOM      6  C   UNL     1      48.070   4.259  16.741  0.00  0.00    +0.000 A 
ATOM      7  N   UNL     1      47.957   4.715  15.468  0.00  0.00    +0.000 NA
ATOM      8  C   UNL     1      48.270   6.011  15.182  0.00  0.00    +0.000 A 
BRANCH   5   9
ATOM      9  C   UNL     1      48.617   4.581  19.195  0.00  0.00    +0.000 C 
ATOM     10  N   UNL     1      48.363   3.278  19.499  0.00  0.00    +0.000 N 
ATOM     11  O   UNL     1      48.993   5.352  20.070  0.00  0.00    +0.000 OA
ATOM     12  H   UNL     1      48.069   2.556  18.859  0.00  0.00    +0.000 HD
ATOM     13  H   UNL     1      48.525   3.009  20.464  0.00  0.00    +0.000 HD
ENDBRANCH   5   9
BRANCH   3  15
ATOM     14  N   UNL     1      49.387   9.350  15.987  0.00  0.00    +0.000 NA
ATOM     15  C   UNL     1      49.098   8.222  16.030  0.00  0.00    +0.000 C 
ENDBRANCH   3  15
ENDBRANCH   1   8
BRANCH   1  16
ATOM     16  C   UNL     1      47.100   6.834  13.013  0.00  0.00    +0.000 C 
ATOM     17  C   UNL     1      47.525   8.089  12.251  0.00  0.00    +0.000 C 
ATOM     18  C   UNL     1      46.465   8.181  13.292  0.00  0.00    +0.000 C 
BRANCH  16  19
ATOM     19  C   UNL     1      46.233   5.814  12.292  0.00  0.00    +0.000 A 
ATOM     20  C   UNL     1      45.767   6.076  10.995  0.00  0.00    +0.000 A 
ATOM     21  C   UNL     1      45.039   5.143  10.263  0.00  0.00    +0.000 A 
ATOM     22  C   UNL     1      44.797   3.886  10.795  0.00  0.00    +0.000 A 
ATOM     23  C   UNL     1      45.187   3.620  12.109  0.00  0.00    +0.000 A 
ATOM     24  C   UNL     1      45.892   4.575  12.851  0.00  0.00    +0.000 A 
BRANCH  22  25
ATOM     25  O   UNL     1      44.169   2.866  10.153  0.00  0.00    +0.000 OA
BRANCH  25  26
ATOM     26  C   UNL     1      44.794   2.277   9.017  0.00  0.00    +0.000 C 
ATOM     27  F   UNL     1      46.139   2.200   9.082  0.00  0.00    +0.000 F 
ATOM     28  F   UNL     1      44.323   1.017   8.878  0.00  0.00    +0.000 F 
ATOM     29  F   UNL     1      44.453   2.977   7.914  0.00  0.00    +0.000 F 
ENDBRANCH  25  26
ENDBRANCH  22  25
ENDBRANCH  16  19
ENDBRANCH   1  16
TORSDOF 7
ENDMDL
MODEL 9
REMARK VINA RESULT:    -6.314      3.360      5.429
REMARK INTER + INTRA:         -10.000
REMARK INTER:                  -8.907
REMARK INTRA:                  -1.093
REMARK UNBOUND:                -1.102
REMARK  Name = 
REMARK  7 active torsions:
REMARK  status: ('A' for Active; 'I' for Inactive)
REMARK    1  A    between atoms: C_2  and  C_3
REMARK    2  A    between atoms: C_5  and  C_6
REMARK    3  A    between atoms: C_11  and  N_12
REMARK    4  A    between atoms: N_12  and  C_13
REMARK    5  A    between atoms: C_13  and  C_14
REMARK    6  A    between atoms: C_17  and  O_18
REMARK    7  A    between atoms: O_18  and  C_19
REMARK                            x       y       z     vdW  Elec       q    Type
REMARK                         _______ _______ _______ _____ _____    ______ ____
ROOT
ATOM      1  N   UNL     1      47.082   6.998  13.851  0.00  0.00    +0.000 N 
ATOM      2  H   UNL     1      46.540   7.180  14.696  0.00  0.00    +0.000 HD
ENDROOT
BRANCH   1   8
ATOM      3  C   UNL     1      46.302   4.742  13.096  0.00  0.00    +0.000 A 
ATOM      4  C   UNL     1      45.507   4.064  12.153  0.00  0.00    +0.000 A 
ATOM      5  C   UNL     1      44.837   4.759  11.151  0.00  0.00    +0.000 A 
ATOM      6  C   UNL     1      44.955   6.133  11.165  0.00  0.00    +0.000 A 
ATOM      7  N   UNL     1      45.672   6.814  12.093  0.00  0.00    +0.000 NA
ATOM      8  C   UNL     1      46.357   6.131  13.055  0.00  0.00    +0.000 A 
BRANCH   5   9
ATOM      9  C   UNL     1      44.087   3.984  10.139  0.00  0.00    +0.000 C 
ATOM     10  N   UNL     1      43.995   4.454   8.864  0.00  0.00    +0.000 N 
ATOM     11  O   UNL     1      43.565   2.916  10.438  0.00  0.00    +0.000 OA
ATOM     12  H   UNL     1      44.399   5.305   8.504  0.00  0.00    +0.000 HD
ATOM     13  H   UNL     1      43.496   3.860   8.208  0.00  0.00    +0.000 HD
ENDBRANCH   5   9
BRANCH   3  15
ATOM     14  N   UNL     1      47.513   3.147  14.735  0.00  0.00    +0.000 NA
ATOM     15  C   UNL     1      47.012   3.904  14.004  0.00  0.00    +0.000 C 
ENDBRANCH   3  15
ENDBRANCH   1   8
BRANCH   1  16
ATOM     16  C   UNL     1      48.483   7.399  13.845  0.00  0.00    +0.000 C 
ATOM     17  C   UNL     1      48.716   8.809  13.304  0.00  0.00    +0.000 C 
ATOM     18  C   UNL     1      49.286   7.639  12.583  0.00  0.00    +0.000 C 
BRANCH  16  19
ATOM     19  C   UNL     1      49.268   6.961  15.071  0.00  0.00    +0.000 A 
ATOM     20  C   UNL     1      48.629   6.258  16.103  0.00  0.00    +0.000 A 
ATOM     21  C   UNL     1      49.319   5.766  17.208  0.00  0.00    +0.000 A 
ATOM     22  C   UNL     1      50.694   5.921  17.286  0.00  0.00    +0.000 A 
ATOM     23  C   UNL     1      51.347   6.677  16.311  0.00  0.00    +0.000 A 
ATOM     24  C   UNL     1      50.642   7.195  15.219  0.00  0.00    +0.000 A 
BRANCH  22  25
ATOM     25  O   UNL     1      51.488   5.421  18.269  0.00  0.00    +0.000 OA
BRANCH  25  26
ATOM     26  C   UNL     1      52.168   4.190  18.048  0.00  0.00    +0.000 C 
ATOM     27  F   UNL     1      53.357   4.301  17.420  0.00  0.00    +0.000 F 
ATOM     28  F   UNL     1      52.397   3.608  19.247  0.00  0.00    +0.000 F 
ATOM     29  F   UNL     1      51.373   3.370  17.327  0.00  0.00    +0.000 F 
ENDBRANCH  25  26
ENDBRANCH  22  25
ENDBRANCH  16  19
ENDBRANCH   1  16
TORSDOF 7
ENDMDL
