MODEL 1
REMARK VINA RESULT:    -7.284      0.000      0.000
REMARK INTER + INTRA:         -11.127
REMARK INTER:                 -10.265
REMARK INTRA:                  -0.861
REMARK UNBOUND:                -0.861
REMARK  Name = 
REMARK  7 active torsions:
REMARK  status: ('A' for Active; 'I' for Inactive)
REMARK    1  A    between atoms: C_2  and  C_3
REMARK    2  A    between atoms: C_7  and  C_8
REMARK    3  A    between atoms: N_10  and  C_11
REMARK    4  A    between atoms: C_11  and  C_12
REMARK    5  A    between atoms: C_15  and  C_16
REMARK    6  A    between atoms: C_16  and  N_17
REMARK    7  A    between atoms: C_18  and  C_20
REMARK                            x       y       z     vdW  Elec       q    Type
REMARK                         _______ _______ _______ _____ _____    ______ ____
ROOT
ATOM      1  C   UNL     1      47.419   5.740  14.472  0.00  0.00    +0.000 A 
ATOM      2  C   UNL     1      47.011   4.468  14.895  0.00  0.00    +0.000 A 
ATOM      3  C   UNL     1      47.556   3.887  16.047  0.00  0.00    +0.000 A 
ATOM      4  C   UNL     1      48.510   4.574  16.810  0.00  0.00    +0.000 A 
ATOM      5  C   UNL     1      48.916   5.847  16.387  0.00  0.00    +0.000 A 
ATOM      6  C   UNL     1      48.369   6.428  15.237  0.00  0.00    +0.000 A 
ENDROOT
BRANCH   1   7
ATOM      7  C   UNL     1      46.875   6.346  13.204  0.00  0.00    +0.000 C 
BRANCH   7  10
ATOM      8  C   UNL     1      45.556   5.801  11.237  0.00  0.00    +0.000 C 
ATOM      9  O   UNL     1      45.262   6.979  11.051  0.00  0.00    +0.000 OA
ATOM     10  N   UNL     1      46.302   5.365  12.305  0.00  0.00    +0.000 N 
ATOM     11  H   UNL     1      46.707   4.438  12.274  0.00  0.00    +0.000 HD
BRANCH   8  16
ATOM     12  C   UNL     1      45.287   3.675   8.082  0.00  0.00    +0.000 C 
ATOM     13  C   UNL     1      44.531   2.542   8.614  0.00  0.00    +0.000 C 
ATOM     14  C   UNL     1      44.213   2.498   9.921  0.00  0.00    +0.000 C 
ATOM     15  C   UNL     1      44.580   3.596  10.799  0.00  0.00    +0.000 C 
ATOM     16  C   UNL     1      45.132   4.711  10.275  0.00  0.00    +0.000 C 
ATOM     17  N   UNL     1      45.390   4.818   8.898  0.00  0.00    +0.000 N 
ATOM     18  H   UNL     1      46.211   5.394   8.710  0.00  0.00    +0.000 HD
BRANCH  12  20
ATOM     19  N   UNL     1      47.687   3.002   6.850  0.00  0.00    +0.000 NA
ATOM     20  C   UNL     1      46.598   3.307   7.410  0.00  0.00    +0.000 C 
ENDBRANCH  12  20
ENDBRANCH   8  16
ENDBRANCH   7  10
ENDBRANCH   1   7
BRANCH   4  21
ATOM     21  C   UNL     1      49.131   3.945  18.032  0.00  0.00    +0.000 C 
BRANCH  21  22
ATOM     22  N   UNL     1      50.478   3.503  17.769  0.00  0.00    +0.000 N 
ATOM     23  C   UNL     1      51.537   3.968  18.510  0.00  0.00    +0.000 C 
ATOM     24  O   UNL     1      51.376   4.735  19.457  0.00  0.00    +0.000 OA
ATOM     25  H   UNL     1      50.654   3.060  16.872  0.00  0.00    +0.000 HD
BRANCH  23  26
ATOM     26  C   UNL     1      52.869   3.460  18.155  0.00  0.00    +0.000 A 
ATOM     27  C   UNL     1      53.962   4.317  18.187  0.00  0.00    +0.000 A 
ATOM     28  S   UNL     1      55.438   3.560  17.791  0.00  0.00    +0.000 S 
ATOM     29  C   UNL     1      54.664   2.072  17.514  0.00  0.00    +0.000 A 
ATOM     30  N   UNL     1      55.370   0.981  17.109  0.00  0.00    +0.000 NA
ATOM     31  C   UNL     1      54.652  -0.071  16.901  0.00  0.00    +0.000 A 
ATOM     32  N   UNL     1      53.293  -0.135  17.069  0.00  0.00    +0.000 N 
ATOM     33  C   UNL     1      52.541   0.931  17.509  0.00  0.00    +0.000 A 
ATOM     34  O   UNL     1      51.334   0.826  17.693  0.00  0.00    +0.000 OA
ATOM     35  C   UNL     1      53.299   2.145  17.740  0.00  0.00    +0.000 A 
ATOM     36  H   UNL     1      52.792  -0.995  16.898  0.00  0.00    +0.000 HD
ENDBRANCH  23  26
ENDBRANCH  21  22
ENDBRANCH   4  21
TORSDOF 7
ENDMDL
MODEL 2
REMARK VINA RESULT:    -7.234      3.592      9.914
REMARK INTER + INTRA:         -11.056
REMARK INTER:                 -10.018
REMARK INTRA:                  -1.037
REMARK UNBOUND:                -0.861
REMARK  Name = 
REMARK  7 active torsions:
REMARK  status: ('A' for Active; 'I' for Inactive)
REMARK    1  A    between atoms: C_2  and  C_3
REMARK    2  A    between atoms: C_7  and  C_8
REMARK    3  A    between atoms: N_10  and  C_11
REMARK    4  A    between atoms: C_11  and  C_12
REMARK    5  A    between atoms: C_15  and  C_16
REMARK    6  A    between atoms: C_16  and  N_17
REMARK    7  A    between atoms: C_18  and  C_20
REMARK                            x       y       z     vdW  Elec       q    Type
REMARK                         _______ _______ _______ _____ _____    ______ ____
ROOT
ATOM      1  C   UNL     1      50.276   8.257  14.027  0.00  0.00    +0.000 A 
ATOM      2  C   UNL     1      50.220   8.169  12.629  0.00  0.00    +0.000 A 
ATOM      3  C   UNL     1      48.990   8.148  11.961  0.00  0.00    +0.000 A 
ATOM      4  C   UNL     1      47.788   8.230  12.677  0.00  0.00    +0.000 A 
ATOM      5  C   UNL     1      47.844   8.321  14.074  0.00  0.00    +0.000 A 
ATOM      6  C   UNL     1      49.075   8.344  14.741  0.00  0.00    +0.000 A 
ENDROOT
BRANCH   1   7
ATOM      7  C   UNL     1      51.596   8.225  14.753  0.00  0.00    +0.000 C 
BRANCH   7  10
ATOM      8  C   UNL     1      51.748   6.866  16.761  0.00  0.00    +0.000 C 
ATOM      9  O   UNL     1      51.526   7.832  17.487  0.00  0.00    +0.000 OA
ATOM     10  N   UNL     1      51.863   6.954  15.395  0.00  0.00    +0.000 N 
ATOM     11  H   UNL     1      51.806   6.109  14.843  0.00  0.00    +0.000 HD
BRANCH   8  16
ATOM     12  C   UNL     1      50.914   3.309  17.853  0.00  0.00    +0.000 C 
ATOM     13  C   UNL     1      52.262   2.807  18.107  0.00  0.00    +0.000 C 
ATOM     14  C   UNL     1      53.330   3.591  17.867  0.00  0.00    +0.000 C 
ATOM     15  C   UNL     1      53.143   4.953  17.396  0.00  0.00    +0.000 C 
ATOM     16  C   UNL     1      51.897   5.465  17.318  0.00  0.00    +0.000 C 
ATOM     17  N   UNL     1      50.771   4.695  17.652  0.00  0.00    +0.000 N 
ATOM     18  H   UNL     1      49.954   4.956  17.098  0.00  0.00    +0.000 HD
BRANCH  12  20
ATOM     19  N   UNL     1      49.426   1.794  16.057  0.00  0.00    +0.000 NA
ATOM     20  C   UNL     1      50.100   2.481  16.872  0.00  0.00    +0.000 C 
ENDBRANCH  12  20
ENDBRANCH   8  16
ENDBRANCH   7  10
ENDBRANCH   1   7
BRANCH   4  21
ATOM     21  C   UNL     1      46.455   8.172  11.972  0.00  0.00    +0.000 C 
BRANCH  21  22
ATOM     22  N   UNL     1      46.060   6.811  11.706  0.00  0.00    +0.000 N 
ATOM     23  C   UNL     1      44.751   6.489  11.444  0.00  0.00    +0.000 C 
ATOM     24  O   UNL     1      43.875   7.349  11.372  0.00  0.00    +0.000 OA
ATOM     25  H   UNL     1      46.708   6.079  11.978  0.00  0.00    +0.000 HD
BRANCH  23  26
ATOM     26  C   UNL     1      44.454   5.073  11.193  0.00  0.00    +0.000 A 
ATOM     27  C   UNL     1      43.688   4.360  12.108  0.00  0.00    +0.000 A 
ATOM     28  S   UNL     1      43.399   2.743  11.647  0.00  0.00    +0.000 S 
ATOM     29  C   UNL     1      44.329   2.923  10.234  0.00  0.00    +0.000 A 
ATOM     30  N   UNL     1      44.515   1.878   9.383  0.00  0.00    +0.000 NA
ATOM     31  C   UNL     1      45.270   2.143   8.370  0.00  0.00    +0.000 A 
ATOM     32  N   UNL     1      45.850   3.362   8.127  0.00  0.00    +0.000 N 
ATOM     33  C   UNL     1      45.663   4.456   8.940  0.00  0.00    +0.000 A 
ATOM     34  O   UNL     1      46.159   5.544   8.669  0.00  0.00    +0.000 OA
ATOM     35  C   UNL     1      44.836   4.205  10.104  0.00  0.00    +0.000 A 
ATOM     36  H   UNL     1      46.424   3.506   7.309  0.00  0.00    +0.000 HD
ENDBRANCH  23  26
ENDBRANCH  21  22
ENDBRANCH   4  21
TORSDOF 7
ENDMDL
MODEL 3
REMARK VINA RESULT:    -7.112      1.744      2.255
REMARK INTER + INTRA:         -10.884
REMARK INTER:                  -9.932
REMARK INTRA:                  -0.952
REMARK UNBOUND:                -0.861
REMARK  Name = 
REMARK  7 active torsions:
REMARK  status: ('A' for Active; 'I' for Inactive)
REMARK    1  A    between atoms: C_2  and  C_3
REMARK    2  A    between atoms: C_7  and  C_8
REMARK    3  A    between atoms: N_10  and  C_11
REMARK    4  A    between atoms: C_11  and  C_12
REMARK    5  A    between atoms: C_15  and  C_16
REMARK    6  A    between atoms: C_16  and  N_17
REMARK    7  A    between atoms: C_18  and  C_20
REMARK                            x       y       z     vdW  Elec       q    Type
REMARK                         _______ _______ _______ _____ _____    ______ ____
ROOT
ATOM      1  C   UNL     1      47.812   7.793  13.469  0.00  0.00    +0.000 A 
ATOM      2  C   UNL     1      48.226   6.588  14.053  0.00  0.00    +0.000 A 
ATOM      3  C   UNL     1      48.686   6.553  15.375  0.00  0.00    +0.000 A 
ATOM      4  C   UNL     1      48.727   7.722  16.147  0.00  0.00    +0.000 A 
ATOM      5  C   UNL     1      48.311   8.926  15.563  0.00  0.00    +0.000 A 
ATOM      6  C   UNL     1      47.849   8.959  14.243  0.00  0.00    +0.000 A 
ENDROOT
BRANCH   1   7
ATOM      7  C   UNL     1      47.368   7.844  12.030  0.00  0.00    +0.000 C 
BRANCH   7  10
ATOM      8  C   UNL     1      45.523   6.513  11.174  0.00  0.00    +0.000 C 
ATOM      9  O   UNL     1      44.730   7.440  11.310  0.00  0.00    +0.000 OA
ATOM     10  N   UNL     1      46.843   6.581  11.551  0.00  0.00    +0.000 N 
ATOM     11  H   UNL     1      47.490   5.887  11.200  0.00  0.00    +0.000 HD
BRANCH   8  16
ATOM     12  C   UNL     1      44.955   3.769   8.588  0.00  0.00    +0.000 C 
ATOM     13  C   UNL     1      44.587   2.667   9.475  0.00  0.00    +0.000 C 
ATOM     14  C   UNL     1      44.598   2.844  10.809  0.00  0.00    +0.000 C 
ATOM     15  C   UNL     1      44.934   4.142  11.370  0.00  0.00    +0.000 C 
ATOM     16  C   UNL     1      45.113   5.196  10.547  0.00  0.00    +0.000 C 
ATOM     17  N   UNL     1      45.015   5.057   9.153  0.00  0.00    +0.000 N 
ATOM     18  H   UNL     1      45.637   5.701   8.662  0.00  0.00    +0.000 HD
BRANCH  12  20
ATOM     19  N   UNL     1      47.086   3.231   6.884  0.00  0.00    +0.000 NA
ATOM     20  C   UNL     1      46.120   3.475   7.657  0.00  0.00    +0.000 C 
ENDBRANCH  12  20
ENDBRANCH   8  16
ENDBRANCH   7  10
ENDBRANCH   1   7
BRANCH   4  21
ATOM     21  C   UNL     1      49.255   7.704  17.560  0.00  0.00    +0.000 C 
BRANCH  21  22
ATOM     22  N   UNL     1      50.270   6.695  17.730  0.00  0.00    +0.000 N 
ATOM     23  C   UNL     1      50.126   5.690  18.655  0.00  0.00    +0.000 C 
ATOM     24  O   UNL     1      49.108   5.578  19.335  0.00  0.00    +0.000 OA
ATOM     25  H   UNL     1      51.191   6.895  17.351  0.00  0.00    +0.000 HD
BRANCH  23  26
ATOM     26  C   UNL     1      51.222   4.716  18.753  0.00  0.00    +0.000 A 
ATOM     27  C   UNL     1      52.370   5.045  19.462  0.00  0.00    +0.000 A 
ATOM     28  S   UNL     1      53.526   3.791  19.515  0.00  0.00    +0.000 S 
ATOM     29  C   UNL     1      52.555   2.782  18.551  0.00  0.00    +0.000 A 
ATOM     30  N   UNL     1      52.979   1.541  18.189  0.00  0.00    +0.000 NA
ATOM     31  C   UNL     1      52.159   0.897  17.428  0.00  0.00    +0.000 A 
ATOM     32  N   UNL     1      50.949   1.379  17.000  0.00  0.00    +0.000 N 
ATOM     33  C   UNL     1      50.462   2.613  17.367  0.00  0.00    +0.000 A 
ATOM     34  O   UNL     1      49.355   2.995  17.005  0.00  0.00    +0.000 OA
ATOM     35  C   UNL     1      51.355   3.385  18.209  0.00  0.00    +0.000 A 
ATOM     36  H   UNL     1      50.349   0.819  16.412  0.00  0.00    +0.000 HD
ENDBRANCH  23  26
ENDBRANCH  21  22
ENDBRANCH   4  21
TORSDOF 7
ENDMDL
MODEL 4
REMARK VINA RESULT:    -6.867      6.637      8.009
REMARK INTER + INTRA:         -10.538
REMARK INTER:                  -9.516
REMARK INTRA:                  -1.022
REMARK UNBOUND:                -0.861
REMARK  Name = 
REMARK  7 active torsions:
REMARK  status: ('A' for Active; 'I' for Inactive)
REMARK    1  A    between atoms: C_2  and  C_3
REMARK    2  A    between atoms: C_7  and  C_8
REMARK    3  A    between atoms: N_10  and  C_11
REMARK    4  A    between atoms: C_11  and  C_12
REMARK    5  A    between atoms: C_15  and  C_16
REMARK    6  A    between atoms: C_16  and  N_17
REMARK    7  A    between atoms: C_18  and  C_20
REMARK                            x       y       z     vdW  Elec       q    Type
REMARK                         _______ _______ _______ _____ _____    ______ ____
ROOT
ATOM      1  C   UNL     1      48.252   8.713  12.149  0.00  0.00    +0.000 A 
ATOM      2  C   UNL     1      48.763  10.004  11.955  0.00  0.00    +0.000 A 
ATOM      3  C   UNL     1      50.073  10.195  11.499  0.00  0.00    +0.000 A 
ATOM      4  C   UNL     1      50.896   9.097  11.213  0.00  0.00    +0.000 A 
ATOM      5  C   UNL     1      50.384   7.807  11.405  0.00  0.00    +0.000 A 
ATOM      6  C   UNL     1      49.073   7.617  11.858  0.00  0.00    +0.000 A 
ENDROOT
BRANCH   1   7
ATOM      7  C   UNL     1      46.861   8.504  12.691  0.00  0.00    +0.000 C 
BRANCH   7  10
ATOM      8  C   UNL     1      45.173   7.084  11.672  0.00  0.00    +0.000 C 
ATOM      9  O   UNL     1      44.501   8.052  11.325  0.00  0.00    +0.000 OA
ATOM     10  N   UNL     1      46.331   7.187  12.404  0.00  0.00    +0.000 N 
ATOM     11  H   UNL     1      46.953   6.390  12.451  0.00  0.00    +0.000 HD
BRANCH   8  16
ATOM     12  C   UNL     1      44.186   4.042   9.595  0.00  0.00    +0.000 C 
ATOM     13  C   UNL     1      44.329   2.997  10.606  0.00  0.00    +0.000 C 
ATOM     14  C   UNL     1      44.774   3.307  11.838  0.00  0.00    +0.000 C 
ATOM     15  C   UNL     1      45.073   4.688  12.179  0.00  0.00    +0.000 C 
ATOM     16  C   UNL     1      44.785   5.668  11.298  0.00  0.00    +0.000 C 
ATOM     17  N   UNL     1      44.233   5.377  10.039  0.00  0.00    +0.000 N 
ATOM     18  H   UNL     1      44.535   6.045   9.328  0.00  0.00    +0.000 HD
BRANCH  12  20
ATOM     19  N   UNL     1      45.648   3.621   7.268  0.00  0.00    +0.000 NA
ATOM     20  C   UNL     1      44.985   3.812   8.324  0.00  0.00    +0.000 C 
ENDBRANCH  12  20
ENDBRANCH   8  16
ENDBRANCH   7  10
ENDBRANCH   1   7
BRANCH   4  21
ATOM     21  C   UNL     1      52.321   9.289  10.756  0.00  0.00    +0.000 C 
BRANCH  21  22
ATOM     22  N   UNL     1      52.580   8.577   9.530  0.00  0.00    +0.000 N 
ATOM     23  C   UNL     1      53.757   8.749   8.843  0.00  0.00    +0.000 C 
ATOM     24  O   UNL     1      54.655   9.471   9.269  0.00  0.00    +0.000 OA
ATOM     25  H   UNL     1      51.783   8.163   9.056  0.00  0.00    +0.000 HD
BRANCH  23  26
ATOM     26  C   UNL     1      53.918   7.980   7.601  0.00  0.00    +0.000 A 
ATOM     27  C   UNL     1      54.096   8.651   6.398  0.00  0.00    +0.000 A 
ATOM     28  S   UNL     1      54.311   7.614   5.060  0.00  0.00    +0.000 S 
ATOM     29  C   UNL     1      54.123   6.232   6.033  0.00  0.00    +0.000 A 
ATOM     30  N   UNL     1      54.171   4.984   5.491  0.00  0.00    +0.000 NA
ATOM     31  C   UNL     1      53.978   4.028   6.336  0.00  0.00    +0.000 A 
ATOM     32  N   UNL     1      53.749   4.206   7.677  0.00  0.00    +0.000 N 
ATOM     33  C   UNL     1      53.727   5.445   8.275  0.00  0.00    +0.000 A 
ATOM     34  O   UNL     1      53.566   5.565   9.485  0.00  0.00    +0.000 OA
ATOM     35  C   UNL     1      53.921   6.556   7.364  0.00  0.00    +0.000 A 
ATOM     36  H   UNL     1      53.615   3.412   8.287  0.00  0.00    +0.000 HD
ENDBRANCH  23  26
ENDBRANCH  21  22
ENDBRANCH   4  21
TORSDOF 7
ENDMDL
MODEL 5
REMARK VINA RESULT:    -6.822      3.793      5.085
REMARK INTER + INTRA:         -10.475
REMARK INTER:                  -9.461
REMARK INTRA:                  -1.014
REMARK UNBOUND:                -0.861
REMARK  Name = 
REMARK  7 active torsions:
REMARK  status: ('A' for Active; 'I' for Inactive)
REMARK    1  A    between atoms: C_2  and  C_3
REMARK    2  A    between atoms: C_7  and  C_8
REMARK    3  A    between atoms: N_10  and  C_11
REMARK    4  A    between atoms: C_11  and  C_12
REMARK    5  A    between atoms: C_15  and  C_16
REMARK    6  A    between atoms: C_16  and  N_17
REMARK    7  A    between atoms: C_18  and  C_20
REMARK                            x       y       z     vdW  Elec       q    Type
REMARK                         _______ _______ _______ _____ _____    ______ ____
ROOT
ATOM      1  C   UNL     1      45.462   6.718  11.303  0.00  0.00    +0.000 A 
ATOM      2  C   UNL     1      44.944   7.924  11.794  0.00  0.00    +0.000 A 
ATOM      3  C   UNL     1      45.640   8.662  12.759  0.00  0.00    +0.000 A 
ATOM      4  C   UNL     1      46.877   8.216  13.243  0.00  0.00    +0.000 A 
ATOM      5  C   UNL     1      47.396   7.011  12.749  0.00  0.00    +0.000 A 
ATOM      6  C   UNL     1      46.700   6.276  11.783  0.00  0.00    +0.000 A 
ENDROOT
BRANCH   1   7
ATOM      7  C   UNL     1      44.690   5.894  10.304  0.00  0.00    +0.000 C 
BRANCH   7  10
ATOM      8  C   UNL     1      45.153   3.875   9.033  0.00  0.00    +0.000 C 
ATOM      9  O   UNL     1      44.165   3.306   9.489  0.00  0.00    +0.000 OA
ATOM     10  N   UNL     1      45.543   5.138   9.410  0.00  0.00    +0.000 N 
ATOM     11  H   UNL     1      46.211   5.636   8.837  0.00  0.00    +0.000 HD
BRANCH   8  16
ATOM     12  C   UNL     1      47.361   1.337   7.237  0.00  0.00    +0.000 C 
ATOM     13  C   UNL     1      47.433   1.963   5.919  0.00  0.00    +0.000 C 
ATOM     14  C   UNL     1      46.746   3.093   5.671  0.00  0.00    +0.000 C 
ATOM     15  C   UNL     1      45.966   3.719   6.725  0.00  0.00    +0.000 C 
ATOM     16  C   UNL     1      46.033   3.230   7.982  0.00  0.00    +0.000 C 
ATOM     17  N   UNL     1      46.816   2.105   8.284  0.00  0.00    +0.000 N 
ATOM     18  H   UNL     1      46.412   1.553   9.042  0.00  0.00    +0.000 HD
BRANCH  12  20
ATOM     19  N   UNL     1      46.449  -1.291   7.233  0.00  0.00    +0.000 NA
ATOM     20  C   UNL     1      46.863  -0.099   7.235  0.00  0.00    +0.000 C 
ENDBRANCH  12  20
ENDBRANCH   8  16
ENDBRANCH   7  10
ENDBRANCH   1   7
BRANCH   4  21
ATOM     21  C   UNL     1      47.620   8.983  14.309  0.00  0.00    +0.000 C 
BRANCH  21  22
ATOM     22  N   UNL     1      47.871   8.164  15.468  0.00  0.00    +0.000 N 
ATOM     23  C   UNL     1      49.132   7.697  15.750  0.00  0.00    +0.000 C 
ATOM     24  O   UNL     1      50.103   8.002  15.061  0.00  0.00    +0.000 OA
ATOM     25  H   UNL     1      47.068   7.726  15.909  0.00  0.00    +0.000 HD
BRANCH  23  26
ATOM     26  C   UNL     1      49.277   6.865  16.952  0.00  0.00    +0.000 A 
ATOM     27  C   UNL     1      50.007   7.342  18.033  0.00  0.00    +0.000 A 
ATOM     28  S   UNL     1      50.044   6.274  19.362  0.00  0.00    +0.000 S 
ATOM     29  C   UNL     1      49.128   5.113  18.522  0.00  0.00    +0.000 A 
ATOM     30  N   UNL     1      48.819   3.918  19.095  0.00  0.00    +0.000 NA
ATOM     31  C   UNL     1      48.150   3.118  18.334  0.00  0.00    +0.000 A 
ATOM     32  N   UNL     1      47.756   3.407  17.053  0.00  0.00    +0.000 N 
ATOM     33  C   UNL     1      48.015   4.614  16.443  0.00  0.00    +0.000 A 
ATOM     34  O   UNL     1      47.607   4.857  15.313  0.00  0.00    +0.000 OA
ATOM     35  C   UNL     1      48.780   5.543  17.252  0.00  0.00    +0.000 A 
ATOM     36  H   UNL     1      47.225   2.739  16.513  0.00  0.00    +0.000 HD
ENDBRANCH  23  26
ENDBRANCH  21  22
ENDBRANCH   4  21
TORSDOF 7
ENDMDL
MODEL 6
REMARK VINA RESULT:    -6.097      3.058      4.075
REMARK INTER + INTRA:          -9.454
REMARK INTER:                  -8.414
REMARK INTRA:                  -1.039
REMARK UNBOUND:                -0.861
REMARK  Name = 
REMARK  7 active torsions:
REMARK  status: ('A' for Active; 'I' for Inactive)
REMARK    1  A    between atoms: C_2  and  C_3
REMARK    2  A    between atoms: C_7  and  C_8
REMARK    3  A    between atoms: N_10  and  C_11
REMARK    4  A    between atoms: C_11  and  C_12
REMARK    5  A    between atoms: C_15  and  C_16
REMARK    6  A    between atoms: C_16  and  N_17
REMARK    7  A    between atoms: C_18  and  C_20
REMARK                            x       y       z     vdW  Elec       q    Type
REMARK                         _______ _______ _______ _____ _____    ______ ____
ROOT
ATOM      1  C   UNL     1      46.390   7.462  12.995  0.00  0.00    +0.000 A 
ATOM      2  C   UNL     1      46.607   8.843  13.104  0.00  0.00    +0.000 A 
ATOM      3  C   UNL     1      47.888   9.348  13.357  0.00  0.00    +0.000 A 
ATOM      4  C   UNL     1      48.983   8.484  13.490  0.00  0.00    +0.000 A 
ATOM      5  C   UNL     1      48.765   7.104  13.378  0.00  0.00    +0.000 A 
ATOM      6  C   UNL     1      47.485   6.599  13.124  0.00  0.00    +0.000 A 
ENDROOT
BRANCH   1   7
ATOM      7  C   UNL     1      45.004   6.912  12.777  0.00  0.00    +0.000 C 
BRANCH   7  10
ATOM      8  C   UNL     1      43.894   5.485  11.154  0.00  0.00    +0.000 C 
ATOM      9  O   UNL     1      42.878   6.175  11.172  0.00  0.00    +0.000 OA
ATOM     10  N   UNL     1      44.987   5.722  11.951  0.00  0.00    +0.000 N 
ATOM     11  H   UNL     1      45.866   5.275  11.723  0.00  0.00    +0.000 HD
BRANCH   8  16
ATOM     12  C   UNL     1      44.628   3.420   8.033  0.00  0.00    +0.000 C 
ATOM     13  C   UNL     1      44.544   2.076   8.601  0.00  0.00    +0.000 C 
ATOM     14  C   UNL     1      44.322   1.915   9.919  0.00  0.00    +0.000 C 
ATOM     15  C   UNL     1      44.123   3.074  10.773  0.00  0.00    +0.000 C 
ATOM     16  C   UNL     1      44.038   4.302  10.219  0.00  0.00    +0.000 C 
ATOM     17  N   UNL     1      44.174   4.486   8.833  0.00  0.00    +0.000 N 
ATOM     18  H   UNL     1      44.599   5.387   8.610  0.00  0.00    +0.000 HD
BRANCH  12  20
ATOM     19  N   UNL     1      47.015   3.986   6.724  0.00  0.00    +0.000 NA
ATOM     20  C   UNL     1      45.933   3.729   7.318  0.00  0.00    +0.000 C 
ENDBRANCH  12  20
ENDBRANCH   8  16
ENDBRANCH   7  10
ENDBRANCH   1   7
BRANCH   4  21
ATOM     21  C   UNL     1      50.362   9.013  13.798  0.00  0.00    +0.000 C 
BRANCH  21  22
ATOM     22  N   UNL     1      50.860   8.489  15.045  0.00  0.00    +0.000 N 
ATOM     23  C   UNL     1      52.119   7.947  15.137  0.00  0.00    +0.000 C 
ATOM     24  O   UNL     1      52.889   7.936  14.179  0.00  0.00    +0.000 OA
ATOM     25  H   UNL     1      50.177   8.287  15.769  0.00  0.00    +0.000 HD
BRANCH  23  26
ATOM     26  C   UNL     1      52.526   7.435  16.452  0.00  0.00    +0.000 A 
ATOM     27  C   UNL     1      53.695   7.903  17.038  0.00  0.00    +0.000 A 
ATOM     28  S   UNL     1      54.002   7.242  18.581  0.00  0.00    +0.000 S 
ATOM     29  C   UNL     1      52.610   6.268  18.499  0.00  0.00    +0.000 A 
ATOM     30  N   UNL     1      52.293   5.416  19.511  0.00  0.00    +0.000 NA
ATOM     31  C   UNL     1      51.231   4.712  19.303  0.00  0.00    +0.000 A 
ATOM     32  N   UNL     1      50.453   4.788  18.177  0.00  0.00    +0.000 N 
ATOM     33  C   UNL     1      50.714   5.658  17.142  0.00  0.00    +0.000 A 
ATOM     34  O   UNL     1      49.972   5.733  16.170  0.00  0.00    +0.000 OA
ATOM     35  C   UNL     1      51.909   6.460  17.320  0.00  0.00    +0.000 A 
ATOM     36  H   UNL     1      49.628   4.214  18.080  0.00  0.00    +0.000 HD
ENDBRANCH  23  26
ENDBRANCH  21  22
ENDBRANCH   4  21
TORSDOF 7
ENDMDL
MODEL 7
REMARK VINA RESULT:    -5.883      2.495      3.016
REMARK INTER + INTRA:          -9.152
REMARK INTER:                  -8.155
REMARK INTRA:                  -0.996
REMARK UNBOUND:                -0.861
REMARK  Name = 
REMARK  7 active torsions:
REMARK  status: ('A' for Active; 'I' for Inactive)
REMARK    1  A    between atoms: C_2  and  C_3
REMARK    2  A    between atoms: C_7  and  C_8
REMARK    3  A    between atoms: N_10  and  C_11
REMARK    4  A    between atoms: C_11  and  C_12
REMARK    5  A    between atoms: C_15  and  C_16
REMARK    6  A    between atoms: C_16  and  N_17
REMARK    7  A    between atoms: C_18  and  C_20
REMARK                            x       y       z     vdW  Elec       q    Type
REMARK                         _______ _______ _______ _____ _____    ______ ____
ROOT
ATOM      1  C   UNL     1      48.051   7.845  13.611  0.00  0.00    +0.000 A 
ATOM      2  C   UNL     1      48.460   6.665  14.248  0.00  0.00    +0.000 A 
ATOM      3  C   UNL     1      48.781   6.662  15.611  0.00  0.00    +0.000 A 
ATOM      4  C   UNL     1      48.684   7.836  16.370  0.00  0.00    +0.000 A 
ATOM      5  C   UNL     1      48.272   9.014  15.733  0.00  0.00    +0.000 A 
ATOM      6  C   UNL     1      47.950   9.017  14.371  0.00  0.00    +0.000 A 
ENDROOT
BRANCH   1   7
ATOM      7  C   UNL     1      47.757   7.865  12.133  0.00  0.00    +0.000 C 
BRANCH   7  10
ATOM      8  C   UNL     1      45.757   6.587  11.607  0.00  0.00    +0.000 C 
ATOM      9  O   UNL     1      45.022   7.476  12.031  0.00  0.00    +0.000 OA
ATOM     10  N   UNL     1      47.129   6.647  11.661  0.00  0.00    +0.000 N 
ATOM     11  H   UNL     1      47.670   6.010  11.091  0.00  0.00    +0.000 HD
BRANCH   8  16
ATOM     12  C   UNL     1      44.644   4.089   8.950  0.00  0.00    +0.000 C 
ATOM     13  C   UNL     1      44.426   2.915   9.793  0.00  0.00    +0.000 C 
ATOM     14  C   UNL     1      44.694   2.972  11.110  0.00  0.00    +0.000 C 
ATOM     15  C   UNL     1      45.161   4.212  11.707  0.00  0.00    +0.000 C 
ATOM     16  C   UNL     1      45.204   5.335  10.960  0.00  0.00    +0.000 C 
ATOM     17  N   UNL     1      44.840   5.321   9.603  0.00  0.00    +0.000 N 
ATOM     18  H   UNL     1      45.372   6.002   9.060  0.00  0.00    +0.000 HD
BRANCH  12  20
ATOM     19  N   UNL     1      46.399   3.694   6.830  0.00  0.00    +0.000 NA
ATOM     20  C   UNL     1      45.603   3.873   7.792  0.00  0.00    +0.000 C 
ENDBRANCH  12  20
ENDBRANCH   8  16
ENDBRANCH   7  10
ENDBRANCH   1   7
BRANCH   4  21
ATOM     21  C   UNL     1      49.061   7.853  17.831  0.00  0.00    +0.000 C 
BRANCH  21  22
ATOM     22  N   UNL     1      50.311   7.171  18.059  0.00  0.00    +0.000 N 
ATOM     23  C   UNL     1      50.344   5.903  18.585  0.00  0.00    +0.000 C 
ATOM     24  O   UNL     1      49.314   5.278  18.830  0.00  0.00    +0.000 OA
ATOM     25  H   UNL     1      51.152   7.740  18.076  0.00  0.00    +0.000 HD
BRANCH  23  26
ATOM     26  C   UNL     1      51.669   5.302  18.784  0.00  0.00    +0.000 A 
ATOM     27  C   UNL     1      51.928   4.581  19.943  0.00  0.00    +0.000 A 
ATOM     28  S   UNL     1      53.497   3.913  19.999  0.00  0.00    +0.000 S 
ATOM     29  C   UNL     1      53.904   4.606  18.500  0.00  0.00    +0.000 A 
ATOM     30  N   UNL     1      55.145   4.441  17.968  0.00  0.00    +0.000 NA
ATOM     31  C   UNL     1      55.329   5.049  16.844  0.00  0.00    +0.000 A 
ATOM     32  N   UNL     1      54.381   5.802  16.200  0.00  0.00    +0.000 N 
ATOM     33  C   UNL     1      53.103   5.970  16.682  0.00  0.00    +0.000 A 
ATOM     34  O   UNL     1      52.265   6.611  16.057  0.00  0.00    +0.000 OA
ATOM     35  C   UNL     1      52.850   5.320  17.953  0.00  0.00    +0.000 A 
ATOM     36  H   UNL     1      54.587   6.245  15.317  0.00  0.00    +0.000 HD
ENDBRANCH  23  26
ENDBRANCH  21  22
ENDBRANCH   4  21
TORSDOF 7
ENDMDL
MODEL 8
REMARK VINA RESULT:    -5.537      2.533      3.361
REMARK INTER + INTRA:          -8.664
REMARK INTER:                  -7.514
REMARK INTRA:                  -1.149
REMARK UNBOUND:                -0.861
REMARK  Name = 
REMARK  7 active torsions:
REMARK  status: ('A' for Active; 'I' for Inactive)
REMARK    1  A    between atoms: C_2  and  C_3
REMARK    2  A    between atoms: C_7  and  C_8
REMARK    3  A    between atoms: N_10  and  C_11
REMARK    4  A    between atoms: C_11  and  C_12
REMARK    5  A    between atoms: C_15  and  C_16
REMARK    6  A    between atoms: C_16  and  N_17
REMARK    7  A    between atoms: C_18  and  C_20
REMARK                            x       y       z     vdW  Elec       q    Type
REMARK                         _______ _______ _______ _____ _____    ______ ____
ROOT
ATOM      1  C   UNL     1      49.147   8.604  13.664  0.00  0.00    +0.000 A 
ATOM      2  C   UNL     1      49.371   7.322  14.185  0.00  0.00    +0.000 A 
ATOM      3  C   UNL     1      49.932   7.154  15.457  0.00  0.00    +0.000 A 
ATOM      4  C   UNL     1      50.267   8.265  16.242  0.00  0.00    +0.000 A 
ATOM      5  C   UNL     1      50.040   9.547  15.721  0.00  0.00    +0.000 A 
ATOM      6  C   UNL     1      49.477   9.714  14.451  0.00  0.00    +0.000 A 
ENDROOT
BRANCH   1   7
ATOM      7  C   UNL     1      48.593   8.790  12.275  0.00  0.00    +0.000 C 
BRANCH   7  10
ATOM      8  C   UNL     1      46.278   8.066  12.130  0.00  0.00    +0.000 C 
ATOM      9  O   UNL     1      45.878   9.077  12.702  0.00  0.00    +0.000 OA
ATOM     10  N   UNL     1      47.607   7.790  11.917  0.00  0.00    +0.000 N 
ATOM     11  H   UNL     1      47.858   7.078  11.244  0.00  0.00    +0.000 HD
BRANCH   8  16
ATOM     12  C   UNL     1      44.855   4.715  10.996  0.00  0.00    +0.000 C 
ATOM     13  C   UNL     1      43.453   5.089  10.822  0.00  0.00    +0.000 C 
ATOM     14  C   UNL     1      43.046   6.336  11.124  0.00  0.00    +0.000 C 
ATOM     15  C   UNL     1      44.006   7.326  11.582  0.00  0.00    +0.000 C 
ATOM     16  C   UNL     1      45.322   7.025  11.585  0.00  0.00    +0.000 C 
ATOM     17  N   UNL     1      45.780   5.759  11.186  0.00  0.00    +0.000 N 
ATOM     18  H   UNL     1      46.624   5.484  11.690  0.00  0.00    +0.000 HD
BRANCH  12  20
ATOM     19  N   UNL     1      45.286   2.562  12.702  0.00  0.00    +0.000 NA
ATOM     20  C   UNL     1      45.090   3.538  11.928  0.00  0.00    +0.000 C 
ENDBRANCH  12  20
ENDBRANCH   8  16
ENDBRANCH   7  10
ENDBRANCH   1   7
BRANCH   4  21
ATOM     21  C   UNL     1      50.905   8.097  17.599  0.00  0.00    +0.000 C 
BRANCH  21  22
ATOM     22  N   UNL     1      51.535   6.807  17.728  0.00  0.00    +0.000 N 
ATOM     23  C   UNL     1      51.715   6.223  18.958  0.00  0.00    +0.000 C 
ATOM     24  O   UNL     1      51.302   6.748  19.989  0.00  0.00    +0.000 OA
ATOM     25  H   UNL     1      52.072   6.472  16.933  0.00  0.00    +0.000 HD
BRANCH  23  26
ATOM     26  C   UNL     1      52.373   4.910  18.978  0.00  0.00    +0.000 A 
ATOM     27  C   UNL     1      53.568   4.752  19.669  0.00  0.00    +0.000 A 
ATOM     28  S   UNL     1      54.178   3.160  19.631  0.00  0.00    +0.000 S 
ATOM     29  C   UNL     1      52.893   2.635  18.648  0.00  0.00    +0.000 A 
ATOM     30  N   UNL     1      52.825   1.346  18.217  0.00  0.00    +0.000 NA
ATOM     31  C   UNL     1      51.819   1.092  17.449  0.00  0.00    +0.000 A 
ATOM     32  N   UNL     1      50.869   2.010  17.079  0.00  0.00    +0.000 N 
ATOM     33  C   UNL     1      50.877   3.315  17.517  0.00  0.00    +0.000 A 
ATOM     34  O   UNL     1      49.987   4.097  17.204  0.00  0.00    +0.000 OA
ATOM     35  C   UNL     1      51.999   3.656  18.369  0.00  0.00    +0.000 A 
ATOM     36  H   UNL     1      50.100   1.744  16.482  0.00  0.00    +0.000 HD
ENDBRANCH  23  26
ENDBRANCH  21  22
ENDBRANCH   4  21
TORSDOF 7
ENDMDL
MODEL 9
REMARK VINA RESULT:    -5.409     11.394     12.498
REMARK INTER + INTRA:          -8.483
REMARK INTER:                  -7.530
REMARK INTRA:                  -0.954
REMARK UNBOUND:                -0.861
REMARK  Name = 
REMARK  7 active torsions:
REMARK  status: ('A' for Active; 'I' for Inactive)
REMARK    1  A    between atoms: C_2  and  C_3
REMARK    2  A    between atoms: C_7  and  C_8
REMARK    3  A    between atoms: N_10  and  C_11
REMARK    4  A    between atoms: C_11  and  C_12
REMARK    5  A    between atoms: C_15  and  C_16
REMARK    6  A    between atoms: C_16  and  N_17
REMARK    7  A    between atoms: C_18  and  C_20
REMARK                            x       y       z     vdW  Elec       q    Type
REMARK                         _______ _______ _______ _____ _____    ______ ____
ROOT
ATOM      1  C   UNL     1      41.059  -3.819  15.123  0.00  0.00    +0.000 A 
ATOM      2  C   UNL     1      41.895  -4.367  16.106  0.00  0.00    +0.000 A 
ATOM      3  C   UNL     1      41.745  -4.014  17.452  0.00  0.00    +0.000 A 
ATOM      4  C   UNL     1      40.745  -3.115  17.848  0.00  0.00    +0.000 A 
ATOM      5  C   UNL     1      39.908  -2.569  16.865  0.00  0.00    +0.000 A 
ATOM      6  C   UNL     1      40.057  -2.924  15.520  0.00  0.00    +0.000 A 
ENDROOT
BRANCH   1   7
ATOM      7  C   UNL     1      41.251  -4.155  13.667  0.00  0.00    +0.000 C 
BRANCH   7  10
ATOM      8  C   UNL     1      40.323  -2.681  11.973  0.00  0.00    +0.000 C 
ATOM      9  O   UNL     1      41.346  -2.002  11.936  0.00  0.00    +0.000 OA
ATOM     10  N   UNL     1      40.142  -3.736  12.834  0.00  0.00    +0.000 N 
ATOM     11  H   UNL     1      39.393  -4.391  12.656  0.00  0.00    +0.000 HD
BRANCH   8  16
ATOM     12  C   UNL     1      37.308  -1.004  10.347  0.00  0.00    +0.000 C 
ATOM     13  C   UNL     1      37.181  -1.833   9.151  0.00  0.00    +0.000 C 
ATOM     14  C   UNL     1      38.073  -2.813   8.912  0.00  0.00    +0.000 C 
ATOM     15  C   UNL     1      39.139  -3.076   9.863  0.00  0.00    +0.000 C 
ATOM     16  C   UNL     1      39.157  -2.419  11.042  0.00  0.00    +0.000 C 
ATOM     17  N   UNL     1      38.182  -1.457  11.354  0.00  0.00    +0.000 N 
ATOM     18  H   UNL     1      38.556  -0.716  11.949  0.00  0.00    +0.000 HD
BRANCH  12  20
ATOM     19  N   UNL     1      37.541   1.723   9.855  0.00  0.00    +0.000 NA
ATOM     20  C   UNL     1      37.436   0.486  10.079  0.00  0.00    +0.000 C 
ENDBRANCH  12  20
ENDBRANCH   8  16
ENDBRANCH   7  10
ENDBRANCH   1   7
BRANCH   4  21
ATOM     21  C   UNL     1      40.597  -2.699  19.290  0.00  0.00    +0.000 C 
BRANCH  21  22
ATOM     22  N   UNL     1      40.347  -1.283  19.406  0.00  0.00    +0.000 N 
ATOM     23  C   UNL     1      39.079  -0.799  19.615  0.00  0.00    +0.000 C 
ATOM     24  O   UNL     1      38.118  -1.549  19.766  0.00  0.00    +0.000 OA
ATOM     25  H   UNL     1      41.070  -0.656  19.066  0.00  0.00    +0.000 HD
BRANCH  23  26
ATOM     26  C   UNL     1      38.934   0.659  19.711  0.00  0.00    +0.000 A 
ATOM     27  C   UNL     1      39.159   1.293  20.927  0.00  0.00    +0.000 A 
ATOM     28  S   UNL     1      38.991   2.989  20.859  0.00  0.00    +0.000 S 
ATOM     29  C   UNL     1      38.562   2.934  19.214  0.00  0.00    +0.000 A 
ATOM     30  N   UNL     1      38.253   4.071  18.534  0.00  0.00    +0.000 NA
ATOM     31  C   UNL     1      37.911   3.881  17.304  0.00  0.00    +0.000 A 
ATOM     32  N   UNL     1      37.856   2.656  16.689  0.00  0.00    +0.000 N 
ATOM     33  C   UNL     1      38.192   1.483  17.326  0.00  0.00    +0.000 A 
ATOM     34  O   UNL     1      38.176   0.410  16.733  0.00  0.00    +0.000 OA
ATOM     35  C   UNL     1      38.567   1.640  18.717  0.00  0.00    +0.000 A 
ATOM     36  H   UNL     1      37.589   2.577  15.719  0.00  0.00    +0.000 HD
ENDBRANCH  23  26
ENDBRANCH  21  22
ENDBRANCH   4  21
TORSDOF 7
ENDMDL
