MODEL 1
REMARK VINA RESULT:    -7.171      0.000      0.000
REMARK INTER + INTRA:          -9.549
REMARK INTER:                  -9.057
REMARK INTRA:                  -0.492
REMARK UNBOUND:                -0.492
REMARK  Name = 
REMARK  5 active torsions:
REMARK  status: ('A' for Active; 'I' for Inactive)
REMARK    1  A    between atoms: N_1  and  C_2
REMARK    2  A    between atoms: C_2  and  C_3
REMARK    3  A    between atoms: C_6  and  O_7
REMARK    4  A    between atoms: O_7  and  C_8
REMARK    5  A    between atoms: C_8  and  C_9
REMARK                            x       y       z     vdW  Elec       q    Type
REMARK                         _______ _______ _______ _____ _____    ______ ____
ROOT
ATOM      1  C   UNL     1      46.548   2.289   7.617  0.00  0.00    +0.000 A 
ATOM      2  C   UNL     1      45.706   1.561   8.465  0.00  0.00    +0.000 A 
ATOM      3  C   UNL     1      44.735   2.203   9.242  0.00  0.00    +0.000 A 
ATOM      4  C   UNL     1      44.598   3.592   9.188  0.00  0.00    +0.000 A 
ATOM      5  C   UNL     1      45.426   4.322   8.336  0.00  0.00    +0.000 A 
ATOM      6  C   UNL     1      46.400   3.680   7.562  0.00  0.00    +0.000 A 
ENDROOT
BRANCH   1   7
ATOM      7  C   UNL     1      47.602   1.586   6.798  0.00  0.00    +0.000 C 
BRANCH   7   8
ATOM      8  N   UNL     1      48.614   2.513   6.305  0.00  0.00    +0.000 NA
ATOM      9  H   UNL     1      48.789   3.224   7.012  0.00  0.00    +0.000 HD
ATOM     10  H   UNL     1      48.241   3.001   5.492  0.00  0.00    +0.000 HD
ENDBRANCH   7   8
ENDBRANCH   1   7
BRANCH   4  11
ATOM     11  O   UNL     1      43.670   4.321   9.885  0.00  0.00    +0.000 OA
BRANCH  11  12
ATOM     12  C   UNL     1      43.436   3.882  11.225  0.00  0.00    +0.000 C 
BRANCH  12  13
ATOM     13  C   UNL     1      44.567   4.277  12.138  0.00  0.00    +0.000 A 
ATOM     14  C   UNL     1      44.863   5.627  12.360  0.00  0.00    +0.000 A 
ATOM     15  C   UNL     1      45.967   5.980  13.130  0.00  0.00    +0.000 A 
ATOM     16  C   UNL     1      46.755   4.967  13.648  0.00  0.00    +0.000 A 
ATOM     17  N   UNL     1      46.512   3.654  13.449  0.00  0.00    +0.000 NA
ATOM     18  C   UNL     1      45.430   3.339  12.697  0.00  0.00    +0.000 A 
ENDBRANCH  12  13
ENDBRANCH  11  12
ENDBRANCH   4  11
TORSDOF 5
ENDMDL
MODEL 2
REMARK VINA RESULT:    -6.837      1.382      5.548
REMARK INTER + INTRA:          -9.127
REMARK INTER:                  -8.694
REMARK INTRA:                  -0.433
REMARK UNBOUND:                -0.492
REMARK  Name = 
REMARK  5 active torsions:
REMARK  status: ('A' for Active; 'I' for Inactive)
REMARK    1  A    between atoms: N_1  and  C_2
REMARK    2  A    between atoms: C_2  and  C_3
REMARK    3  A    between atoms: C_6  and  O_7
REMARK    4  A    between atoms: O_7  and  C_8
REMARK    5  A    between atoms: C_8  and  C_9
REMARK                            x       y       z     vdW  Elec       q    Type
REMARK                         _______ _______ _______ _____ _____    ______ ____
ROOT
ATOM      1  C   UNL     1      46.514   5.354  12.906  0.00  0.00    +0.000 A 
ATOM      2  C   UNL     1      46.012   4.059  13.086  0.00  0.00    +0.000 A 
ATOM      3  C   UNL     1      45.181   3.469  12.127  0.00  0.00    +0.000 A 
ATOM      4  C   UNL     1      44.831   4.172  10.972  0.00  0.00    +0.000 A 
ATOM      5  C   UNL     1      45.336   5.458  10.781  0.00  0.00    +0.000 A 
ATOM      6  C   UNL     1      46.164   6.050  11.743  0.00  0.00    +0.000 A 
ENDROOT
BRANCH   1   7
ATOM      7  C   UNL     1      47.394   5.985  13.955  0.00  0.00    +0.000 C 
BRANCH   7   8
ATOM      8  N   UNL     1      47.575   5.113  15.109  0.00  0.00    +0.000 NA
ATOM      9  H   UNL     1      48.550   4.826  15.162  0.00  0.00    +0.000 HD
ATOM     10  H   UNL     1      47.032   4.262  14.963  0.00  0.00    +0.000 HD
ENDBRANCH   7   8
ENDBRANCH   1   7
BRANCH   4  11
ATOM     11  O   UNL     1      44.045   3.685   9.960  0.00  0.00    +0.000 OA
BRANCH  11  12
ATOM     12  C   UNL     1      44.490   4.003   8.639  0.00  0.00    +0.000 C 
BRANCH  12  13
ATOM     13  C   UNL     1      45.562   3.053   8.177  0.00  0.00    +0.000 A 
ATOM     14  C   UNL     1      46.542   3.473   7.271  0.00  0.00    +0.000 A 
ATOM     15  C   UNL     1      47.472   2.563   6.777  0.00  0.00    +0.000 A 
ATOM     16  C   UNL     1      47.386   1.248   7.198  0.00  0.00    +0.000 A 
ATOM     17  N   UNL     1      46.451   0.797   8.061  0.00  0.00    +0.000 NA
ATOM     18  C   UNL     1      45.560   1.705   8.526  0.00  0.00    +0.000 A 
ENDBRANCH  12  13
ENDBRANCH  11  12
ENDBRANCH   4  11
TORSDOF 5
ENDMDL
MODEL 3
REMARK VINA RESULT:    -6.604      1.616      5.848
REMARK INTER + INTRA:          -8.833
REMARK INTER:                  -8.451
REMARK INTRA:                  -0.382
REMARK UNBOUND:                -0.492
REMARK  Name = 
REMARK  5 active torsions:
REMARK  status: ('A' for Active; 'I' for Inactive)
REMARK    1  A    between atoms: N_1  and  C_2
REMARK    2  A    between atoms: C_2  and  C_3
REMARK    3  A    between atoms: C_6  and  O_7
REMARK    4  A    between atoms: O_7  and  C_8
REMARK    5  A    between atoms: C_8  and  C_9
REMARK                            x       y       z     vdW  Elec       q    Type
REMARK                         _______ _______ _______ _____ _____    ______ ____
ROOT
ATOM      1  C   UNL     1      45.630   5.557  11.999  0.00  0.00    +0.000 A 
ATOM      2  C   UNL     1      45.235   4.269  12.379  0.00  0.00    +0.000 A 
ATOM      3  C   UNL     1      44.830   3.329  11.425  0.00  0.00    +0.000 A 
ATOM      4  C   UNL     1      44.805   3.668  10.071  0.00  0.00    +0.000 A 
ATOM      5  C   UNL     1      45.209   4.946   9.684  0.00  0.00    +0.000 A 
ATOM      6  C   UNL     1      45.610   5.888  10.639  0.00  0.00    +0.000 A 
ENDROOT
BRANCH   1   7
ATOM      7  C   UNL     1      46.048   6.566  13.039  0.00  0.00    +0.000 C 
BRANCH   7   8
ATOM      8  N   UNL     1      45.154   7.718  13.069  0.00  0.00    +0.000 NA
ATOM      9  H   UNL     1      45.372   8.331  12.286  0.00  0.00    +0.000 HD
ATOM     10  H   UNL     1      45.341   8.255  13.916  0.00  0.00    +0.000 HD
ENDBRANCH   7   8
ENDBRANCH   1   7
BRANCH   4  11
ATOM     11  O   UNL     1      44.449   2.823   9.051  0.00  0.00    +0.000 OA
BRANCH  11  12
ATOM     12  C   UNL     1      45.347   1.735   8.823  0.00  0.00    +0.000 C 
BRANCH  12  13
ATOM     13  C   UNL     1      46.276   2.022   7.673  0.00  0.00    +0.000 A 
ATOM     14  C   UNL     1      46.006   3.069   6.785  0.00  0.00    +0.000 A 
ATOM     15  C   UNL     1      46.819   3.267   5.673  0.00  0.00    +0.000 A 
ATOM     16  C   UNL     1      47.878   2.399   5.474  0.00  0.00    +0.000 A 
ATOM     17  N   UNL     1      48.168   1.370   6.299  0.00  0.00    +0.000 NA
ATOM     18  C   UNL     1      47.360   1.202   7.374  0.00  0.00    +0.000 A 
ENDBRANCH  12  13
ENDBRANCH  11  12
ENDBRANCH   4  11
TORSDOF 5
ENDMDL
MODEL 4
REMARK VINA RESULT:    -6.216      1.916      5.958
REMARK INTER + INTRA:          -8.342
REMARK INTER:                  -7.908
REMARK INTRA:                  -0.434
REMARK UNBOUND:                -0.492
REMARK  Name = 
REMARK  5 active torsions:
REMARK  status: ('A' for Active; 'I' for Inactive)
REMARK    1  A    between atoms: N_1  and  C_2
REMARK    2  A    between atoms: C_2  and  C_3
REMARK    3  A    between atoms: C_6  and  O_7
REMARK    4  A    between atoms: O_7  and  C_8
REMARK    5  A    between atoms: C_8  and  C_9
REMARK                            x       y       z     vdW  Elec       q    Type
REMARK                         _______ _______ _______ _____ _____    ______ ____
ROOT
ATOM      1  C   UNL     1      45.649   7.355  12.478  0.00  0.00    +0.000 A 
ATOM      2  C   UNL     1      46.490   6.325  12.916  0.00  0.00    +0.000 A 
ATOM      3  C   UNL     1      46.249   4.995  12.553  0.00  0.00    +0.000 A 
ATOM      4  C   UNL     1      45.153   4.673  11.751  0.00  0.00    +0.000 A 
ATOM      5  C   UNL     1      44.317   5.696  11.302  0.00  0.00    +0.000 A 
ATOM      6  C   UNL     1      44.556   7.026  11.668  0.00  0.00    +0.000 A 
ENDROOT
BRANCH   1   7
ATOM      7  C   UNL     1      45.910   8.782  12.891  0.00  0.00    +0.000 C 
BRANCH   7   8
ATOM      8  N   UNL     1      46.711   8.858  14.107  0.00  0.00    +0.000 NA
ATOM      9  H   UNL     1      46.822   7.923  14.493  0.00  0.00    +0.000 HD
ATOM     10  H   UNL     1      46.196   9.398  14.803  0.00  0.00    +0.000 HD
ENDBRANCH   7   8
ENDBRANCH   1   7
BRANCH   4  11
ATOM     11  O   UNL     1      44.835   3.412  11.317  0.00  0.00    +0.000 OA
BRANCH  11  12
ATOM     12  C   UNL     1      44.165   3.355  10.056  0.00  0.00    +0.000 C 
BRANCH  12  13
ATOM     13  C   UNL     1      45.133   3.097   8.931  0.00  0.00    +0.000 A 
ATOM     14  C   UNL     1      45.671   1.820   8.736  0.00  0.00    +0.000 A 
ATOM     15  C   UNL     1      46.634   1.613   7.753  0.00  0.00    +0.000 A 
ATOM     16  C   UNL     1      47.043   2.698   6.999  0.00  0.00    +0.000 A 
ATOM     17  N   UNL     1      46.559   3.948   7.161  0.00  0.00    +0.000 NA
ATOM     18  C   UNL     1      45.621   4.120   8.124  0.00  0.00    +0.000 A 
ENDBRANCH  12  13
ENDBRANCH  11  12
ENDBRANCH   4  11
TORSDOF 5
ENDMDL
MODEL 5
REMARK VINA RESULT:    -5.240      3.871      7.803
REMARK INTER + INTRA:          -7.110
REMARK INTER:                  -6.766
REMARK INTRA:                  -0.344
REMARK UNBOUND:                -0.492
REMARK  Name = 
REMARK  5 active torsions:
REMARK  status: ('A' for Active; 'I' for Inactive)
REMARK    1  A    between atoms: N_1  and  C_2
REMARK    2  A    between atoms: C_2  and  C_3
REMARK    3  A    between atoms: C_6  and  O_7
REMARK    4  A    between atoms: O_7  and  C_8
REMARK    5  A    between atoms: C_8  and  C_9
REMARK                            x       y       z     vdW  Elec       q    Type
REMARK                         _______ _______ _______ _____ _____    ______ ____
ROOT
ATOM      1  C   UNL     1      48.672   4.043  18.104  0.00  0.00    +0.000 A 
ATOM      2  C   UNL     1      49.020   2.817  17.524  0.00  0.00    +0.000 A 
ATOM      3  C   UNL     1      48.549   2.461  16.255  0.00  0.00    +0.000 A 
ATOM      4  C   UNL     1      47.712   3.327  15.548  0.00  0.00    +0.000 A 
ATOM      5  C   UNL     1      47.371   4.555  16.115  0.00  0.00    +0.000 A 
ATOM      6  C   UNL     1      47.838   4.909  17.386  0.00  0.00    +0.000 A 
ENDROOT
BRANCH   1   7
ATOM      7  C   UNL     1      49.172   4.408  19.480  0.00  0.00    +0.000 C 
BRANCH   7   8
ATOM      8  N   UNL     1      48.427   3.720  20.528  0.00  0.00    +0.000 NA
ATOM      9  H   UNL     1      47.905   2.950  20.116  0.00  0.00    +0.000 HD
ATOM     10  H   UNL     1      47.735   4.364  20.912  0.00  0.00    +0.000 HD
ENDBRANCH   7   8
ENDBRANCH   1   7
BRANCH   4  11
ATOM     11  O   UNL     1      47.212   3.091  14.293  0.00  0.00    +0.000 OA
BRANCH  11  12
ATOM     12  C   UNL     1      46.837   4.260  13.561  0.00  0.00    +0.000 C 
BRANCH  12  13
ATOM     13  C   UNL     1      45.495   4.086  12.898  0.00  0.00    +0.000 A 
ATOM     14  C   UNL     1      45.371   3.313  11.738  0.00  0.00    +0.000 A 
ATOM     15  C   UNL     1      44.147   3.235  11.081  0.00  0.00    +0.000 A 
ATOM     16  C   UNL     1      43.079   3.946  11.599  0.00  0.00    +0.000 A 
ATOM     17  N   UNL     1      43.158   4.711  12.709  0.00  0.00    +0.000 NA
ATOM     18  C   UNL     1      44.361   4.768  13.328  0.00  0.00    +0.000 A 
ENDBRANCH  12  13
ENDBRANCH  11  12
ENDBRANCH   4  11
TORSDOF 5
ENDMDL
MODEL 6
REMARK VINA RESULT:    -5.202      3.733      5.477
REMARK INTER + INTRA:          -7.062
REMARK INTER:                  -6.716
REMARK INTRA:                  -0.346
REMARK UNBOUND:                -0.492
REMARK  Name = 
REMARK  5 active torsions:
REMARK  status: ('A' for Active; 'I' for Inactive)
REMARK    1  A    between atoms: N_1  and  C_2
REMARK    2  A    between atoms: C_2  and  C_3
REMARK    3  A    between atoms: C_6  and  O_7
REMARK    4  A    between atoms: O_7  and  C_8
REMARK    5  A    between atoms: C_8  and  C_9
REMARK                            x       y       z     vdW  Elec       q    Type
REMARK                         _______ _______ _______ _____ _____    ______ ____
ROOT
ATOM      1  C   UNL     1      45.307   4.777  11.322  0.00  0.00    +0.000 A 
ATOM      2  C   UNL     1      45.360   3.701  12.216  0.00  0.00    +0.000 A 
ATOM      3  C   UNL     1      46.110   3.779  13.394  0.00  0.00    +0.000 A 
ATOM      4  C   UNL     1      46.830   4.938  13.693  0.00  0.00    +0.000 A 
ATOM      5  C   UNL     1      46.772   6.019  12.813  0.00  0.00    +0.000 A 
ATOM      6  C   UNL     1      46.025   5.938  11.632  0.00  0.00    +0.000 A 
ENDROOT
BRANCH   1   7
ATOM      7  C   UNL     1      44.508   4.674  10.047  0.00  0.00    +0.000 C 
BRANCH   7   8
ATOM      8  N   UNL     1      45.296   5.055   8.880  0.00  0.00    +0.000 NA
ATOM      9  H   UNL     1      45.899   5.837   9.125  0.00  0.00    +0.000 HD
ATOM     10  H   UNL     1      44.663   5.396   8.156  0.00  0.00    +0.000 HD
ENDBRANCH   7   8
ENDBRANCH   1   7
BRANCH   4  11
ATOM     11  O   UNL     1      47.578   5.133  14.826  0.00  0.00    +0.000 OA
BRANCH  11  12
ATOM     12  C   UNL     1      47.219   4.310  15.938  0.00  0.00    +0.000 C 
BRANCH  12  13
ATOM     13  C   UNL     1      48.421   3.608  16.512  0.00  0.00    +0.000 A 
ATOM     14  C   UNL     1      49.334   4.301  17.315  0.00  0.00    +0.000 A 
ATOM     15  C   UNL     1      50.489   3.668  17.763  0.00  0.00    +0.000 A 
ATOM     16  C   UNL     1      50.706   2.356  17.382  0.00  0.00    +0.000 A 
ATOM     17  N   UNL     1      49.858   1.653  16.601  0.00  0.00    +0.000 NA
ATOM     18  C   UNL     1      48.741   2.294  16.180  0.00  0.00    +0.000 A 
ENDBRANCH  12  13
ENDBRANCH  11  12
ENDBRANCH   4  11
TORSDOF 5
ENDMDL
MODEL 7
REMARK VINA RESULT:    -5.158      2.095      6.052
REMARK INTER + INTRA:          -7.007
REMARK INTER:                  -6.763
REMARK INTRA:                  -0.245
REMARK UNBOUND:                -0.492
REMARK  Name = 
REMARK  5 active torsions:
REMARK  status: ('A' for Active; 'I' for Inactive)
REMARK    1  A    between atoms: N_1  and  C_2
REMARK    2  A    between atoms: C_2  and  C_3
REMARK    3  A    between atoms: C_6  and  O_7
REMARK    4  A    between atoms: O_7  and  C_8
REMARK    5  A    between atoms: C_8  and  C_9
REMARK                            x       y       z     vdW  Elec       q    Type
REMARK                         _______ _______ _______ _____ _____    ______ ____
ROOT
ATOM      1  C   UNL     1      47.597   7.240  13.612  0.00  0.00    +0.000 A 
ATOM      2  C   UNL     1      46.683   8.128  13.034  0.00  0.00    +0.000 A 
ATOM      3  C   UNL     1      45.612   7.660  12.264  0.00  0.00    +0.000 A 
ATOM      4  C   UNL     1      45.445   6.290  12.052  0.00  0.00    +0.000 A 
ATOM      5  C   UNL     1      46.347   5.399  12.635  0.00  0.00    +0.000 A 
ATOM      6  C   UNL     1      47.420   5.867  13.401  0.00  0.00    +0.000 A 
ENDROOT
BRANCH   1   7
ATOM      7  C   UNL     1      48.757   7.758  14.426  0.00  0.00    +0.000 C 
BRANCH   7   8
ATOM      8  N   UNL     1      49.744   6.717  14.690  0.00  0.00    +0.000 NA
ATOM      9  H   UNL     1      50.663   7.048  14.406  0.00  0.00    +0.000 HD
ATOM     10  H   UNL     1      49.534   5.912  14.100  0.00  0.00    +0.000 HD
ENDBRANCH   7   8
ENDBRANCH   1   7
BRANCH   4  11
ATOM     11  O   UNL     1      44.424   5.721  11.336  0.00  0.00    +0.000 OA
BRANCH  11  12
ATOM     12  C   UNL     1      44.452   4.293  11.269  0.00  0.00    +0.000 C 
BRANCH  12  13
ATOM     13  C   UNL     1      44.951   3.816   9.930  0.00  0.00    +0.000 A 
ATOM     14  C   UNL     1      45.064   2.447   9.661  0.00  0.00    +0.000 A 
ATOM     15  C   UNL     1      45.614   2.017   8.458  0.00  0.00    +0.000 A 
ATOM     16  C   UNL     1      46.049   2.974   7.558  0.00  0.00    +0.000 A 
ATOM     17  N   UNL     1      45.969   4.303   7.782  0.00  0.00    +0.000 NA
ATOM     18  C   UNL     1      45.429   4.693   8.961  0.00  0.00    +0.000 A 
ENDBRANCH  12  13
ENDBRANCH  11  12
ENDBRANCH   4  11
TORSDOF 5
ENDMDL
MODEL 8
REMARK VINA RESULT:    -4.995      3.288      4.912
REMARK INTER + INTRA:          -6.801
REMARK INTER:                  -6.531
REMARK INTRA:                  -0.270
REMARK UNBOUND:                -0.492
REMARK  Name = 
REMARK  5 active torsions:
REMARK  status: ('A' for Active; 'I' for Inactive)
REMARK    1  A    between atoms: N_1  and  C_2
REMARK    2  A    between atoms: C_2  and  C_3
REMARK    3  A    between atoms: C_6  and  O_7
REMARK    4  A    between atoms: O_7  and  C_8
REMARK    5  A    between atoms: C_8  and  C_9
REMARK                            x       y       z     vdW  Elec       q    Type
REMARK                         _______ _______ _______ _____ _____    ______ ____
ROOT
ATOM      1  C   UNL     1      44.963   4.367  10.381  0.00  0.00    +0.000 A 
ATOM      2  C   UNL     1      45.580   5.506  10.912  0.00  0.00    +0.000 A 
ATOM      3  C   UNL     1      45.965   5.556  12.257  0.00  0.00    +0.000 A 
ATOM      4  C   UNL     1      45.729   4.466  13.096  0.00  0.00    +0.000 A 
ATOM      5  C   UNL     1      45.125   3.323  12.571  0.00  0.00    +0.000 A 
ATOM      6  C   UNL     1      44.736   3.275  11.227  0.00  0.00    +0.000 A 
ENDROOT
BRANCH   1   7
ATOM      7  C   UNL     1      44.537   4.333   8.935  0.00  0.00    +0.000 C 
BRANCH   7   8
ATOM      8  N   UNL     1      45.632   4.685   8.038  0.00  0.00    +0.000 NA
ATOM      9  H   UNL     1      45.686   5.698   7.958  0.00  0.00    +0.000 HD
ATOM     10  H   UNL     1      45.415   4.334   7.105  0.00  0.00    +0.000 HD
ENDBRANCH   7   8
ENDBRANCH   1   7
BRANCH   4  11
ATOM     11  O   UNL     1      46.083   4.396  14.419  0.00  0.00    +0.000 OA
BRANCH  11  12
ATOM     12  C   UNL     1      47.246   3.613  14.696  0.00  0.00    +0.000 C 
BRANCH  12  13
ATOM     13  C   UNL     1      47.787   3.899  16.072  0.00  0.00    +0.000 A 
ATOM     14  C   UNL     1      47.960   2.862  16.997  0.00  0.00    +0.000 A 
ATOM     15  C   UNL     1      48.370   3.148  18.295  0.00  0.00    +0.000 A 
ATOM     16  C   UNL     1      48.585   4.472  18.637  0.00  0.00    +0.000 A 
ATOM     17  N   UNL     1      48.419   5.502  17.781  0.00  0.00    +0.000 NA
ATOM     18  C   UNL     1      48.020   5.195  16.523  0.00  0.00    +0.000 A 
ENDBRANCH  12  13
ENDBRANCH  11  12
ENDBRANCH   4  11
TORSDOF 5
ENDMDL
MODEL 9
REMARK VINA RESULT:    -4.882      4.441      6.020
REMARK INTER + INTRA:          -6.658
REMARK INTER:                  -6.239
REMARK INTRA:                  -0.418
REMARK UNBOUND:                -0.492
REMARK  Name = 
REMARK  5 active torsions:
REMARK  status: ('A' for Active; 'I' for Inactive)
REMARK    1  A    between atoms: N_1  and  C_2
REMARK    2  A    between atoms: C_2  and  C_3
REMARK    3  A    between atoms: C_6  and  O_7
REMARK    4  A    between atoms: O_7  and  C_8
REMARK    5  A    between atoms: C_8  and  C_9
REMARK                            x       y       z     vdW  Elec       q    Type
REMARK                         _______ _______ _______ _____ _____    ______ ____
ROOT
ATOM      1  C   UNL     1      44.053   5.444  12.130  0.00  0.00    +0.000 A 
ATOM      2  C   UNL     1      44.494   4.126  12.294  0.00  0.00    +0.000 A 
ATOM      3  C   UNL     1      45.717   3.847  12.913  0.00  0.00    +0.000 A 
ATOM      4  C   UNL     1      46.527   4.888  13.371  0.00  0.00    +0.000 A 
ATOM      5  C   UNL     1      46.088   6.204  13.222  0.00  0.00    +0.000 A 
ATOM      6  C   UNL     1      44.866   6.483  12.599  0.00  0.00    +0.000 A 
ENDROOT
BRANCH   1   7
ATOM      7  C   UNL     1      42.740   5.732  11.446  0.00  0.00    +0.000 C 
BRANCH   7   8
ATOM      8  N   UNL     1      42.589   7.149  11.135  0.00  0.00    +0.000 NA
ATOM      9  H   UNL     1      43.457   7.633  11.351  0.00  0.00    +0.000 HD
ATOM     10  H   UNL     1      41.878   7.544  11.752  0.00  0.00    +0.000 HD
ENDBRANCH   7   8
ENDBRANCH   1   7
BRANCH   4  11
ATOM     11  O   UNL     1      47.729   4.731  14.010  0.00  0.00    +0.000 OA
BRANCH  11  12
ATOM     12  C   UNL     1      47.971   5.645  15.082  0.00  0.00    +0.000 C 
BRANCH  12  13
ATOM     13  C   UNL     1      48.202   4.919  16.382  0.00  0.00    +0.000 A 
ATOM     14  C   UNL     1      47.753   3.604  16.551  0.00  0.00    +0.000 A 
ATOM     15  C   UNL     1      47.887   2.976  17.785  0.00  0.00    +0.000 A 
ATOM     16  C   UNL     1      48.458   3.689  18.824  0.00  0.00    +0.000 A 
ATOM     17  N   UNL     1      48.894   4.961  18.707  0.00  0.00    +0.000 NA
ATOM     18  C   UNL     1      48.752   5.548  17.495  0.00  0.00    +0.000 A 
ENDBRANCH  12  13
ENDBRANCH  11  12
ENDBRANCH   4  11
TORSDOF 5
ENDMDL
