MODEL 1
REMARK VINA RESULT:    -8.645      0.000      0.000
REMARK INTER + INTRA:         -13.385
REMARK INTER:                 -12.183
REMARK INTRA:                  -1.202
REMARK UNBOUND:                -1.202
REMARK  Name = 
REMARK  10 active torsions:
REMARK  status: ('A' for Active; 'I' for Inactive)
REMARK    1  A    between atoms: C_1  and  C_2
REMARK    2  A    between atoms: C_2  and  N_3
REMARK    3  A    between atoms: N_3  and  C_4
REMARK    4  A    between atoms: N_3  and  C_17
REMARK    5  A    between atoms: C_4  and  C_5
REMARK    6  A    between atoms: C_5  and  C_6
REMARK    7  A    between atoms: C_5  and  C_7
REMARK    8  A    between atoms: C_5  and  C_8
REMARK    9  A    between atoms: C_12  and  C_13
REMARK   10  A    between atoms: C_20  and  C_21
REMARK                            x       y       z     vdW  Elec       q    Type
REMARK                         _______ _______ _______ _____ _____    ______ ____
ROOT
ATOM      1  N   UNL     1      43.953   3.796  10.444  0.00  0.00    +0.000 N 
ENDROOT
BRANCH   1   2
ATOM      2  C   UNL     1      44.872   3.416   9.443  0.00  0.00    +0.000 A 
ATOM      3  C   UNL     1      45.511   4.371   8.625  0.00  0.00    +0.000 A 
ATOM      4  C   UNL     1      46.409   4.012   7.613  0.00  0.00    +0.000 A 
ATOM      5  C   UNL     1      46.702   2.671   7.373  0.00  0.00    +0.000 A 
ATOM      6  C   UNL     1      46.078   1.711   8.170  0.00  0.00    +0.000 A 
ATOM      7  F   UNL     1      46.320   0.403   7.991  0.00  0.00    +0.000 F 
ATOM      8  C   UNL     1      45.180   2.075   9.183  0.00  0.00    +0.000 A 
BRANCH   5   9
ATOM      9  C   UNL     1      47.651   2.345   6.278  0.00  0.00    +0.000 C 
ATOM     10  N   UNL     1      47.667   3.162   5.189  0.00  0.00    +0.000 N 
ATOM     11  O   UNL     1      48.397   1.372   6.350  0.00  0.00    +0.000 OA
ATOM     12  H   UNL     1      47.066   3.973   5.098  0.00  0.00    +0.000 HD
ATOM     13  H   UNL     1      48.311   2.954   4.444  0.00  0.00    +0.000 HD
ENDBRANCH   5   9
ENDBRANCH   1   2
BRANCH   1  15
ATOM     14  C   UNL     1      43.695   2.538  12.673  0.00  0.00    +0.000 C 
ATOM     15  C   UNL     1      43.349   2.679  11.199  0.00  0.00    +0.000 C 
ENDBRANCH   1  15
BRANCH   1  16
ATOM     16  C   UNL     1      43.394   5.181  10.404  0.00  0.00    +0.000 C 
BRANCH  16  17
ATOM     17  C   UNL     1      43.726   6.154  11.605  0.00  0.00    +0.000 C 
ATOM     18  C   UNL     1      43.438   7.621  11.224  0.00  0.00    +0.000 C 
ATOM     19  C   UNL     1      42.854   5.743  12.811  0.00  0.00    +0.000 C 
BRANCH  17  20
ATOM     20  C   UNL     1      45.209   6.106  12.102  0.00  0.00    +0.000 A 
ATOM     21  C   UNL     1      46.260   6.820  11.506  0.00  0.00    +0.000 A 
ATOM     22  C   UNL     1      47.574   6.722  11.993  0.00  0.00    +0.000 A 
ATOM     23  C   UNL     1      47.871   5.904  13.082  0.00  0.00    +0.000 A 
ATOM     24  C   UNL     1      46.852   5.192  13.709  0.00  0.00    +0.000 A 
ATOM     25  C   UNL     1      45.539   5.303  13.224  0.00  0.00    +0.000 A 
BRANCH  24  26
ATOM     26  C   UNL     1      47.200   4.300  14.850  0.00  0.00    +0.000 C 
ATOM     27  N   UNL     1      47.167   4.835  16.109  0.00  0.00    +0.000 N 
ATOM     28  O   UNL     1      47.527   3.133  14.677  0.00  0.00    +0.000 OA
ATOM     29  H   UNL     1      47.150   5.830  16.279  0.00  0.00    +0.000 HD
ATOM     30  H   UNL     1      47.493   4.237  16.858  0.00  0.00    +0.000 HD
ENDBRANCH  24  26
ENDBRANCH  17  20
ENDBRANCH  16  17
ENDBRANCH   1  16
TORSDOF 7
ENDMDL
MODEL 2
REMARK VINA RESULT:    -7.246      2.167      2.719
REMARK INTER + INTRA:         -11.414
REMARK INTER:                 -10.267
REMARK INTRA:                  -1.147
REMARK UNBOUND:                -1.202
REMARK  Name = 
REMARK  10 active torsions:
REMARK  status: ('A' for Active; 'I' for Inactive)
REMARK    1  A    between atoms: C_1  and  C_2
REMARK    2  A    between atoms: C_2  and  N_3
REMARK    3  A    between atoms: N_3  and  C_4
REMARK    4  A    between atoms: N_3  and  C_17
REMARK    5  A    between atoms: C_4  and  C_5
REMARK    6  A    between atoms: C_5  and  C_6
REMARK    7  A    between atoms: C_5  and  C_7
REMARK    8  A    between atoms: C_5  and  C_8
REMARK    9  A    between atoms: C_12  and  C_13
REMARK   10  A    between atoms: C_20  and  C_21
REMARK                            x       y       z     vdW  Elec       q    Type
REMARK                         _______ _______ _______ _____ _____    ______ ____
ROOT
ATOM      1  N   UNL     1      44.481   4.009  10.458  0.00  0.00    +0.000 N 
ENDROOT
BRANCH   1   2
ATOM      2  C   UNL     1      45.259   3.566   9.368  0.00  0.00    +0.000 A 
ATOM      3  C   UNL     1      45.831   4.471   8.451  0.00  0.00    +0.000 A 
ATOM      4  C   UNL     1      46.588   4.048   7.352  0.00  0.00    +0.000 A 
ATOM      5  C   UNL     1      46.799   2.690   7.120  0.00  0.00    +0.000 A 
ATOM      6  C   UNL     1      46.239   1.778   8.015  0.00  0.00    +0.000 A 
ATOM      7  F   UNL     1      46.408   0.457   7.850  0.00  0.00    +0.000 F 
ATOM      8  C   UNL     1      45.483   2.206   9.116  0.00  0.00    +0.000 A 
BRANCH   5   9
ATOM      9  C   UNL     1      47.598   2.297   5.932  0.00  0.00    +0.000 C 
ATOM     10  N   UNL     1      47.355   2.948   4.761  0.00  0.00    +0.000 N 
ATOM     11  O   UNL     1      48.449   1.414   6.000  0.00  0.00    +0.000 OA
ATOM     12  H   UNL     1      46.661   3.681   4.671  0.00  0.00    +0.000 HD
ATOM     13  H   UNL     1      47.895   2.694   3.951  0.00  0.00    +0.000 HD
ENDBRANCH   5   9
ENDBRANCH   1   2
BRANCH   1  15
ATOM     14  C   UNL     1      43.517   2.511  12.314  0.00  0.00    +0.000 C 
ATOM     15  C   UNL     1      43.429   3.071  10.904  0.00  0.00    +0.000 C 
ENDBRANCH   1  15
BRANCH   1  16
ATOM     16  C   UNL     1      44.511   5.462  10.805  0.00  0.00    +0.000 C 
BRANCH  16  17
ATOM     17  C   UNL     1      45.170   5.888  12.178  0.00  0.00    +0.000 C 
ATOM     18  C   UNL     1      44.105   6.016  13.287  0.00  0.00    +0.000 C 
ATOM     19  C   UNL     1      46.206   4.812  12.567  0.00  0.00    +0.000 C 
BRANCH  17  20
ATOM     20  C   UNL     1      45.943   7.248  12.144  0.00  0.00    +0.000 A 
ATOM     21  C   UNL     1      45.324   8.500  12.005  0.00  0.00    +0.000 A 
ATOM     22  C   UNL     1      46.079   9.684  11.967  0.00  0.00    +0.000 A 
ATOM     23  C   UNL     1      47.469   9.646  12.062  0.00  0.00    +0.000 A 
ATOM     24  C   UNL     1      48.118   8.424  12.217  0.00  0.00    +0.000 A 
ATOM     25  C   UNL     1      47.357   7.245  12.264  0.00  0.00    +0.000 A 
BRANCH  24  26
ATOM     26  C   UNL     1      49.606   8.407  12.283  0.00  0.00    +0.000 C 
ATOM     27  N   UNL     1      50.245   7.249  11.929  0.00  0.00    +0.000 N 
ATOM     28  O   UNL     1      50.244   9.380  12.660  0.00  0.00    +0.000 OA
ATOM     29  H   UNL     1      49.768   6.363  11.854  0.00  0.00    +0.000 HD
ATOM     30  H   UNL     1      51.247   7.233  12.067  0.00  0.00    +0.000 HD
ENDBRANCH  24  26
ENDBRANCH  17  20
ENDBRANCH  16  17
ENDBRANCH   1  16
TORSDOF 7
ENDMDL
MODEL 3
REMARK VINA RESULT:    -7.037      2.114      2.662
REMARK INTER + INTRA:         -11.119
REMARK INTER:                 -10.084
REMARK INTRA:                  -1.035
REMARK UNBOUND:                -1.202
REMARK  Name = 
REMARK  10 active torsions:
REMARK  status: ('A' for Active; 'I' for Inactive)
REMARK    1  A    between atoms: C_1  and  C_2
REMARK    2  A    between atoms: C_2  and  N_3
REMARK    3  A    between atoms: N_3  and  C_4
REMARK    4  A    between atoms: N_3  and  C_17
REMARK    5  A    between atoms: C_4  and  C_5
REMARK    6  A    between atoms: C_5  and  C_6
REMARK    7  A    between atoms: C_5  and  C_7
REMARK    8  A    between atoms: C_5  and  C_8
REMARK    9  A    between atoms: C_12  and  C_13
REMARK   10  A    between atoms: C_20  and  C_21
REMARK                            x       y       z     vdW  Elec       q    Type
REMARK                         _______ _______ _______ _____ _____    ______ ____
ROOT
ATOM      1  N   UNL     1      43.984   4.170  10.541  0.00  0.00    +0.000 N 
ENDROOT
BRANCH   1   2
ATOM      2  C   UNL     1      44.826   3.597   9.564  0.00  0.00    +0.000 A 
ATOM      3  C   UNL     1      45.017   2.202   9.479  0.00  0.00    +0.000 A 
ATOM      4  C   UNL     1      45.865   1.618   8.530  0.00  0.00    +0.000 A 
ATOM      5  C   UNL     1      46.565   2.412   7.624  0.00  0.00    +0.000 A 
ATOM      6  C   UNL     1      46.390   3.794   7.693  0.00  0.00    +0.000 A 
ATOM      7  F   UNL     1      47.033   4.614   6.847  0.00  0.00    +0.000 F 
ATOM      8  C   UNL     1      45.539   4.375   8.644  0.00  0.00    +0.000 A 
BRANCH   5   9
ATOM      9  C   UNL     1      47.460   1.740   6.648  0.00  0.00    +0.000 C 
ATOM     10  N   UNL     1      48.612   2.378   6.301  0.00  0.00    +0.000 N 
ATOM     11  O   UNL     1      47.174   0.646   6.168  0.00  0.00    +0.000 OA
ATOM     12  H   UNL     1      48.878   3.280   6.679  0.00  0.00    +0.000 HD
ATOM     13  H   UNL     1      49.229   1.929   5.646  0.00  0.00    +0.000 HD
ENDBRANCH   5   9
ENDBRANCH   1   2
BRANCH   1  15
ATOM     14  C   UNL     1      43.678   2.622  12.572  0.00  0.00    +0.000 C 
ATOM     15  C   UNL     1      43.136   3.213  11.280  0.00  0.00    +0.000 C 
ENDBRANCH   1  15
BRANCH   1  16
ATOM     16  C   UNL     1      43.736   5.642  10.486  0.00  0.00    +0.000 C 
BRANCH  16  17
ATOM     17  C   UNL     1      44.125   6.512  11.747  0.00  0.00    +0.000 C 
ATOM     18  C   UNL     1      43.985   8.018  11.445  0.00  0.00    +0.000 C 
ATOM     19  C   UNL     1      43.187   6.120  12.908  0.00  0.00    +0.000 C 
BRANCH  17  20
ATOM     20  C   UNL     1      45.584   6.297  12.272  0.00  0.00    +0.000 A 
ATOM     21  C   UNL     1      45.939   5.343  13.238  0.00  0.00    +0.000 A 
ATOM     22  C   UNL     1      47.266   5.211  13.676  0.00  0.00    +0.000 A 
ATOM     23  C   UNL     1      48.270   6.033  13.166  0.00  0.00    +0.000 A 
ATOM     24  C   UNL     1      47.960   6.980  12.194  0.00  0.00    +0.000 A 
ATOM     25  C   UNL     1      46.633   7.100  11.753  0.00  0.00    +0.000 A 
BRANCH  24  26
ATOM     26  C   UNL     1      49.044   7.868  11.688  0.00  0.00    +0.000 C 
ATOM     27  N   UNL     1      50.294   7.330  11.553  0.00  0.00    +0.000 N 
ATOM     28  O   UNL     1      48.839   9.045  11.422  0.00  0.00    +0.000 OA
ATOM     29  H   UNL     1      50.564   6.459  11.985  0.00  0.00    +0.000 HD
ATOM     30  H   UNL     1      51.032   7.973  11.293  0.00  0.00    +0.000 HD
ENDBRANCH  24  26
ENDBRANCH  17  20
ENDBRANCH  16  17
ENDBRANCH   1  16
TORSDOF 7
ENDMDL
MODEL 4
REMARK VINA RESULT:    -6.520      1.470      2.342
REMARK INTER + INTRA:         -10.390
REMARK INTER:                  -9.873
REMARK INTRA:                  -0.517
REMARK UNBOUND:                -1.202
REMARK  Name = 
REMARK  10 active torsions:
REMARK  status: ('A' for Active; 'I' for Inactive)
REMARK    1  A    between atoms: C_1  and  C_2
REMARK    2  A    between atoms: C_2  and  N_3
REMARK    3  A    between atoms: N_3  and  C_4
REMARK    4  A    between atoms: N_3  and  C_17
REMARK    5  A    between atoms: C_4  and  C_5
REMARK    6  A    between atoms: C_5  and  C_6
REMARK    7  A    between atoms: C_5  and  C_7
REMARK    8  A    between atoms: C_5  and  C_8
REMARK    9  A    between atoms: C_12  and  C_13
REMARK   10  A    between atoms: C_20  and  C_21
REMARK                            x       y       z     vdW  Elec       q    Type
REMARK                         _______ _______ _______ _____ _____    ______ ____
ROOT
ATOM      1  N   UNL     1      44.634   4.753  10.711  0.00  0.00    +0.000 N 
ENDROOT
BRANCH   1   2
ATOM      2  C   UNL     1      45.284   4.093   9.647  0.00  0.00    +0.000 A 
ATOM      3  C   UNL     1      45.997   4.804   8.660  0.00  0.00    +0.000 A 
ATOM      4  C   UNL     1      46.630   4.167   7.586  0.00  0.00    +0.000 A 
ATOM      5  C   UNL     1      46.569   2.782   7.451  0.00  0.00    +0.000 A 
ATOM      6  C   UNL     1      45.866   2.060   8.416  0.00  0.00    +0.000 A 
ATOM      7  F   UNL     1      45.772   0.723   8.345  0.00  0.00    +0.000 F 
ATOM      8  C   UNL     1      45.235   2.702   9.492  0.00  0.00    +0.000 A 
BRANCH   5   9
ATOM      9  C   UNL     1      47.246   2.160   6.285  0.00  0.00    +0.000 C 
ATOM     10  N   UNL     1      47.175   2.808   5.091  0.00  0.00    +0.000 N 
ATOM     11  O   UNL     1      47.851   1.096   6.393  0.00  0.00    +0.000 OA
ATOM     12  H   UNL     1      46.685   3.687   4.968  0.00  0.00    +0.000 HD
ATOM     13  H   UNL     1      47.635   2.399   4.296  0.00  0.00    +0.000 HD
ENDBRANCH   5   9
ENDBRANCH   1   2
BRANCH   1  15
ATOM     14  C   UNL     1      42.388   5.574  11.657  0.00  0.00    +0.000 C 
ATOM     15  C   UNL     1      43.205   5.053  10.487  0.00  0.00    +0.000 C 
ENDBRANCH   1  15
BRANCH   1  16
ATOM     16  C   UNL     1      45.476   5.413  11.755  0.00  0.00    +0.000 C 
BRANCH  16  17
ATOM     17  C   UNL     1      45.695   4.655  13.125  0.00  0.00    +0.000 C 
ATOM     18  C   UNL     1      44.404   4.657  13.970  0.00  0.00    +0.000 C 
ATOM     19  C   UNL     1      46.113   3.204  12.809  0.00  0.00    +0.000 C 
BRANCH  17  20
ATOM     20  C   UNL     1      46.822   5.248  14.034  0.00  0.00    +0.000 A 
ATOM     21  C   UNL     1      47.538   6.418  13.735  0.00  0.00    +0.000 A 
ATOM     22  C   UNL     1      48.550   6.889  14.587  0.00  0.00    +0.000 A 
ATOM     23  C   UNL     1      48.876   6.200  15.754  0.00  0.00    +0.000 A 
ATOM     24  C   UNL     1      48.177   5.045  16.092  0.00  0.00    +0.000 A 
ATOM     25  C   UNL     1      47.160   4.585  15.242  0.00  0.00    +0.000 A 
BRANCH  24  26
ATOM     26  C   UNL     1      48.567   4.309  17.328  0.00  0.00    +0.000 C 
ATOM     27  N   UNL     1      47.663   4.267  18.354  0.00  0.00    +0.000 N 
ATOM     28  O   UNL     1      49.663   3.775  17.440  0.00  0.00    +0.000 OA
ATOM     29  H   UNL     1      46.868   4.886  18.407  0.00  0.00    +0.000 HD
ATOM     30  H   UNL     1      47.983   3.839  19.214  0.00  0.00    +0.000 HD
ENDBRANCH  24  26
ENDBRANCH  17  20
ENDBRANCH  16  17
ENDBRANCH   1  16
TORSDOF 7
ENDMDL
MODEL 5
REMARK VINA RESULT:    -6.486      4.363      6.669
REMARK INTER + INTRA:         -10.342
REMARK INTER:                  -8.827
REMARK INTRA:                  -1.516
REMARK UNBOUND:                -1.202
REMARK  Name = 
REMARK  10 active torsions:
REMARK  status: ('A' for Active; 'I' for Inactive)
REMARK    1  A    between atoms: C_1  and  C_2
REMARK    2  A    between atoms: C_2  and  N_3
REMARK    3  A    between atoms: N_3  and  C_4
REMARK    4  A    between atoms: N_3  and  C_17
REMARK    5  A    between atoms: C_4  and  C_5
REMARK    6  A    between atoms: C_5  and  C_6
REMARK    7  A    between atoms: C_5  and  C_7
REMARK    8  A    between atoms: C_5  and  C_8
REMARK    9  A    between atoms: C_12  and  C_13
REMARK   10  A    between atoms: C_20  and  C_21
REMARK                            x       y       z     vdW  Elec       q    Type
REMARK                         _______ _______ _______ _____ _____    ______ ____
ROOT
ATOM      1  N   UNL     1      48.568   7.249  13.240  0.00  0.00    +0.000 N 
ENDROOT
BRANCH   1   2
ATOM      2  C   UNL     1      47.363   6.518  13.181  0.00  0.00    +0.000 A 
ATOM      3  C   UNL     1      47.218   5.275  13.831  0.00  0.00    +0.000 A 
ATOM      4  C   UNL     1      46.036   4.527  13.765  0.00  0.00    +0.000 A 
ATOM      5  C   UNL     1      44.945   4.994  13.035  0.00  0.00    +0.000 A 
ATOM      6  C   UNL     1      45.069   6.221  12.383  0.00  0.00    +0.000 A 
ATOM      7  F   UNL     1      44.053   6.727  11.666  0.00  0.00    +0.000 F 
ATOM      8  C   UNL     1      46.254   6.968  12.453  0.00  0.00    +0.000 A 
BRANCH   5   9
ATOM      9  C   UNL     1      43.721   4.153  12.987  0.00  0.00    +0.000 C 
ATOM     10  N   UNL     1      43.857   2.858  12.591  0.00  0.00    +0.000 N 
ATOM     11  O   UNL     1      42.623   4.609  13.295  0.00  0.00    +0.000 OA
ATOM     12  H   UNL     1      44.748   2.451  12.332  0.00  0.00    +0.000 HD
ATOM     13  H   UNL     1      43.036   2.278  12.561  0.00  0.00    +0.000 HD
ENDBRANCH   5   9
ENDBRANCH   1   2
BRANCH   1  15
ATOM     14  C   UNL     1      50.441   8.325  11.844  0.00  0.00    +0.000 C 
ATOM     15  C   UNL     1      49.000   7.855  11.964  0.00  0.00    +0.000 C 
ENDBRANCH   1  15
BRANCH   1  16
ATOM     16  C   UNL     1      49.467   7.038  14.416  0.00  0.00    +0.000 C 
BRANCH  16  17
ATOM     17  C   UNL     1      49.302   7.997  15.662  0.00  0.00    +0.000 C 
ATOM     18  C   UNL     1      50.668   8.548  16.119  0.00  0.00    +0.000 C 
ATOM     19  C   UNL     1      48.376   9.162  15.252  0.00  0.00    +0.000 C 
BRANCH  17  20
ATOM     20  C   UNL     1      48.644   7.337  16.919  0.00  0.00    +0.000 A 
ATOM     21  C   UNL     1      48.298   8.040  18.084  0.00  0.00    +0.000 A 
ATOM     22  C   UNL     1      47.723   7.384  19.185  0.00  0.00    +0.000 A 
ATOM     23  C   UNL     1      47.486   6.011  19.152  0.00  0.00    +0.000 A 
ATOM     24  C   UNL     1      47.802   5.283  18.008  0.00  0.00    +0.000 A 
ATOM     25  C   UNL     1      48.366   5.946  16.907  0.00  0.00    +0.000 A 
BRANCH  24  26
ATOM     26  C   UNL     1      47.569   3.811  18.009  0.00  0.00    +0.000 C 
ATOM     27  N   UNL     1      48.281   3.057  18.902  0.00  0.00    +0.000 N 
ATOM     28  O   UNL     1      46.788   3.282  17.230  0.00  0.00    +0.000 OA
ATOM     29  H   UNL     1      49.099   3.403  19.380  0.00  0.00    +0.000 HD
ATOM     30  H   UNL     1      48.173   2.053  18.824  0.00  0.00    +0.000 HD
ENDBRANCH  24  26
ENDBRANCH  17  20
ENDBRANCH  16  17
ENDBRANCH   1  16
TORSDOF 7
ENDMDL
MODEL 6
REMARK VINA RESULT:    -6.395      3.641      6.092
REMARK INTER + INTRA:         -10.215
REMARK INTER:                  -8.810
REMARK INTRA:                  -1.405
REMARK UNBOUND:                -1.202
REMARK  Name = 
REMARK  10 active torsions:
REMARK  status: ('A' for Active; 'I' for Inactive)
REMARK    1  A    between atoms: C_1  and  C_2
REMARK    2  A    between atoms: C_2  and  N_3
REMARK    3  A    between atoms: N_3  and  C_4
REMARK    4  A    between atoms: N_3  and  C_17
REMARK    5  A    between atoms: C_4  and  C_5
REMARK    6  A    between atoms: C_5  and  C_6
REMARK    7  A    between atoms: C_5  and  C_7
REMARK    8  A    between atoms: C_5  and  C_8
REMARK    9  A    between atoms: C_12  and  C_13
REMARK   10  A    between atoms: C_20  and  C_21
REMARK                            x       y       z     vdW  Elec       q    Type
REMARK                         _______ _______ _______ _____ _____    ______ ____
ROOT
ATOM      1  N   UNL     1      47.906   7.644  12.907  0.00  0.00    +0.000 N 
ENDROOT
BRANCH   1   2
ATOM      2  C   UNL     1      47.004   6.578  12.705  0.00  0.00    +0.000 A 
ATOM      3  C   UNL     1      47.147   5.349  13.383  0.00  0.00    +0.000 A 
ATOM      4  C   UNL     1      46.275   4.274  13.179  0.00  0.00    +0.000 A 
ATOM      5  C   UNL     1      45.219   4.382  12.276  0.00  0.00    +0.000 A 
ATOM      6  C   UNL     1      45.062   5.589  11.594  0.00  0.00    +0.000 A 
ATOM      7  F   UNL     1      44.063   5.758  10.714  0.00  0.00    +0.000 F 
ATOM      8  C   UNL     1      45.937   6.664  11.803  0.00  0.00    +0.000 A 
BRANCH   5   9
ATOM      9  C   UNL     1      44.332   3.206  12.088  0.00  0.00    +0.000 C 
ATOM     10  N   UNL     1      44.406   2.539  10.904  0.00  0.00    +0.000 N 
ATOM     11  O   UNL     1      43.558   2.845  12.971  0.00  0.00    +0.000 OA
ATOM     12  H   UNL     1      45.034   2.811  10.156  0.00  0.00    +0.000 HD
ATOM     13  H   UNL     1      43.814   1.737  10.768  0.00  0.00    +0.000 HD
ENDBRANCH   5   9
ENDBRANCH   1   2
BRANCH   1  15
ATOM     14  C   UNL     1      48.715   9.759  11.689  0.00  0.00    +0.000 C 
ATOM     15  C   UNL     1      47.573   8.893  12.193  0.00  0.00    +0.000 C 
ENDBRANCH   1  15
BRANCH   1  16
ATOM     16  C   UNL     1      49.255   7.334  13.471  0.00  0.00    +0.000 C 
BRANCH  16  17
ATOM     17  C   UNL     1      49.554   7.755  14.965  0.00  0.00    +0.000 C 
ATOM     18  C   UNL     1      50.847   8.592  15.055  0.00  0.00    +0.000 C 
ATOM     19  C   UNL     1      48.356   8.582  15.479  0.00  0.00    +0.000 C 
BRANCH  17  20
ATOM     20  C   UNL     1      49.724   6.564  15.965  0.00  0.00    +0.000 A 
ATOM     21  C   UNL     1      50.935   6.234  16.594  0.00  0.00    +0.000 A 
ATOM     22  C   UNL     1      51.024   5.141  17.471  0.00  0.00    +0.000 A 
ATOM     23  C   UNL     1      49.909   4.347  17.736  0.00  0.00    +0.000 A 
ATOM     24  C   UNL     1      48.687   4.653  17.143  0.00  0.00    +0.000 A 
ATOM     25  C   UNL     1      48.602   5.753  16.275  0.00  0.00    +0.000 A 
BRANCH  24  26
ATOM     26  C   UNL     1      47.518   3.770  17.417  0.00  0.00    +0.000 C 
ATOM     27  N   UNL     1      47.614   2.896  18.465  0.00  0.00    +0.000 N 
ATOM     28  O   UNL     1      46.511   3.802  16.721  0.00  0.00    +0.000 OA
ATOM     29  H   UNL     1      48.492   2.660  18.901  0.00  0.00    +0.000 HD
ATOM     30  H   UNL     1      46.845   2.246  18.576  0.00  0.00    +0.000 HD
ENDBRANCH  24  26
ENDBRANCH  17  20
ENDBRANCH  16  17
ENDBRANCH   1  16
TORSDOF 7
ENDMDL
MODEL 7
REMARK VINA RESULT:    -6.205      4.113      7.847
REMARK INTER + INTRA:          -9.946
REMARK INTER:                  -8.518
REMARK INTRA:                  -1.427
REMARK UNBOUND:                -1.202
REMARK  Name = 
REMARK  10 active torsions:
REMARK  status: ('A' for Active; 'I' for Inactive)
REMARK    1  A    between atoms: C_1  and  C_2
REMARK    2  A    between atoms: C_2  and  N_3
REMARK    3  A    between atoms: N_3  and  C_4
REMARK    4  A    between atoms: N_3  and  C_17
REMARK    5  A    between atoms: C_4  and  C_5
REMARK    6  A    between atoms: C_5  and  C_6
REMARK    7  A    between atoms: C_5  and  C_7
REMARK    8  A    between atoms: C_5  and  C_8
REMARK    9  A    between atoms: C_12  and  C_13
REMARK   10  A    between atoms: C_20  and  C_21
REMARK                            x       y       z     vdW  Elec       q    Type
REMARK                         _______ _______ _______ _____ _____    ______ ____
ROOT
ATOM      1  N   UNL     1      49.535   8.099  15.007  0.00  0.00    +0.000 N 
ENDROOT
BRANCH   1   2
ATOM      2  C   UNL     1      49.439   6.912  15.764  0.00  0.00    +0.000 A 
ATOM      3  C   UNL     1      50.531   6.417  16.506  0.00  0.00    +0.000 A 
ATOM      4  C   UNL     1      50.460   5.230  17.245  0.00  0.00    +0.000 A 
ATOM      5  C   UNL     1      49.286   4.481  17.267  0.00  0.00    +0.000 A 
ATOM      6  C   UNL     1      48.194   4.953  16.537  0.00  0.00    +0.000 A 
ATOM      7  F   UNL     1      47.033   4.279  16.520  0.00  0.00    +0.000 F 
ATOM      8  C   UNL     1      48.269   6.143  15.799  0.00  0.00    +0.000 A 
BRANCH   5   9
ATOM      9  C   UNL     1      49.270   3.223  18.056  0.00  0.00    +0.000 C 
ATOM     10  N   UNL     1      48.565   3.215  19.221  0.00  0.00    +0.000 N 
ATOM     11  O   UNL     1      49.872   2.224  17.674  0.00  0.00    +0.000 OA
ATOM     12  H   UNL     1      48.057   4.021  19.564  0.00  0.00    +0.000 HD
ATOM     13  H   UNL     1      48.542   2.366  19.760  0.00  0.00    +0.000 HD
ENDBRANCH   5   9
ENDBRANCH   1   2
BRANCH   1  15
ATOM     14  C   UNL     1      50.494  10.153  16.223  0.00  0.00    +0.000 C 
ATOM     15  C   UNL     1      50.703   8.950  15.318  0.00  0.00    +0.000 C 
ENDBRANCH   1  15
BRANCH   1  16
ATOM     16  C   UNL     1      48.321   8.574  14.278  0.00  0.00    +0.000 C 
BRANCH  16  17
ATOM     17  C   UNL     1      48.164   8.180  12.755  0.00  0.00    +0.000 C 
ATOM     18  C   UNL     1      48.011   9.436  11.872  0.00  0.00    +0.000 C 
ATOM     19  C   UNL     1      49.421   7.391  12.331  0.00  0.00    +0.000 C 
BRANCH  17  20
ATOM     20  C   UNL     1      46.940   7.259  12.434  0.00  0.00    +0.000 A 
ATOM     21  C   UNL     1      45.757   7.708  11.827  0.00  0.00    +0.000 A 
ATOM     22  C   UNL     1      44.689   6.830  11.581  0.00  0.00    +0.000 A 
ATOM     23  C   UNL     1      44.773   5.486  11.940  0.00  0.00    +0.000 A 
ATOM     24  C   UNL     1      45.937   5.000  12.529  0.00  0.00    +0.000 A 
ATOM     25  C   UNL     1      47.005   5.880  12.764  0.00  0.00    +0.000 A 
BRANCH  24  26
ATOM     26  C   UNL     1      45.990   3.567  12.933  0.00  0.00    +0.000 C 
ATOM     27  N   UNL     1      44.982   2.748  12.503  0.00  0.00    +0.000 N 
ATOM     28  O   UNL     1      46.887   3.132  13.643  0.00  0.00    +0.000 OA
ATOM     29  H   UNL     1      44.111   3.100  12.137  0.00  0.00    +0.000 HD
ATOM     30  H   UNL     1      44.992   1.802  12.863  0.00  0.00    +0.000 HD
ENDBRANCH  24  26
ENDBRANCH  17  20
ENDBRANCH  16  17
ENDBRANCH   1  16
TORSDOF 7
ENDMDL
MODEL 8
REMARK VINA RESULT:    -5.885      3.206      7.416
REMARK INTER + INTRA:          -9.496
REMARK INTER:                  -8.120
REMARK INTRA:                  -1.376
REMARK UNBOUND:                -1.202
REMARK  Name = 
REMARK  10 active torsions:
REMARK  status: ('A' for Active; 'I' for Inactive)
REMARK    1  A    between atoms: C_1  and  C_2
REMARK    2  A    between atoms: C_2  and  N_3
REMARK    3  A    between atoms: N_3  and  C_4
REMARK    4  A    between atoms: N_3  and  C_17
REMARK    5  A    between atoms: C_4  and  C_5
REMARK    6  A    between atoms: C_5  and  C_6
REMARK    7  A    between atoms: C_5  and  C_7
REMARK    8  A    between atoms: C_5  and  C_8
REMARK    9  A    between atoms: C_12  and  C_13
REMARK   10  A    between atoms: C_20  and  C_21
REMARK                            x       y       z     vdW  Elec       q    Type
REMARK                         _______ _______ _______ _____ _____    ______ ____
ROOT
ATOM      1  N   UNL     1      47.590   7.291  13.719  0.00  0.00    +0.000 N 
ENDROOT
BRANCH   1   2
ATOM      2  C   UNL     1      47.857   6.266  14.652  0.00  0.00    +0.000 A 
ATOM      3  C   UNL     1      47.238   5.002  14.560  0.00  0.00    +0.000 A 
ATOM      4  C   UNL     1      47.474   3.981  15.488  0.00  0.00    +0.000 A 
ATOM      5  C   UNL     1      48.342   4.187  16.558  0.00  0.00    +0.000 A 
ATOM      6  C   UNL     1      48.963   5.431  16.668  0.00  0.00    +0.000 A 
ATOM      7  F   UNL     1      49.813   5.691  17.674  0.00  0.00    +0.000 F 
ATOM      8  C   UNL     1      48.725   6.451  15.735  0.00  0.00    +0.000 A 
BRANCH   5   9
ATOM      9  C   UNL     1      48.546   3.074  17.520  0.00  0.00    +0.000 C 
ATOM     10  N   UNL     1      47.671   2.965  18.557  0.00  0.00    +0.000 N 
ATOM     11  O   UNL     1      49.471   2.278  17.386  0.00  0.00    +0.000 OA
ATOM     12  H   UNL     1      46.897   3.604  18.696  0.00  0.00    +0.000 HD
ATOM     13  H   UNL     1      47.796   2.211  19.212  0.00  0.00    +0.000 HD
ENDBRANCH   5   9
ENDBRANCH   1   2
BRANCH   1  15
ATOM     14  C   UNL     1      48.316   9.708  13.226  0.00  0.00    +0.000 C 
ATOM     15  C   UNL     1      48.684   8.265  13.526  0.00  0.00    +0.000 C 
ENDBRANCH   1  15
BRANCH   1  16
ATOM     16  C   UNL     1      46.171   7.532  13.319  0.00  0.00    +0.000 C 
BRANCH  16  17
ATOM     17  C   UNL     1      45.726   7.107  11.862  0.00  0.00    +0.000 C 
ATOM     18  C   UNL     1      44.805   8.174  11.233  0.00  0.00    +0.000 C 
ATOM     19  C   UNL     1      46.995   6.936  11.002  0.00  0.00    +0.000 C 
BRANCH  17  20
ATOM     20  C   UNL     1      44.954   5.748  11.779  0.00  0.00    +0.000 A 
ATOM     21  C   UNL     1      44.112   5.260  12.790  0.00  0.00    +0.000 A 
ATOM     22  C   UNL     1      43.459   4.024  12.659  0.00  0.00    +0.000 A 
ATOM     23  C   UNL     1      43.636   3.242  11.518  0.00  0.00    +0.000 A 
ATOM     24  C   UNL     1      44.451   3.701  10.486  0.00  0.00    +0.000 A 
ATOM     25  C   UNL     1      45.093   4.942  10.620  0.00  0.00    +0.000 A 
BRANCH  24  26
ATOM     26  C   UNL     1      44.651   2.833   9.292  0.00  0.00    +0.000 C 
ATOM     27  N   UNL     1      45.186   3.407   8.171  0.00  0.00    +0.000 N 
ATOM     28  O   UNL     1      44.330   1.652   9.295  0.00  0.00    +0.000 OA
ATOM     29  H   UNL     1      45.233   4.406   8.039  0.00  0.00    +0.000 HD
ATOM     30  H   UNL     1      45.229   2.821   7.347  0.00  0.00    +0.000 HD
ENDBRANCH  24  26
ENDBRANCH  17  20
ENDBRANCH  16  17
ENDBRANCH   1  16
TORSDOF 7
ENDMDL
MODEL 9
REMARK VINA RESULT:    -5.661      4.526      8.207
REMARK INTER + INTRA:          -9.179
REMARK INTER:                  -7.932
REMARK INTRA:                  -1.248
REMARK UNBOUND:                -1.202
REMARK  Name = 
REMARK  10 active torsions:
REMARK  status: ('A' for Active; 'I' for Inactive)
REMARK    1  A    between atoms: C_1  and  C_2
REMARK    2  A    between atoms: C_2  and  N_3
REMARK    3  A    between atoms: N_3  and  C_4
REMARK    4  A    between atoms: N_3  and  C_17
REMARK    5  A    between atoms: C_4  and  C_5
REMARK    6  A    between atoms: C_5  and  C_6
REMARK    7  A    between atoms: C_5  and  C_7
REMARK    8  A    between atoms: C_5  and  C_8
REMARK    9  A    between atoms: C_12  and  C_13
REMARK   10  A    between atoms: C_20  and  C_21
REMARK                            x       y       z     vdW  Elec       q    Type
REMARK                         _______ _______ _______ _____ _____    ______ ____
ROOT
ATOM      1  N   UNL     1      49.185   8.280  14.633  0.00  0.00    +0.000 N 
ENDROOT
BRANCH   1   2
ATOM      2  C   UNL     1      49.607   7.294  15.549  0.00  0.00    +0.000 A 
ATOM      3  C   UNL     1      50.973   7.077  15.824  0.00  0.00    +0.000 A 
ATOM      4  C   UNL     1      51.412   6.090  16.715  0.00  0.00    +0.000 A 
ATOM      5  C   UNL     1      50.494   5.269  17.366  0.00  0.00    +0.000 A 
ATOM      6  C   UNL     1      49.138   5.466  17.106  0.00  0.00    +0.000 A 
ATOM      7  F   UNL     1      48.204   4.710  17.704  0.00  0.00    +0.000 F 
ATOM      8  C   UNL     1      48.703   6.457  16.214  0.00  0.00    +0.000 A 
BRANCH   5   9
ATOM      9  C   UNL     1      51.015   4.228  18.289  0.00  0.00    +0.000 C 
ATOM     10  N   UNL     1      50.886   2.926  17.914  0.00  0.00    +0.000 N 
ATOM     11  O   UNL     1      51.544   4.530  19.355  0.00  0.00    +0.000 OA
ATOM     12  H   UNL     1      50.455   2.643  17.042  0.00  0.00    +0.000 HD
ATOM     13  H   UNL     1      51.240   2.214  18.529  0.00  0.00    +0.000 HD
ENDBRANCH   5   9
ENDBRANCH   1   2
BRANCH   1  15
ATOM     14  C   UNL     1      49.941  10.665  15.228  0.00  0.00    +0.000 C 
ATOM     15  C   UNL     1      50.135   9.392  14.421  0.00  0.00    +0.000 C 
ENDBRANCH   1  15
BRANCH   1  16
ATOM     16  C   UNL     1      47.737   8.334  14.268  0.00  0.00    +0.000 C 
BRANCH  16  17
ATOM     17  C   UNL     1      47.304   7.785  12.850  0.00  0.00    +0.000 C 
ATOM     18  C   UNL     1      46.362   8.777  12.137  0.00  0.00    +0.000 C 
ATOM     19  C   UNL     1      48.580   7.574  12.007  0.00  0.00    +0.000 C 
BRANCH  17  20
ATOM     20  C   UNL     1      46.563   6.407  12.875  0.00  0.00    +0.000 A 
ATOM     21  C   UNL     1      47.109   5.231  13.411  0.00  0.00    +0.000 A 
ATOM     22  C   UNL     1      46.396   4.021  13.388  0.00  0.00    +0.000 A 
ATOM     23  C   UNL     1      45.123   3.955  12.824  0.00  0.00    +0.000 A 
ATOM     24  C   UNL     1      44.541   5.105  12.296  0.00  0.00    +0.000 A 
ATOM     25  C   UNL     1      45.255   6.313  12.332  0.00  0.00    +0.000 A 
BRANCH  24  26
ATOM     26  C   UNL     1      43.193   5.002  11.670  0.00  0.00    +0.000 C 
ATOM     27  N   UNL     1      42.391   6.111  11.702  0.00  0.00    +0.000 N 
ATOM     28  O   UNL     1      42.798   3.962  11.162  0.00  0.00    +0.000 OA
ATOM     29  H   UNL     1      42.566   6.894  12.313  0.00  0.00    +0.000 HD
ATOM     30  H   UNL     1      41.450   5.991  11.351  0.00  0.00    +0.000 HD
ENDBRANCH  24  26
ENDBRANCH  17  20
ENDBRANCH  16  17
ENDBRANCH   1  16
TORSDOF 7
ENDMDL
