MODEL 1
REMARK VINA RESULT:    -7.798      0.000      0.000
REMARK INTER + INTRA:         -10.243
REMARK INTER:                  -9.622
REMARK INTRA:                  -0.622
REMARK UNBOUND:                -0.622
REMARK  Name = 
REMARK  5 active torsions:
REMARK  status: ('A' for Active; 'I' for Inactive)
REMARK    1  A    between atoms: C_1  and  C_2
REMARK    2  A    between atoms: C_2  and  N_3
REMARK    3  A    between atoms: C_2  and  C_13
REMARK    4  A    between atoms: N_3  and  C_4
REMARK    5  A    between atoms: C_7  and  C_8
REMARK                            x       y       z     vdW  Elec       q    Type
REMARK                         _______ _______ _______ _____ _____    ______ ____
ROOT
ATOM      1  C   UNL     1      44.594   3.431   9.460  0.00  0.00    +0.000 A 
ATOM      2  C   UNL     1      45.159   4.370   8.589  0.00  0.00    +0.000 A 
ATOM      3  C   UNL     1      46.086   3.992   7.624  0.00  0.00    +0.000 A 
ATOM      4  C   UNL     1      46.444   2.657   7.554  0.00  0.00    +0.000 A 
ATOM      5  N   UNL     1      45.916   1.690   8.361  0.00  0.00    +0.000 NA
ATOM      6  C   UNL     1      44.999   2.110   9.280  0.00  0.00    +0.000 A 
ENDROOT
BRANCH   4   7
ATOM      7  C   UNL     1      47.484   2.238   6.559  0.00  0.00    +0.000 C 
ATOM      8  N   UNL     1      47.482   2.909   5.371  0.00  0.00    +0.000 N 
ATOM      9  O   UNL     1      48.290   1.336   6.784  0.00  0.00    +0.000 OA
ATOM     10  H   UNL     1      46.802   3.647   5.210  0.00  0.00    +0.000 HD
ATOM     11  H   UNL     1      48.151   2.658   4.658  0.00  0.00    +0.000 HD
ENDBRANCH   4   7
BRANCH   1  12
ATOM     12  N   UNL     1      43.711   3.910  10.412  0.00  0.00    +0.000 N 
ATOM     13  H   UNL     1      42.782   3.511  10.282  0.00  0.00    +0.000 HD
BRANCH  12  15
ATOM     14  C   UNL     1      42.420   5.457  11.814  0.00  0.00    +0.000 C 
ATOM     15  C   UNL     1      43.670   5.266  10.949  0.00  0.00    +0.000 C 
BRANCH  15  16
ATOM     16  C   UNL     1      44.888   5.504  11.842  0.00  0.00    +0.000 A 
ATOM     17  C   UNL     1      45.114   4.669  12.950  0.00  0.00    +0.000 A 
ATOM     18  C   UNL     1      46.310   4.748  13.670  0.00  0.00    +0.000 A 
ATOM     19  C   UNL     1      47.292   5.664  13.299  0.00  0.00    +0.000 A 
ATOM     20  C   UNL     1      47.065   6.532  12.236  0.00  0.00    +0.000 A 
ATOM     21  C   UNL     1      45.870   6.457  11.518  0.00  0.00    +0.000 A 
ENDBRANCH  15  16
ENDBRANCH  12  15
ENDBRANCH   1  12
TORSDOF 4
ENDMDL
MODEL 2
REMARK VINA RESULT:    -7.795      0.183      1.151
REMARK INTER + INTRA:         -10.239
REMARK INTER:                  -9.602
REMARK INTRA:                  -0.638
REMARK UNBOUND:                -0.622
REMARK  Name = 
REMARK  5 active torsions:
REMARK  status: ('A' for Active; 'I' for Inactive)
REMARK    1  A    between atoms: C_1  and  C_2
REMARK    2  A    between atoms: C_2  and  N_3
REMARK    3  A    between atoms: C_2  and  C_13
REMARK    4  A    between atoms: N_3  and  C_4
REMARK    5  A    between atoms: C_7  and  C_8
REMARK                            x       y       z     vdW  Elec       q    Type
REMARK                         _______ _______ _______ _____ _____    ______ ____
ROOT
ATOM      1  C   UNL     1      44.626   3.443   9.349  0.00  0.00    +0.000 A 
ATOM      2  C   UNL     1      45.203   4.355   8.457  0.00  0.00    +0.000 A 
ATOM      3  C   UNL     1      46.162   3.954   7.534  0.00  0.00    +0.000 A 
ATOM      4  C   UNL     1      46.542   2.623   7.529  0.00  0.00    +0.000 A 
ATOM      5  N   UNL     1      46.005   1.681   8.359  0.00  0.00    +0.000 NA
ATOM      6  C   UNL     1      45.055   2.122   9.234  0.00  0.00    +0.000 A 
ENDROOT
BRANCH   4   7
ATOM      7  C   UNL     1      47.617   2.181   6.581  0.00  0.00    +0.000 C 
ATOM      8  N   UNL     1      47.835   2.989   5.504  0.00  0.00    +0.000 N 
ATOM      9  O   UNL     1      48.263   1.149   6.749  0.00  0.00    +0.000 OA
ATOM     10  H   UNL     1      47.284   3.835   5.387  0.00  0.00    +0.000 HD
ATOM     11  H   UNL     1      48.537   2.732   4.825  0.00  0.00    +0.000 HD
ENDBRANCH   4   7
BRANCH   1  12
ATOM     12  N   UNL     1      43.708   3.945  10.255  0.00  0.00    +0.000 N 
ATOM     13  H   UNL     1      42.759   3.683   9.996  0.00  0.00    +0.000 HD
BRANCH  12  15
ATOM     14  C   UNL     1      42.569   5.420  11.852  0.00  0.00    +0.000 C 
ATOM     15  C   UNL     1      43.773   5.242  10.921  0.00  0.00    +0.000 C 
BRANCH  15  16
ATOM     16  C   UNL     1      45.034   5.318  11.781  0.00  0.00    +0.000 A 
ATOM     17  C   UNL     1      46.017   6.281  11.495  0.00  0.00    +0.000 A 
ATOM     18  C   UNL     1      47.084   6.493  12.372  0.00  0.00    +0.000 A 
ATOM     19  C   UNL     1      47.190   5.744  13.542  0.00  0.00    +0.000 A 
ATOM     20  C   UNL     1      46.254   4.753  13.817  0.00  0.00    +0.000 A 
ATOM     21  C   UNL     1      45.189   4.537  12.941  0.00  0.00    +0.000 A 
ENDBRANCH  15  16
ENDBRANCH  12  15
ENDBRANCH   1  12
TORSDOF 4
ENDMDL
MODEL 3
REMARK VINA RESULT:    -7.631      1.047      1.773
REMARK INTER + INTRA:         -10.037
REMARK INTER:                  -9.668
REMARK INTRA:                  -0.370
REMARK UNBOUND:                -0.622
REMARK  Name = 
REMARK  5 active torsions:
REMARK  status: ('A' for Active; 'I' for Inactive)
REMARK    1  A    between atoms: C_1  and  C_2
REMARK    2  A    between atoms: C_2  and  N_3
REMARK    3  A    between atoms: C_2  and  C_13
REMARK    4  A    between atoms: N_3  and  C_4
REMARK    5  A    between atoms: C_7  and  C_8
REMARK                            x       y       z     vdW  Elec       q    Type
REMARK                         _______ _______ _______ _____ _____    ______ ____
ROOT
ATOM      1  C   UNL     1      44.695   4.068   9.189  0.00  0.00    +0.000 A 
ATOM      2  C   UNL     1      44.750   2.675   9.314  0.00  0.00    +0.000 A 
ATOM      3  C   UNL     1      45.662   1.920   8.585  0.00  0.00    +0.000 A 
ATOM      4  C   UNL     1      46.512   2.586   7.719  0.00  0.00    +0.000 A 
ATOM      5  N   UNL     1      46.522   3.942   7.566  0.00  0.00    +0.000 NA
ATOM      6  C   UNL     1      45.620   4.639   8.315  0.00  0.00    +0.000 A 
ENDROOT
BRANCH   4   7
ATOM      7  C   UNL     1      47.464   1.786   6.881  0.00  0.00    +0.000 C 
ATOM      8  N   UNL     1      48.553   2.456   6.406  0.00  0.00    +0.000 N 
ATOM      9  O   UNL     1      47.280   0.597   6.622  0.00  0.00    +0.000 OA
ATOM     10  H   UNL     1      48.679   3.439   6.632  0.00  0.00    +0.000 HD
ATOM     11  H   UNL     1      49.219   1.971   5.823  0.00  0.00    +0.000 HD
ENDBRANCH   4   7
BRANCH   1  12
ATOM     12  N   UNL     1      43.728   4.727   9.926  0.00  0.00    +0.000 N 
ATOM     13  H   UNL     1      43.376   5.541   9.423  0.00  0.00    +0.000 HD
BRANCH  12  15
ATOM     14  C   UNL     1      43.287   3.625  12.074  0.00  0.00    +0.000 C 
ATOM     15  C   UNL     1      43.724   4.916  11.373  0.00  0.00    +0.000 C 
BRANCH  15  16
ATOM     16  C   UNL     1      45.137   5.244  11.854  0.00  0.00    +0.000 A 
ATOM     17  C   UNL     1      45.747   6.447  11.458  0.00  0.00    +0.000 A 
ATOM     18  C   UNL     1      46.956   6.855  12.029  0.00  0.00    +0.000 A 
ATOM     19  C   UNL     1      47.575   6.068  12.997  0.00  0.00    +0.000 A 
ATOM     20  C   UNL     1      47.011   4.851  13.365  0.00  0.00    +0.000 A 
ATOM     21  C   UNL     1      45.806   4.440  12.794  0.00  0.00    +0.000 A 
ENDBRANCH  15  16
ENDBRANCH  12  15
ENDBRANCH   1  12
TORSDOF 4
ENDMDL
MODEL 4
REMARK VINA RESULT:    -6.739      3.103      6.249
REMARK INTER + INTRA:          -8.936
REMARK INTER:                  -9.039
REMARK INTRA:                   0.103
REMARK UNBOUND:                -0.622
REMARK  Name = 
REMARK  5 active torsions:
REMARK  status: ('A' for Active; 'I' for Inactive)
REMARK    1  A    between atoms: C_1  and  C_2
REMARK    2  A    between atoms: C_2  and  N_3
REMARK    3  A    between atoms: C_2  and  C_13
REMARK    4  A    between atoms: N_3  and  C_4
REMARK    5  A    between atoms: C_7  and  C_8
REMARK                            x       y       z     vdW  Elec       q    Type
REMARK                         _______ _______ _______ _____ _____    ______ ____
ROOT
ATOM      1  C   UNL     1      45.223   4.031  11.558  0.00  0.00    +0.000 A 
ATOM      2  C   UNL     1      45.362   5.331  12.058  0.00  0.00    +0.000 A 
ATOM      3  C   UNL     1      46.025   5.576  13.256  0.00  0.00    +0.000 A 
ATOM      4  C   UNL     1      46.538   4.493  13.949  0.00  0.00    +0.000 A 
ATOM      5  N   UNL     1      46.453   3.205  13.505  0.00  0.00    +0.000 NA
ATOM      6  C   UNL     1      45.807   3.019  12.317  0.00  0.00    +0.000 A 
ENDROOT
BRANCH   4   7
ATOM      7  C   UNL     1      47.206   4.730  15.270  0.00  0.00    +0.000 C 
ATOM      8  N   UNL     1      46.656   4.091  16.342  0.00  0.00    +0.000 N 
ATOM      9  O   UNL     1      48.186   5.463  15.394  0.00  0.00    +0.000 OA
ATOM     10  H   UNL     1      45.844   3.493  16.212  0.00  0.00    +0.000 HD
ATOM     11  H   UNL     1      47.056   4.226  17.259  0.00  0.00    +0.000 HD
ENDBRANCH   4   7
BRANCH   1  12
ATOM     12  N   UNL     1      44.514   3.885  10.379  0.00  0.00    +0.000 N 
ATOM     13  H   UNL     1      44.075   2.966  10.328  0.00  0.00    +0.000 HD
BRANCH  12  15
ATOM     14  C   UNL     1      45.893   5.554   9.224  0.00  0.00    +0.000 C 
ATOM     15  C   UNL     1      44.900   4.397   9.069  0.00  0.00    +0.000 C 
BRANCH  15  16
ATOM     16  C   UNL     1      45.600   3.296   8.270  0.00  0.00    +0.000 A 
ATOM     17  C   UNL     1      46.417   3.638   7.179  0.00  0.00    +0.000 A 
ATOM     18  C   UNL     1      47.209   2.673   6.552  0.00  0.00    +0.000 A 
ATOM     19  C   UNL     1      47.193   1.354   6.999  0.00  0.00    +0.000 A 
ATOM     20  C   UNL     1      46.354   0.987   8.046  0.00  0.00    +0.000 A 
ATOM     21  C   UNL     1      45.559   1.949   8.671  0.00  0.00    +0.000 A 
ENDBRANCH  15  16
ENDBRANCH  12  15
ENDBRANCH   1  12
TORSDOF 4
ENDMDL
MODEL 5
REMARK VINA RESULT:    -6.226      3.472      6.504
REMARK INTER + INTRA:          -8.303
REMARK INTER:                  -7.761
REMARK INTRA:                  -0.542
REMARK UNBOUND:                -0.622
REMARK  Name = 
REMARK  5 active torsions:
REMARK  status: ('A' for Active; 'I' for Inactive)
REMARK    1  A    between atoms: C_1  and  C_2
REMARK    2  A    between atoms: C_2  and  N_3
REMARK    3  A    between atoms: C_2  and  C_13
REMARK    4  A    between atoms: N_3  and  C_4
REMARK    5  A    between atoms: C_7  and  C_8
REMARK                            x       y       z     vdW  Elec       q    Type
REMARK                         _______ _______ _______ _____ _____    ______ ____
ROOT
ATOM      1  C   UNL     1      45.219   6.071  11.086  0.00  0.00    +0.000 A 
ATOM      2  C   UNL     1      46.488   5.827  11.625  0.00  0.00    +0.000 A 
ATOM      3  C   UNL     1      47.143   6.785  12.390  0.00  0.00    +0.000 A 
ATOM      4  C   UNL     1      46.509   7.998  12.596  0.00  0.00    +0.000 A 
ATOM      5  N   UNL     1      45.265   8.291  12.114  0.00  0.00    +0.000 NA
ATOM      6  C   UNL     1      44.657   7.311  11.384  0.00  0.00    +0.000 A 
ENDROOT
BRANCH   4   7
ATOM      7  C   UNL     1      47.222   9.066  13.369  0.00  0.00    +0.000 C 
ATOM      8  N   UNL     1      47.116   8.995  14.727  0.00  0.00    +0.000 N 
ATOM      9  O   UNL     1      47.860   9.965  12.822  0.00  0.00    +0.000 OA
ATOM     10  H   UNL     1      46.579   8.244  15.153  0.00  0.00    +0.000 HD
ATOM     11  H   UNL     1      47.564   9.698  15.297  0.00  0.00    +0.000 HD
ENDBRANCH   4   7
BRANCH   1  12
ATOM     12  N   UNL     1      44.664   5.070  10.307  0.00  0.00    +0.000 N 
ATOM     13  H   UNL     1      43.680   5.256  10.122  0.00  0.00    +0.000 HD
BRANCH  12  15
ATOM     14  C   UNL     1      43.688   2.853  10.697  0.00  0.00    +0.000 C 
ATOM     15  C   UNL     1      44.964   3.645  10.390  0.00  0.00    +0.000 C 
BRANCH  15  16
ATOM     16  C   UNL     1      45.499   3.150   9.046  0.00  0.00    +0.000 A 
ATOM     17  C   UNL     1      45.865   4.079   8.057  0.00  0.00    +0.000 A 
ATOM     18  C   UNL     1      46.526   3.662   6.898  0.00  0.00    +0.000 A 
ATOM     19  C   UNL     1      46.826   2.315   6.707  0.00  0.00    +0.000 A 
ATOM     20  C   UNL     1      46.427   1.376   7.653  0.00  0.00    +0.000 A 
ATOM     21  C   UNL     1      45.764   1.790   8.809  0.00  0.00    +0.000 A 
ENDBRANCH  15  16
ENDBRANCH  12  15
ENDBRANCH   1  12
TORSDOF 4
ENDMDL
MODEL 6
REMARK VINA RESULT:    -6.124      3.836      6.454
REMARK INTER + INTRA:          -8.178
REMARK INTER:                  -7.717
REMARK INTRA:                  -0.460
REMARK UNBOUND:                -0.622
REMARK  Name = 
REMARK  5 active torsions:
REMARK  status: ('A' for Active; 'I' for Inactive)
REMARK    1  A    between atoms: C_1  and  C_2
REMARK    2  A    between atoms: C_2  and  N_3
REMARK    3  A    between atoms: C_2  and  C_13
REMARK    4  A    between atoms: N_3  and  C_4
REMARK    5  A    between atoms: C_7  and  C_8
REMARK                            x       y       z     vdW  Elec       q    Type
REMARK                         _______ _______ _______ _____ _____    ______ ____
ROOT
ATOM      1  C   UNL     1      46.522   6.107  12.127  0.00  0.00    +0.000 A 
ATOM      2  C   UNL     1      47.170   7.347  12.149  0.00  0.00    +0.000 A 
ATOM      3  C   UNL     1      48.115   7.651  13.122  0.00  0.00    +0.000 A 
ATOM      4  C   UNL     1      48.391   6.692  14.082  0.00  0.00    +0.000 A 
ATOM      5  N   UNL     1      47.808   5.458  14.105  0.00  0.00    +0.000 NA
ATOM      6  C   UNL     1      46.900   5.203  13.119  0.00  0.00    +0.000 A 
ENDROOT
BRANCH   4   7
ATOM      7  C   UNL     1      49.363   7.021  15.175  0.00  0.00    +0.000 C 
ATOM      8  N   UNL     1      50.634   7.317  14.776  0.00  0.00    +0.000 N 
ATOM      9  O   UNL     1      49.049   7.016  16.364  0.00  0.00    +0.000 OA
ATOM     10  H   UNL     1      50.868   7.310  13.788  0.00  0.00    +0.000 HD
ATOM     11  H   UNL     1      51.334   7.531  15.471  0.00  0.00    +0.000 HD
ENDBRANCH   4   7
BRANCH   1  12
ATOM     12  N   UNL     1      45.570   5.912  11.142  0.00  0.00    +0.000 N 
ATOM     13  H   UNL     1      45.119   6.791  10.891  0.00  0.00    +0.000 HD
BRANCH  12  15
ATOM     14  C   UNL     1      43.229   5.240  10.836  0.00  0.00    +0.000 C 
ATOM     15  C   UNL     1      44.675   4.766  11.020  0.00  0.00    +0.000 C 
BRANCH  15  16
ATOM     16  C   UNL     1      45.051   3.948   9.784  0.00  0.00    +0.000 A 
ATOM     17  C   UNL     1      45.651   4.582   8.683  0.00  0.00    +0.000 A 
ATOM     18  C   UNL     1      46.170   3.833   7.624  0.00  0.00    +0.000 A 
ATOM     19  C   UNL     1      46.091   2.442   7.644  0.00  0.00    +0.000 A 
ATOM     20  C   UNL     1      45.457   1.800   8.702  0.00  0.00    +0.000 A 
ATOM     21  C   UNL     1      44.935   2.547   9.759  0.00  0.00    +0.000 A 
ENDBRANCH  15  16
ENDBRANCH  12  15
ENDBRANCH   1  12
TORSDOF 4
ENDMDL
MODEL 7
REMARK VINA RESULT:    -5.956      1.586      2.421
REMARK INTER + INTRA:          -7.971
REMARK INTER:                  -7.446
REMARK INTRA:                  -0.525
REMARK UNBOUND:                -0.622
REMARK  Name = 
REMARK  5 active torsions:
REMARK  status: ('A' for Active; 'I' for Inactive)
REMARK    1  A    between atoms: C_1  and  C_2
REMARK    2  A    between atoms: C_2  and  N_3
REMARK    3  A    between atoms: C_2  and  C_13
REMARK    4  A    between atoms: N_3  and  C_4
REMARK    5  A    between atoms: C_7  and  C_8
REMARK                            x       y       z     vdW  Elec       q    Type
REMARK                         _______ _______ _______ _____ _____    ______ ____
ROOT
ATOM      1  C   UNL     1      44.768   4.614  10.519  0.00  0.00    +0.000 A 
ATOM      2  C   UNL     1      45.499   5.239   9.501  0.00  0.00    +0.000 A 
ATOM      3  C   UNL     1      46.013   4.515   8.432  0.00  0.00    +0.000 A 
ATOM      4  C   UNL     1      45.791   3.149   8.406  0.00  0.00    +0.000 A 
ATOM      5  N   UNL     1      45.072   2.482   9.356  0.00  0.00    +0.000 NA
ATOM      6  C   UNL     1      44.574   3.241  10.375  0.00  0.00    +0.000 A 
ENDROOT
BRANCH   4   7
ATOM      7  C   UNL     1      46.386   2.340   7.292  0.00  0.00    +0.000 C 
ATOM      8  N   UNL     1      46.825   1.092   7.626  0.00  0.00    +0.000 N 
ATOM      9  O   UNL     1      46.488   2.769   6.144  0.00  0.00    +0.000 OA
ATOM     10  H   UNL     1      46.732   0.764   8.583  0.00  0.00    +0.000 HD
ATOM     11  H   UNL     1      47.248   0.509   6.919  0.00  0.00    +0.000 HD
ENDBRANCH   4   7
BRANCH   1  12
ATOM     12  N   UNL     1      44.330   5.413  11.560  0.00  0.00    +0.000 N 
ATOM     13  H   UNL     1      43.860   6.245  11.209  0.00  0.00    +0.000 HD
BRANCH  12  15
ATOM     14  C   UNL     1      45.889   4.436  13.184  0.00  0.00    +0.000 C 
ATOM     15  C   UNL     1      45.029   5.650  12.819  0.00  0.00    +0.000 C 
BRANCH  15  16
ATOM     16  C   UNL     1      45.965   6.849  12.672  0.00  0.00    +0.000 A 
ATOM     17  C   UNL     1      47.314   6.644  12.333  0.00  0.00    +0.000 A 
ATOM     18  C   UNL     1      48.141   7.724  12.013  0.00  0.00    +0.000 A 
ATOM     19  C   UNL     1      47.637   9.023  12.032  0.00  0.00    +0.000 A 
ATOM     20  C   UNL     1      46.319   9.249  12.413  0.00  0.00    +0.000 A 
ATOM     21  C   UNL     1      45.492   8.172  12.737  0.00  0.00    +0.000 A 
ENDBRANCH  15  16
ENDBRANCH  12  15
ENDBRANCH   1  12
TORSDOF 4
ENDMDL
MODEL 8
REMARK VINA RESULT:    -5.703      4.454      7.294
REMARK INTER + INTRA:          -7.659
REMARK INTER:                  -7.145
REMARK INTRA:                  -0.513
REMARK UNBOUND:                -0.622
REMARK  Name = 
REMARK  5 active torsions:
REMARK  status: ('A' for Active; 'I' for Inactive)
REMARK    1  A    between atoms: C_1  and  C_2
REMARK    2  A    between atoms: C_2  and  N_3
REMARK    3  A    between atoms: C_2  and  C_13
REMARK    4  A    between atoms: N_3  and  C_4
REMARK    5  A    between atoms: C_7  and  C_8
REMARK                            x       y       z     vdW  Elec       q    Type
REMARK                         _______ _______ _______ _____ _____    ______ ____
ROOT
ATOM      1  C   UNL     1      47.253   5.495  13.904  0.00  0.00    +0.000 A 
ATOM      2  C   UNL     1      46.750   4.389  14.599  0.00  0.00    +0.000 A 
ATOM      3  C   UNL     1      47.185   4.086  15.884  0.00  0.00    +0.000 A 
ATOM      4  C   UNL     1      48.142   4.906  16.457  0.00  0.00    +0.000 A 
ATOM      5  N   UNL     1      48.657   6.010  15.840  0.00  0.00    +0.000 NA
ATOM      6  C   UNL     1      48.186   6.273  14.587  0.00  0.00    +0.000 A 
ENDROOT
BRANCH   4   7
ATOM      7  C   UNL     1      48.667   4.563  17.819  0.00  0.00    +0.000 C 
ATOM      8  N   UNL     1      47.736   4.185  18.742  0.00  0.00    +0.000 N 
ATOM      9  O   UNL     1      49.862   4.627  18.103  0.00  0.00    +0.000 OA
ATOM     10  H   UNL     1      46.755   4.145  18.482  0.00  0.00    +0.000 HD
ATOM     11  H   UNL     1      48.032   3.958  19.680  0.00  0.00    +0.000 HD
ENDBRANCH   4   7
BRANCH   1  12
ATOM     12  N   UNL     1      46.787   5.692  12.615  0.00  0.00    +0.000 N 
ATOM     13  H   UNL     1      47.397   6.326  12.100  0.00  0.00    +0.000 HD
BRANCH  12  15
ATOM     14  C   UNL     1      45.061   7.246  11.822  0.00  0.00    +0.000 C 
ATOM     15  C   UNL     1      45.390   5.800  12.209  0.00  0.00    +0.000 C 
BRANCH  15  16
ATOM     16  C   UNL     1      45.142   4.927  10.979  0.00  0.00    +0.000 A 
ATOM     17  C   UNL     1      45.641   5.327   9.727  0.00  0.00    +0.000 A 
ATOM     18  C   UNL     1      45.588   4.464   8.630  0.00  0.00    +0.000 A 
ATOM     19  C   UNL     1      45.032   3.193   8.763  0.00  0.00    +0.000 A 
ATOM     20  C   UNL     1      44.489   2.799   9.981  0.00  0.00    +0.000 A 
ATOM     21  C   UNL     1      44.537   3.661  11.077  0.00  0.00    +0.000 A 
ENDBRANCH  15  16
ENDBRANCH  12  15
ENDBRANCH   1  12
TORSDOF 4
ENDMDL
MODEL 9
REMARK VINA RESULT:    -5.689      3.288      5.261
REMARK INTER + INTRA:          -7.641
REMARK INTER:                  -7.167
REMARK INTRA:                  -0.474
REMARK UNBOUND:                -0.622
REMARK  Name = 
REMARK  5 active torsions:
REMARK  status: ('A' for Active; 'I' for Inactive)
REMARK    1  A    between atoms: C_1  and  C_2
REMARK    2  A    between atoms: C_2  and  N_3
REMARK    3  A    between atoms: C_2  and  C_13
REMARK    4  A    between atoms: N_3  and  C_4
REMARK    5  A    between atoms: C_7  and  C_8
REMARK                            x       y       z     vdW  Elec       q    Type
REMARK                         _______ _______ _______ _____ _____    ______ ____
ROOT
ATOM      1  C   UNL     1      46.218   5.386  13.142  0.00  0.00    +0.000 A 
ATOM      2  C   UNL     1      45.899   4.023  13.154  0.00  0.00    +0.000 A 
ATOM      3  C   UNL     1      45.308   3.411  12.054  0.00  0.00    +0.000 A 
ATOM      4  C   UNL     1      45.033   4.192  10.945  0.00  0.00    +0.000 A 
ATOM      5  N   UNL     1      45.338   5.520  10.864  0.00  0.00    +0.000 NA
ATOM      6  C   UNL     1      45.931   6.070  11.963  0.00  0.00    +0.000 A 
ENDROOT
BRANCH   4   7
ATOM      7  C   UNL     1      44.344   3.564   9.771  0.00  0.00    +0.000 C 
ATOM      8  N   UNL     1      44.137   4.376   8.694  0.00  0.00    +0.000 N 
ATOM      9  O   UNL     1      43.973   2.392   9.770  0.00  0.00    +0.000 OA
ATOM     10  H   UNL     1      44.450   5.342   8.723  0.00  0.00    +0.000 HD
ATOM     11  H   UNL     1      43.664   4.010   7.881  0.00  0.00    +0.000 HD
ENDBRANCH   4   7
BRANCH   1  12
ATOM     12  N   UNL     1      46.768   5.912  14.298  0.00  0.00    +0.000 N 
ATOM     13  H   UNL     1      46.393   6.839  14.491  0.00  0.00    +0.000 HD
BRANCH  12  15
ATOM     14  C   UNL     1      48.802   7.132  14.928  0.00  0.00    +0.000 C 
ATOM     15  C   UNL     1      48.148   5.758  14.746  0.00  0.00    +0.000 C 
BRANCH  15  16
ATOM     16  C   UNL     1      48.175   5.053  16.102  0.00  0.00    +0.000 A 
ATOM     17  C   UNL     1      47.215   4.071  16.397  0.00  0.00    +0.000 A 
ATOM     18  C   UNL     1      47.328   3.285  17.547  0.00  0.00    +0.000 A 
ATOM     19  C   UNL     1      48.396   3.472  18.422  0.00  0.00    +0.000 A 
ATOM     20  C   UNL     1      49.329   4.473  18.171  0.00  0.00    +0.000 A 
ATOM     21  C   UNL     1      49.216   5.261  17.025  0.00  0.00    +0.000 A 
ENDBRANCH  15  16
ENDBRANCH  12  15
ENDBRANCH   1  12
TORSDOF 4
ENDMDL
