MODEL 1
REMARK VINA RESULT:    -8.563      0.000      0.000
REMARK INTER + INTRA:         -12.141
REMARK INTER:                 -11.066
REMARK INTRA:                  -1.075
REMARK UNBOUND:                -1.075
REMARK  Name = 
REMARK  5 active torsions:
REMARK  status: ('A' for Active; 'I' for Inactive)
REMARK    1  A    between atoms: C_2  and  C_4
REMARK    2  A    between atoms: C_7  and  N_8
REMARK    3  A    between atoms: N_8  and  C_9
REMARK    4  A    between atoms: C_9  and  C_10
REMARK    5  A    between atoms: C_14  and  C_15
REMARK                            x       y       z     vdW  Elec       q    Type
REMARK                         _______ _______ _______ _____ _____    ______ ____
ROOT
ATOM      1  N   UNL     1      43.783   4.892   9.946  0.00  0.00    +0.000 N 
ATOM      2  H   UNL     1      42.947   5.170   9.436  0.00  0.00    +0.000 HD
ENDROOT
BRANCH   1   6
ATOM      3  C   UNL     1      46.335   2.285   7.812  0.00  0.00    +0.000 A 
ATOM      4  C   UNL     1      45.413   1.753   8.716  0.00  0.00    +0.000 A 
ATOM      5  C   UNL     1      44.554   2.604   9.427  0.00  0.00    +0.000 A 
ATOM      6  C   UNL     1      44.569   3.991   9.226  0.00  0.00    +0.000 A 
ATOM      7  C   UNL     1      45.516   4.506   8.329  0.00  0.00    +0.000 A 
ATOM      8  C   UNL     1      46.396   3.668   7.632  0.00  0.00    +0.000 A 
BRANCH   3  10
ATOM      9  N   UNL     1      48.409   2.034   6.558  0.00  0.00    +0.000 N 
ATOM     10  C   UNL     1      47.295   1.426   7.069  0.00  0.00    +0.000 C 
ATOM     11  O   UNL     1      47.122   0.223   6.947  0.00  0.00    +0.000 OA
ATOM     12  H   UNL     1      49.101   1.420   6.148  0.00  0.00    +0.000 HD
ATOM     13  H   UNL     1      48.712   2.948   6.858  0.00  0.00    +0.000 HD
ENDBRANCH   3  10
ENDBRANCH   1   6
BRANCH   1  14
ATOM     14  C   UNL     1      43.557   4.716  11.371  0.00  0.00    +0.000 C 
BRANCH  14  15
ATOM     15  C   UNL     1      44.825   4.978  12.157  0.00  0.00    +0.000 A 
ATOM     16  C   UNL     1      45.454   3.942  12.860  0.00  0.00    +0.000 A 
ATOM     17  C   UNL     1      46.668   4.163  13.508  0.00  0.00    +0.000 A 
ATOM     18  C   UNL     1      47.269   5.421  13.463  0.00  0.00    +0.000 A 
ATOM     19  C   UNL     1      46.658   6.480  12.777  0.00  0.00    +0.000 A 
ATOM     20  C   UNL     1      45.432   6.245  12.132  0.00  0.00    +0.000 A 
BRANCH  19  21
ATOM     21  C   UNL     1      47.301   7.854  12.705  0.00  0.00    +0.000 C 
ATOM     22  C   UNL     1      46.311   8.936  12.250  0.00  0.00    +0.000 C 
ATOM     23  C   UNL     1      47.014  10.281  12.125  0.00  0.00    +0.000 C 
ATOM     24  O   UNL     1      48.134  10.189  11.244  0.00  0.00    +0.000 OA
ATOM     25  C   UNL     1      49.119   9.271  11.717  0.00  0.00    +0.000 C 
ATOM     26  C   UNL     1      48.547   7.864  11.807  0.00  0.00    +0.000 C 
ENDBRANCH  19  21
ENDBRANCH  14  15
ENDBRANCH   1  14
TORSDOF 5
ENDMDL
MODEL 2
REMARK VINA RESULT:    -8.427      2.284      3.563
REMARK INTER + INTRA:         -11.966
REMARK INTER:                 -11.160
REMARK INTRA:                  -0.806
REMARK UNBOUND:                -1.075
REMARK  Name = 
REMARK  5 active torsions:
REMARK  status: ('A' for Active; 'I' for Inactive)
REMARK    1  A    between atoms: C_2  and  C_4
REMARK    2  A    between atoms: C_7  and  N_8
REMARK    3  A    between atoms: N_8  and  C_9
REMARK    4  A    between atoms: C_9  and  C_10
REMARK    5  A    between atoms: C_14  and  C_15
REMARK                            x       y       z     vdW  Elec       q    Type
REMARK                         _______ _______ _______ _____ _____    ______ ____
ROOT
ATOM      1  N   UNL     1      43.789   4.845   9.940  0.00  0.00    +0.000 N 
ATOM      2  H   UNL     1      42.875   4.984   9.515  0.00  0.00    +0.000 HD
ENDROOT
BRANCH   1   6
ATOM      3  C   UNL     1      46.316   2.170   7.861  0.00  0.00    +0.000 A 
ATOM      4  C   UNL     1      45.377   1.664   8.761  0.00  0.00    +0.000 A 
ATOM      5  C   UNL     1      44.525   2.538   9.454  0.00  0.00    +0.000 A 
ATOM      6  C   UNL     1      44.566   3.921   9.238  0.00  0.00    +0.000 A 
ATOM      7  C   UNL     1      45.531   4.410   8.345  0.00  0.00    +0.000 A 
ATOM      8  C   UNL     1      46.403   3.550   7.667  0.00  0.00    +0.000 A 
BRANCH   3  10
ATOM      9  N   UNL     1      48.323   1.890   6.507  0.00  0.00    +0.000 N 
ATOM     10  C   UNL     1      47.268   1.287   7.138  0.00  0.00    +0.000 C 
ATOM     11  O   UNL     1      47.143   0.071   7.131  0.00  0.00    +0.000 OA
ATOM     12  H   UNL     1      49.016   1.269   6.109  0.00  0.00    +0.000 HD
ATOM     13  H   UNL     1      48.601   2.838   6.707  0.00  0.00    +0.000 HD
ENDBRANCH   3  10
ENDBRANCH   1   6
BRANCH   1  14
ATOM     14  C   UNL     1      43.755   4.842  11.394  0.00  0.00    +0.000 C 
BRANCH  14  15
ATOM     15  C   UNL     1      45.066   5.336  11.967  0.00  0.00    +0.000 A 
ATOM     16  C   UNL     1      45.802   6.331  11.309  0.00  0.00    +0.000 A 
ATOM     17  C   UNL     1      46.962   6.848  11.884  0.00  0.00    +0.000 A 
ATOM     18  C   UNL     1      47.402   6.378  13.120  0.00  0.00    +0.000 A 
ATOM     19  C   UNL     1      46.694   5.375  13.798  0.00  0.00    +0.000 A 
ATOM     20  C   UNL     1      45.529   4.860  13.206  0.00  0.00    +0.000 A 
BRANCH  19  21
ATOM     21  C   UNL     1      47.149   4.859  15.151  0.00  0.00    +0.000 C 
ATOM     22  C   UNL     1      48.310   5.683  15.728  0.00  0.00    +0.000 C 
ATOM     23  C   UNL     1      48.779   5.089  17.049  0.00  0.00    +0.000 C 
ATOM     24  O   UNL     1      49.136   3.716  16.890  0.00  0.00    +0.000 OA
ATOM     25  C   UNL     1      48.033   2.915  16.467  0.00  0.00    +0.000 C 
ATOM     26  C   UNL     1      47.526   3.371  15.106  0.00  0.00    +0.000 C 
ENDBRANCH  19  21
ENDBRANCH  14  15
ENDBRANCH   1  14
TORSDOF 5
ENDMDL
MODEL 3
REMARK VINA RESULT:    -6.827      2.541      6.982
REMARK INTER + INTRA:          -9.898
REMARK INTER:                  -9.193
REMARK INTRA:                  -0.705
REMARK UNBOUND:                -1.075
REMARK  Name = 
REMARK  5 active torsions:
REMARK  status: ('A' for Active; 'I' for Inactive)
REMARK    1  A    between atoms: C_2  and  C_4
REMARK    2  A    between atoms: C_7  and  N_8
REMARK    3  A    between atoms: N_8  and  C_9
REMARK    4  A    between atoms: C_9  and  C_10
REMARK    5  A    between atoms: C_14  and  C_15
REMARK                            x       y       z     vdW  Elec       q    Type
REMARK                         _______ _______ _______ _____ _____    ______ ____
ROOT
ATOM      1  N   UNL     1      44.874   7.188  11.037  0.00  0.00    +0.000 N 
ATOM      2  H   UNL     1      45.246   6.994  10.110  0.00  0.00    +0.000 HD
ENDROOT
BRANCH   1   6
ATOM      3  C   UNL     1      48.035   7.511  13.824  0.00  0.00    +0.000 A 
ATOM      4  C   UNL     1      47.480   8.671  13.280  0.00  0.00    +0.000 A 
ATOM      5  C   UNL     1      46.425   8.582  12.360  0.00  0.00    +0.000 A 
ATOM      6  C   UNL     1      45.880   7.345  11.991  0.00  0.00    +0.000 A 
ATOM      7  C   UNL     1      46.466   6.191  12.533  0.00  0.00    +0.000 A 
ATOM      8  C   UNL     1      47.535   6.267  13.434  0.00  0.00    +0.000 A 
BRANCH   3  10
ATOM      9  N   UNL     1      49.584   8.788  15.205  0.00  0.00    +0.000 N 
ATOM     10  C   UNL     1      49.182   7.555  14.769  0.00  0.00    +0.000 C 
ATOM     11  O   UNL     1      49.724   6.537  15.172  0.00  0.00    +0.000 OA
ATOM     12  H   UNL     1      50.295   8.794  15.926  0.00  0.00    +0.000 HD
ATOM     13  H   UNL     1      49.008   9.610  15.106  0.00  0.00    +0.000 HD
ENDBRANCH   3  10
ENDBRANCH   1   6
BRANCH   1  14
ATOM     14  C   UNL     1      43.665   6.439  11.340  0.00  0.00    +0.000 C 
BRANCH  14  15
ATOM     15  C   UNL     1      43.842   4.970  11.017  0.00  0.00    +0.000 A 
ATOM     16  C   UNL     1      43.262   3.987  11.830  0.00  0.00    +0.000 A 
ATOM     17  C   UNL     1      43.350   2.640  11.482  0.00  0.00    +0.000 A 
ATOM     18  C   UNL     1      44.018   2.259  10.319  0.00  0.00    +0.000 A 
ATOM     19  C   UNL     1      44.618   3.218   9.492  0.00  0.00    +0.000 A 
ATOM     20  C   UNL     1      44.526   4.572   9.857  0.00  0.00    +0.000 A 
BRANCH  19  21
ATOM     21  C   UNL     1      45.340   2.825   8.215  0.00  0.00    +0.000 C 
ATOM     22  C   UNL     1      46.143   1.526   8.377  0.00  0.00    +0.000 C 
ATOM     23  C   UNL     1      46.905   1.208   7.097  0.00  0.00    +0.000 C 
ATOM     24  O   UNL     1      47.742   2.301   6.719  0.00  0.00    +0.000 OA
ATOM     25  C   UNL     1      46.994   3.486   6.449  0.00  0.00    +0.000 C 
ATOM     26  C   UNL     1      46.248   3.948   7.693  0.00  0.00    +0.000 C 
ENDBRANCH  19  21
ENDBRANCH  14  15
ENDBRANCH   1  14
TORSDOF 5
ENDMDL
MODEL 4
REMARK VINA RESULT:    -6.789      3.320      7.376
REMARK INTER + INTRA:          -9.849
REMARK INTER:                  -9.047
REMARK INTRA:                  -0.802
REMARK UNBOUND:                -1.075
REMARK  Name = 
REMARK  5 active torsions:
REMARK  status: ('A' for Active; 'I' for Inactive)
REMARK    1  A    between atoms: C_2  and  C_4
REMARK    2  A    between atoms: C_7  and  N_8
REMARK    3  A    between atoms: N_8  and  C_9
REMARK    4  A    between atoms: C_9  and  C_10
REMARK    5  A    between atoms: C_14  and  C_15
REMARK                            x       y       z     vdW  Elec       q    Type
REMARK                         _______ _______ _______ _____ _____    ______ ____
ROOT
ATOM      1  N   UNL     1      47.862   6.733  12.297  0.00  0.00    +0.000 N 
ATOM      2  H   UNL     1      48.229   6.099  11.592  0.00  0.00    +0.000 HD
ENDROOT
BRANCH   1   6
ATOM      3  C   UNL     1      47.926   5.254  16.256  0.00  0.00    +0.000 A 
ATOM      4  C   UNL     1      47.161   4.596  15.292  0.00  0.00    +0.000 A 
ATOM      5  C   UNL     1      47.134   5.070  13.972  0.00  0.00    +0.000 A 
ATOM      6  C   UNL     1      47.894   6.179  13.578  0.00  0.00    +0.000 A 
ATOM      7  C   UNL     1      48.640   6.837  14.567  0.00  0.00    +0.000 A 
ATOM      8  C   UNL     1      48.655   6.388  15.893  0.00  0.00    +0.000 A 
BRANCH   3  10
ATOM      9  N   UNL     1      46.851   5.104  18.438  0.00  0.00    +0.000 N 
ATOM     10  C   UNL     1      47.951   4.815  17.676  0.00  0.00    +0.000 C 
ATOM     11  O   UNL     1      48.892   4.190  18.142  0.00  0.00    +0.000 OA
ATOM     12  H   UNL     1      46.839   4.708  19.369  0.00  0.00    +0.000 HD
ATOM     13  H   UNL     1      45.968   5.374  18.031  0.00  0.00    +0.000 HD
ENDBRANCH   3  10
ENDBRANCH   1   6
BRANCH   1  14
ATOM     14  C   UNL     1      46.713   7.499  11.842  0.00  0.00    +0.000 C 
BRANCH  14  15
ATOM     15  C   UNL     1      45.587   6.582  11.412  0.00  0.00    +0.000 A 
ATOM     16  C   UNL     1      44.294   6.751  11.927  0.00  0.00    +0.000 A 
ATOM     17  C   UNL     1      43.241   5.964  11.463  0.00  0.00    +0.000 A 
ATOM     18  C   UNL     1      43.465   5.000  10.482  0.00  0.00    +0.000 A 
ATOM     19  C   UNL     1      44.749   4.799   9.956  0.00  0.00    +0.000 A 
ATOM     20  C   UNL     1      45.802   5.595  10.435  0.00  0.00    +0.000 A 
BRANCH  19  21
ATOM     21  C   UNL     1      45.012   3.763   8.878  0.00  0.00    +0.000 C 
ATOM     22  C   UNL     1      45.308   2.375   9.465  0.00  0.00    +0.000 C 
ATOM     23  C   UNL     1      45.634   1.386   8.353  0.00  0.00    +0.000 C 
ATOM     24  O   UNL     1      46.716   1.861   7.552  0.00  0.00    +0.000 OA
ATOM     25  C   UNL     1      46.408   3.094   6.904  0.00  0.00    +0.000 C 
ATOM     26  C   UNL     1      46.140   4.189   7.928  0.00  0.00    +0.000 C 
ENDBRANCH  19  21
ENDBRANCH  14  15
ENDBRANCH   1  14
TORSDOF 5
ENDMDL
MODEL 5
REMARK VINA RESULT:    -6.451      4.235      7.868
REMARK INTER + INTRA:          -9.412
REMARK INTER:                  -8.877
REMARK INTRA:                  -0.535
REMARK UNBOUND:                -1.075
REMARK  Name = 
REMARK  5 active torsions:
REMARK  status: ('A' for Active; 'I' for Inactive)
REMARK    1  A    between atoms: C_2  and  C_4
REMARK    2  A    between atoms: C_7  and  N_8
REMARK    3  A    between atoms: N_8  and  C_9
REMARK    4  A    between atoms: C_9  and  C_10
REMARK    5  A    between atoms: C_14  and  C_15
REMARK                            x       y       z     vdW  Elec       q    Type
REMARK                         _______ _______ _______ _____ _____    ______ ____
ROOT
ATOM      1  N   UNL     1      46.378   4.521  15.004  0.00  0.00    +0.000 N 
ATOM      2  H   UNL     1      45.506   4.648  15.511  0.00  0.00    +0.000 HD
ENDROOT
BRANCH   1   6
ATOM      3  C   UNL     1      49.769   3.948  17.461  0.00  0.00    +0.000 A 
ATOM      4  C   UNL     1      49.415   5.241  17.074  0.00  0.00    +0.000 A 
ATOM      5  C   UNL     1      48.289   5.450  16.264  0.00  0.00    +0.000 A 
ATOM      6  C   UNL     1      47.475   4.385  15.857  0.00  0.00    +0.000 A 
ATOM      7  C   UNL     1      47.860   3.092  16.241  0.00  0.00    +0.000 A 
ATOM      8  C   UNL     1      48.996   2.870  17.028  0.00  0.00    +0.000 A 
BRANCH   3  10
ATOM      9  N   UNL     1      51.648   2.507  18.036  0.00  0.00    +0.000 N 
ATOM     10  C   UNL     1      50.978   3.675  18.282  0.00  0.00    +0.000 C 
ATOM     11  O   UNL     1      51.384   4.469  19.116  0.00  0.00    +0.000 OA
ATOM     12  H   UNL     1      52.525   2.386  18.528  0.00  0.00    +0.000 HD
ATOM     13  H   UNL     1      51.502   1.967  17.197  0.00  0.00    +0.000 HD
ENDBRANCH   3  10
ENDBRANCH   1   6
BRANCH   1  14
ATOM     14  C   UNL     1      46.466   5.328  13.797  0.00  0.00    +0.000 C 
BRANCH  14  15
ATOM     15  C   UNL     1      45.319   5.022  12.857  0.00  0.00    +0.000 A 
ATOM     16  C   UNL     1      44.010   5.401  13.183  0.00  0.00    +0.000 A 
ATOM     17  C   UNL     1      42.970   5.199  12.277  0.00  0.00    +0.000 A 
ATOM     18  C   UNL     1      43.223   4.616  11.036  0.00  0.00    +0.000 A 
ATOM     19  C   UNL     1      44.520   4.215  10.686  0.00  0.00    +0.000 A 
ATOM     20  C   UNL     1      45.559   4.420  11.610  0.00  0.00    +0.000 A 
BRANCH  19  21
ATOM     21  C   UNL     1      44.820   3.589   9.335  0.00  0.00    +0.000 C 
ATOM     22  C   UNL     1      45.366   2.160   9.465  0.00  0.00    +0.000 C 
ATOM     23  C   UNL     1      45.718   1.599   8.094  0.00  0.00    +0.000 C 
ATOM     24  O   UNL     1      46.638   2.454   7.415  0.00  0.00    +0.000 OA
ATOM     25  C   UNL     1      46.096   3.754   7.182  0.00  0.00    +0.000 C 
ATOM     26  C   UNL     1      45.778   4.449   8.498  0.00  0.00    +0.000 C 
ENDBRANCH  19  21
ENDBRANCH  14  15
ENDBRANCH   1  14
TORSDOF 5
ENDMDL
MODEL 6
REMARK VINA RESULT:    -6.258      3.932      7.389
REMARK INTER + INTRA:          -9.162
REMARK INTER:                  -8.606
REMARK INTRA:                  -0.557
REMARK UNBOUND:                -1.075
REMARK  Name = 
REMARK  5 active torsions:
REMARK  status: ('A' for Active; 'I' for Inactive)
REMARK    1  A    between atoms: C_2  and  C_4
REMARK    2  A    between atoms: C_7  and  N_8
REMARK    3  A    between atoms: N_8  and  C_9
REMARK    4  A    between atoms: C_9  and  C_10
REMARK    5  A    between atoms: C_14  and  C_15
REMARK                            x       y       z     vdW  Elec       q    Type
REMARK                         _______ _______ _______ _____ _____    ______ ____
ROOT
ATOM      1  N   UNL     1      48.636   7.510  14.128  0.00  0.00    +0.000 N 
ATOM      2  H   UNL     1      49.424   8.070  14.444  0.00  0.00    +0.000 HD
ENDROOT
BRANCH   1   6
ATOM      3  C   UNL     1      47.860   4.346  16.820  0.00  0.00    +0.000 A 
ATOM      4  C   UNL     1      47.240   4.348  15.569  0.00  0.00    +0.000 A 
ATOM      5  C   UNL     1      47.492   5.387  14.661  0.00  0.00    +0.000 A 
ATOM      6  C   UNL     1      48.390   6.419  14.963  0.00  0.00    +0.000 A 
ATOM      7  C   UNL     1      48.986   6.409  16.233  0.00  0.00    +0.000 A 
ATOM      8  C   UNL     1      48.723   5.390  17.157  0.00  0.00    +0.000 A 
BRANCH   3  10
ATOM      9  N   UNL     1      48.407   3.251  18.927  0.00  0.00    +0.000 N 
ATOM     10  C   UNL     1      47.589   3.290  17.831  0.00  0.00    +0.000 C 
ATOM     11  O   UNL     1      46.657   2.509  17.713  0.00  0.00    +0.000 OA
ATOM     12  H   UNL     1      48.146   2.596  19.653  0.00  0.00    +0.000 HD
ATOM     13  H   UNL     1      49.004   4.023  19.183  0.00  0.00    +0.000 HD
ENDBRANCH   3  10
ENDBRANCH   1   6
BRANCH   1  14
ATOM     14  C   UNL     1      48.567   7.376  12.682  0.00  0.00    +0.000 C 
BRANCH  14  15
ATOM     15  C   UNL     1      47.129   7.351  12.208  0.00  0.00    +0.000 A 
ATOM     16  C   UNL     1      46.286   8.448  12.432  0.00  0.00    +0.000 A 
ATOM     17  C   UNL     1      44.990   8.460  11.918  0.00  0.00    +0.000 A 
ATOM     18  C   UNL     1      44.521   7.378  11.174  0.00  0.00    +0.000 A 
ATOM     19  C   UNL     1      45.337   6.261  10.942  0.00  0.00    +0.000 A 
ATOM     20  C   UNL     1      46.638   6.260  11.471  0.00  0.00    +0.000 A 
BRANCH  19  21
ATOM     21  C   UNL     1      44.849   5.079  10.125  0.00  0.00    +0.000 C 
ATOM     22  C   UNL     1      44.762   3.792  10.958  0.00  0.00    +0.000 C 
ATOM     23  C   UNL     1      44.337   2.619  10.084  0.00  0.00    +0.000 C 
ATOM     24  O   UNL     1      45.221   2.468   8.973  0.00  0.00    +0.000 OA
ATOM     25  C   UNL     1      45.223   3.614   8.123  0.00  0.00    +0.000 C 
ATOM     26  C   UNL     1      45.711   4.843   8.876  0.00  0.00    +0.000 C 
ENDBRANCH  19  21
ENDBRANCH  14  15
ENDBRANCH   1  14
TORSDOF 5
ENDMDL
MODEL 7
REMARK VINA RESULT:    -6.182      3.754      5.746
REMARK INTER + INTRA:          -9.064
REMARK INTER:                  -8.208
REMARK INTRA:                  -0.856
REMARK UNBOUND:                -1.075
REMARK  Name = 
REMARK  5 active torsions:
REMARK  status: ('A' for Active; 'I' for Inactive)
REMARK    1  A    between atoms: C_2  and  C_4
REMARK    2  A    between atoms: C_7  and  N_8
REMARK    3  A    between atoms: N_8  and  C_9
REMARK    4  A    between atoms: C_9  and  C_10
REMARK    5  A    between atoms: C_14  and  C_15
REMARK                            x       y       z     vdW  Elec       q    Type
REMARK                         _______ _______ _______ _____ _____    ______ ____
ROOT
ATOM      1  N   UNL     1      46.465   7.681  12.599  0.00  0.00    +0.000 N 
ATOM      2  H   UNL     1      46.236   8.011  13.534  0.00  0.00    +0.000 HD
ENDROOT
BRANCH   1   6
ATOM      3  C   UNL     1      44.519   4.103  11.467  0.00  0.00    +0.000 A 
ATOM      4  C   UNL     1      44.411   4.554  12.783  0.00  0.00    +0.000 A 
ATOM      5  C   UNL     1      45.044   5.744  13.174  0.00  0.00    +0.000 A 
ATOM      6  C   UNL     1      45.763   6.523  12.258  0.00  0.00    +0.000 A 
ATOM      7  C   UNL     1      45.876   6.041  10.946  0.00  0.00    +0.000 A 
ATOM      8  C   UNL     1      45.269   4.843  10.551  0.00  0.00    +0.000 A 
BRANCH   3  10
ATOM      9  N   UNL     1      44.434   2.235   9.905  0.00  0.00    +0.000 N 
ATOM     10  C   UNL     1      43.902   2.827  11.018  0.00  0.00    +0.000 C 
ATOM     11  O   UNL     1      42.984   2.305  11.632  0.00  0.00    +0.000 OA
ATOM     12  H   UNL     1      44.072   1.318   9.675  0.00  0.00    +0.000 HD
ATOM     13  H   UNL     1      45.337   2.489   9.537  0.00  0.00    +0.000 HD
ENDBRANCH   3  10
ENDBRANCH   1   6
BRANCH   1  14
ATOM     14  C   UNL     1      47.871   7.830  12.263  0.00  0.00    +0.000 C 
BRANCH  14  15
ATOM     15  C   UNL     1      48.750   7.501  13.451  0.00  0.00    +0.000 A 
ATOM     16  C   UNL     1      50.017   8.085  13.584  0.00  0.00    +0.000 A 
ATOM     17  C   UNL     1      50.787   7.851  14.722  0.00  0.00    +0.000 A 
ATOM     18  C   UNL     1      50.304   7.030  15.739  0.00  0.00    +0.000 A 
ATOM     19  C   UNL     1      49.045   6.421  15.630  0.00  0.00    +0.000 A 
ATOM     20  C   UNL     1      48.281   6.662  14.476  0.00  0.00    +0.000 A 
BRANCH  19  21
ATOM     21  C   UNL     1      48.495   5.534  16.733  0.00  0.00    +0.000 C 
ATOM     22  C   UNL     1      49.605   4.945  17.614  0.00  0.00    +0.000 C 
ATOM     23  C   UNL     1      49.014   4.009  18.660  0.00  0.00    +0.000 C 
ATOM     24  O   UNL     1      48.234   2.985  18.042  0.00  0.00    +0.000 OA
ATOM     25  C   UNL     1      47.126   3.514  17.315  0.00  0.00    +0.000 C 
ATOM     26  C   UNL     1      47.604   4.411  16.182  0.00  0.00    +0.000 C 
ENDBRANCH  19  21
ENDBRANCH  14  15
ENDBRANCH   1  14
TORSDOF 5
ENDMDL
MODEL 8
REMARK VINA RESULT:    -6.171      5.838      8.374
REMARK INTER + INTRA:          -9.050
REMARK INTER:                  -8.347
REMARK INTRA:                  -0.703
REMARK UNBOUND:                -1.075
REMARK  Name = 
REMARK  5 active torsions:
REMARK  status: ('A' for Active; 'I' for Inactive)
REMARK    1  A    between atoms: C_2  and  C_4
REMARK    2  A    between atoms: C_7  and  N_8
REMARK    3  A    between atoms: N_8  and  C_9
REMARK    4  A    between atoms: C_9  and  C_10
REMARK    5  A    between atoms: C_14  and  C_15
REMARK                            x       y       z     vdW  Elec       q    Type
REMARK                         _______ _______ _______ _____ _____    ______ ____
ROOT
ATOM      1  N   UNL     1      48.869   4.363  17.264  0.00  0.00    +0.000 N 
ATOM      2  H   UNL     1      49.106   5.335  17.083  0.00  0.00    +0.000 HD
ENDROOT
BRANCH   1   6
ATOM      3  C   UNL     1      52.264   1.888  17.734  0.00  0.00    +0.000 A 
ATOM      4  C   UNL     1      52.345   3.237  18.087  0.00  0.00    +0.000 A 
ATOM      5  C   UNL     1      51.226   4.070  17.944  0.00  0.00    +0.000 A 
ATOM      6  C   UNL     1      49.999   3.573  17.485  0.00  0.00    +0.000 A 
ATOM      7  C   UNL     1      49.945   2.220  17.116  0.00  0.00    +0.000 A 
ATOM      8  C   UNL     1      51.063   1.385  17.232  0.00  0.00    +0.000 A 
BRANCH   3  10
ATOM      9  N   UNL     1      53.498  -0.052  16.928  0.00  0.00    +0.000 N 
ATOM     10  C   UNL     1      53.435   0.978  17.827  0.00  0.00    +0.000 C 
ATOM     11  O   UNL     1      54.327   1.156  18.644  0.00  0.00    +0.000 OA
ATOM     12  H   UNL     1      54.350  -0.598  16.937  0.00  0.00    +0.000 HD
ATOM     13  H   UNL     1      52.935  -0.074  16.092  0.00  0.00    +0.000 HD
ENDBRANCH   3  10
ENDBRANCH   1   6
BRANCH   1  14
ATOM     14  C   UNL     1      47.765   3.878  16.451  0.00  0.00    +0.000 C 
BRANCH  14  15
ATOM     15  C   UNL     1      47.500   4.809  15.287  0.00  0.00    +0.000 A 
ATOM     16  C   UNL     1      48.263   5.972  15.116  0.00  0.00    +0.000 A 
ATOM     17  C   UNL     1      48.077   6.780  13.995  0.00  0.00    +0.000 A 
ATOM     18  C   UNL     1      47.129   6.438  13.033  0.00  0.00    +0.000 A 
ATOM     19  C   UNL     1      46.342   5.287  13.181  0.00  0.00    +0.000 A 
ATOM     20  C   UNL     1      46.536   4.483  14.318  0.00  0.00    +0.000 A 
BRANCH  19  21
ATOM     21  C   UNL     1      45.312   4.889  12.138  0.00  0.00    +0.000 C 
ATOM     22  C   UNL     1      43.940   5.526  12.404  0.00  0.00    +0.000 C 
ATOM     23  C   UNL     1      42.924   5.046  11.377  0.00  0.00    +0.000 C 
ATOM     24  O   UNL     1      42.849   3.620  11.365  0.00  0.00    +0.000 OA
ATOM     25  C   UNL     1      44.090   3.017  11.003  0.00  0.00    +0.000 C 
ATOM     26  C   UNL     1      45.174   3.365  12.013  0.00  0.00    +0.000 C 
ENDBRANCH  19  21
ENDBRANCH  14  15
ENDBRANCH   1  14
TORSDOF 5
ENDMDL
MODEL 9
REMARK VINA RESULT:    -6.090      5.165      7.866
REMARK INTER + INTRA:          -8.946
REMARK INTER:                  -8.128
REMARK INTRA:                  -0.817
REMARK UNBOUND:                -1.075
REMARK  Name = 
REMARK  5 active torsions:
REMARK  status: ('A' for Active; 'I' for Inactive)
REMARK    1  A    between atoms: C_2  and  C_4
REMARK    2  A    between atoms: C_7  and  N_8
REMARK    3  A    between atoms: N_8  and  C_9
REMARK    4  A    between atoms: C_9  and  C_10
REMARK    5  A    between atoms: C_14  and  C_15
REMARK                            x       y       z     vdW  Elec       q    Type
REMARK                         _______ _______ _______ _____ _____    ______ ____
ROOT
ATOM      1  N   UNL     1      48.228   5.567  16.493  0.00  0.00    +0.000 N 
ATOM      2  H   UNL     1      47.572   5.705  17.258  0.00  0.00    +0.000 HD
ENDROOT
BRANCH   1   6
ATOM      3  C   UNL     1      50.967   2.480  17.409  0.00  0.00    +0.000 A 
ATOM      4  C   UNL     1      49.672   2.149  17.005  0.00  0.00    +0.000 A 
ATOM      5  C   UNL     1      48.753   3.161  16.690  0.00  0.00    +0.000 A 
ATOM      6  C   UNL     1      49.113   4.514  16.735  0.00  0.00    +0.000 A 
ATOM      7  C   UNL     1      50.412   4.825  17.163  0.00  0.00    +0.000 A 
ATOM      8  C   UNL     1      51.330   3.824  17.503  0.00  0.00    +0.000 A 
BRANCH   3  10
ATOM      9  N   UNL     1      51.475   0.211  18.138  0.00  0.00    +0.000 N 
ATOM     10  C   UNL     1      51.960   1.444  17.795  0.00  0.00    +0.000 C 
ATOM     11  O   UNL     1      53.162   1.663  17.774  0.00  0.00    +0.000 OA
ATOM     12  H   UNL     1      52.167  -0.511  18.296  0.00  0.00    +0.000 HD
ATOM     13  H   UNL     1      50.535  -0.080  17.916  0.00  0.00    +0.000 HD
ENDBRANCH   3  10
ENDBRANCH   1   6
BRANCH   1  14
ATOM     14  C   UNL     1      48.690   6.810  15.898  0.00  0.00    +0.000 C 
BRANCH  14  15
ATOM     15  C   UNL     1      48.285   6.898  14.441  0.00  0.00    +0.000 A 
ATOM     16  C   UNL     1      49.066   7.614  13.525  0.00  0.00    +0.000 A 
ATOM     17  C   UNL     1      48.740   7.619  12.170  0.00  0.00    +0.000 A 
ATOM     18  C   UNL     1      47.630   6.911  11.713  0.00  0.00    +0.000 A 
ATOM     19  C   UNL     1      46.822   6.194  12.607  0.00  0.00    +0.000 A 
ATOM     20  C   UNL     1      47.159   6.201  13.971  0.00  0.00    +0.000 A 
BRANCH  19  21
ATOM     21  C   UNL     1      45.616   5.405  12.128  0.00  0.00    +0.000 C 
ATOM     22  C   UNL     1      45.588   3.980  12.700  0.00  0.00    +0.000 C 
ATOM     23  C   UNL     1      44.404   3.205  12.140  0.00  0.00    +0.000 C 
ATOM     24  O   UNL     1      44.430   3.198  10.713  0.00  0.00    +0.000 OA
ATOM     25  C   UNL     1      44.336   4.511  10.164  0.00  0.00    +0.000 C 
ATOM     26  C   UNL     1      45.522   5.362  10.596  0.00  0.00    +0.000 C 
ENDBRANCH  19  21
ENDBRANCH  14  15
ENDBRANCH   1  14
TORSDOF 5
ENDMDL
