MODEL 1
REMARK VINA RESULT:    -7.662      0.000      0.000
REMARK INTER + INTRA:         -10.429
REMARK INTER:                  -9.901
REMARK INTRA:                  -0.528
REMARK UNBOUND:                -0.528
REMARK  Name = 
REMARK  7 active torsions:
REMARK  status: ('A' for Active; 'I' for Inactive)
REMARK    1  A    between atoms: C_1  and  O_2
REMARK    2  A    between atoms: O_2  and  C_3
REMARK    3  A    between atoms: C_5  and  C_6
REMARK    4  A    between atoms: C_6  and  N_7
REMARK    5  A    between atoms: C_12  and  C_13
REMARK    6  A    between atoms: C_13  and  O_15
REMARK    7  A    between atoms: C_21  and  O_22
REMARK                            x       y       z     vdW  Elec       q    Type
REMARK                         _______ _______ _______ _____ _____    ______ ____
ROOT
ATOM      1  N   UNL     1      44.360   4.342  10.232  0.00  0.00    +0.000 N 
ATOM      2  C   UNL     1      43.764   3.199  10.723  0.00  0.00    +0.000 A 
ATOM      3  C   UNL     1      44.257   2.121  10.025  0.00  0.00    +0.000 A 
ATOM      4  C   UNL     1      45.175   2.619   9.069  0.00  0.00    +0.000 A 
ATOM      5  C   UNL     1      45.950   2.030   8.059  0.00  0.00    +0.000 A 
ATOM      6  C   UNL     1      46.736   2.864   7.266  0.00  0.00    +0.000 A 
ATOM      7  C   UNL     1      46.700   4.239   7.503  0.00  0.00    +0.000 A 
ATOM      8  N   UNL     1      45.974   4.857   8.480  0.00  0.00    +0.000 NA
ATOM      9  C   UNL     1      45.232   4.005   9.219  0.00  0.00    +0.000 A 
ENDROOT
BRANCH   6  10
ATOM     10  C   UNL     1      47.523   2.316   6.131  0.00  0.00    +0.000 C 
ATOM     11  O   UNL     1      48.177   1.291   6.238  0.00  0.00    +0.000 OA
BRANCH  10  12
ATOM     12  O   UNL     1      47.458   3.032   4.991  0.00  0.00    +0.000 OA
ATOM     13  H   UNL     1      47.390   4.000   5.082  0.00  0.00    +0.000 HD
ENDBRANCH  10  12
ENDBRANCH   6  10
BRANCH   1  14
ATOM     14  C   UNL     1      43.989   5.704  10.617  0.00  0.00    +0.000 C 
BRANCH  14  17
ATOM     15  C   UNL     1      46.762   6.100  13.226  0.00  0.00    +0.000 A 
ATOM     16  C   UNL     1      45.884   5.540  12.290  0.00  0.00    +0.000 A 
ATOM     17  C   UNL     1      44.962   6.334  11.587  0.00  0.00    +0.000 A 
ATOM     18  C   UNL     1      44.990   7.723  11.777  0.00  0.00    +0.000 A 
ATOM     19  C   UNL     1      45.881   8.300  12.686  0.00  0.00    +0.000 A 
ATOM     20  C   UNL     1      46.747   7.487  13.417  0.00  0.00    +0.000 A 
BRANCH  15  22
ATOM     21  C   UNL     1      47.081   4.454  14.912  0.00  0.00    +0.000 C 
ATOM     22  O   UNL     1      47.644   5.379  13.990  0.00  0.00    +0.000 OA
ENDBRANCH  15  22
BRANCH  20  23
ATOM     23  O   UNL     1      47.593   8.051  14.336  0.00  0.00    +0.000 OA
ATOM     24  H   UNL     1      48.133   8.729  13.900  0.00  0.00    +0.000 HD
ENDBRANCH  20  23
ENDBRANCH  14  17
ENDBRANCH   1  14
TORSDOF 6
ENDMDL
MODEL 2
REMARK VINA RESULT:    -7.482      1.369      6.542
REMARK INTER + INTRA:         -10.197
REMARK INTER:                  -9.561
REMARK INTRA:                  -0.635
REMARK UNBOUND:                -0.528
REMARK  Name = 
REMARK  7 active torsions:
REMARK  status: ('A' for Active; 'I' for Inactive)
REMARK    1  A    between atoms: C_1  and  O_2
REMARK    2  A    between atoms: O_2  and  C_3
REMARK    3  A    between atoms: C_5  and  C_6
REMARK    4  A    between atoms: C_6  and  N_7
REMARK    5  A    between atoms: C_12  and  C_13
REMARK    6  A    between atoms: C_13  and  O_15
REMARK    7  A    between atoms: C_21  and  O_22
REMARK                            x       y       z     vdW  Elec       q    Type
REMARK                         _______ _______ _______ _____ _____    ______ ____
ROOT
ATOM      1  N   UNL     1      44.349   3.979  10.392  0.00  0.00    +0.000 N 
ATOM      2  C   UNL     1      43.861   3.036  11.273  0.00  0.00    +0.000 A 
ATOM      3  C   UNL     1      44.377   3.303  12.520  0.00  0.00    +0.000 A 
ATOM      4  C   UNL     1      45.216   4.437  12.398  0.00  0.00    +0.000 A 
ATOM      5  C   UNL     1      46.037   5.146  13.287  0.00  0.00    +0.000 A 
ATOM      6  C   UNL     1      46.765   6.224  12.788  0.00  0.00    +0.000 A 
ATOM      7  C   UNL     1      46.655   6.534  11.432  0.00  0.00    +0.000 A 
ATOM      8  N   UNL     1      45.863   5.884  10.531  0.00  0.00    +0.000 NA
ATOM      9  C   UNL     1      45.179   4.849  11.065  0.00  0.00    +0.000 A 
ENDROOT
BRANCH   6  10
ATOM     10  C   UNL     1      47.710   6.973  13.657  0.00  0.00    +0.000 C 
ATOM     11  O   UNL     1      47.488   8.120  14.011  0.00  0.00    +0.000 OA
BRANCH  10  12
ATOM     12  O   UNL     1      48.816   6.292  14.018  0.00  0.00    +0.000 OA
ATOM     13  H   UNL     1      48.686   5.500  14.570  0.00  0.00    +0.000 HD
ENDBRANCH  10  12
ENDBRANCH   6  10
BRANCH   1  14
ATOM     14  C   UNL     1      44.146   3.945   8.943  0.00  0.00    +0.000 C 
BRANCH  14  17
ATOM     15  C   UNL     1      46.788   1.471   7.696  0.00  0.00    +0.000 A 
ATOM     16  C   UNL     1      45.675   2.014   8.349  0.00  0.00    +0.000 A 
ATOM     17  C   UNL     1      45.322   3.366   8.191  0.00  0.00    +0.000 A 
ATOM     18  C   UNL     1      46.062   4.152   7.296  0.00  0.00    +0.000 A 
ATOM     19  C   UNL     1      47.158   3.617   6.614  0.00  0.00    +0.000 A 
ATOM     20  C   UNL     1      47.526   2.289   6.830  0.00  0.00    +0.000 A 
BRANCH  15  22
ATOM     21  C   UNL     1      46.415  -0.840   7.278  0.00  0.00    +0.000 C 
ATOM     22  O   UNL     1      47.224   0.180   7.850  0.00  0.00    +0.000 OA
ENDBRANCH  15  22
BRANCH  20  23
ATOM     23  O   UNL     1      48.624   1.777   6.191  0.00  0.00    +0.000 OA
ATOM     24  H   UNL     1      49.000   2.454   5.608  0.00  0.00    +0.000 HD
ENDBRANCH  20  23
ENDBRANCH  14  17
ENDBRANCH   1  14
TORSDOF 6
ENDMDL
MODEL 3
REMARK VINA RESULT:    -7.229      1.113      2.285
REMARK INTER + INTRA:          -9.870
REMARK INTER:                  -9.339
REMARK INTRA:                  -0.531
REMARK UNBOUND:                -0.528
REMARK  Name = 
REMARK  7 active torsions:
REMARK  status: ('A' for Active; 'I' for Inactive)
REMARK    1  A    between atoms: C_1  and  O_2
REMARK    2  A    between atoms: O_2  and  C_3
REMARK    3  A    between atoms: C_5  and  C_6
REMARK    4  A    between atoms: C_6  and  N_7
REMARK    5  A    between atoms: C_12  and  C_13
REMARK    6  A    between atoms: C_13  and  O_15
REMARK    7  A    between atoms: C_21  and  O_22
REMARK                            x       y       z     vdW  Elec       q    Type
REMARK                         _______ _______ _______ _____ _____    ______ ____
ROOT
ATOM      1  N   UNL     1      44.082   4.392  10.487  0.00  0.00    +0.000 N 
ATOM      2  C   UNL     1      43.570   3.237  11.041  0.00  0.00    +0.000 A 
ATOM      3  C   UNL     1      44.136   2.161  10.396  0.00  0.00    +0.000 A 
ATOM      4  C   UNL     1      45.013   2.672   9.409  0.00  0.00    +0.000 A 
ATOM      5  C   UNL     1      45.823   2.087   8.425  0.00  0.00    +0.000 A 
ATOM      6  C   UNL     1      46.545   2.933   7.584  0.00  0.00    +0.000 A 
ATOM      7  C   UNL     1      46.413   4.312   7.750  0.00  0.00    +0.000 A 
ATOM      8  N   UNL     1      45.648   4.928   8.698  0.00  0.00    +0.000 NA
ATOM      9  C   UNL     1      44.971   4.065   9.486  0.00  0.00    +0.000 A 
ENDROOT
BRANCH   6  10
ATOM     10  C   UNL     1      47.365   2.383   6.473  0.00  0.00    +0.000 C 
ATOM     11  O   UNL     1      48.079   1.404   6.624  0.00  0.00    +0.000 OA
BRANCH  10  12
ATOM     12  O   UNL     1      47.258   3.043   5.303  0.00  0.00    +0.000 OA
ATOM     13  H   UNL     1      47.946   2.870   4.634  0.00  0.00    +0.000 HD
ENDBRANCH  10  12
ENDBRANCH   6  10
BRANCH   1  14
ATOM     14  C   UNL     1      43.616   5.742  10.803  0.00  0.00    +0.000 C 
BRANCH  14  17
ATOM     15  C   UNL     1      45.644   8.714  12.110  0.00  0.00    +0.000 A 
ATOM     16  C   UNL     1      44.684   7.951  11.434  0.00  0.00    +0.000 A 
ATOM     17  C   UNL     1      44.628   6.554  11.579  0.00  0.00    +0.000 A 
ATOM     18  C   UNL     1      45.504   5.937  12.483  0.00  0.00    +0.000 A 
ATOM     19  C   UNL     1      46.449   6.689  13.187  0.00  0.00    +0.000 A 
ATOM     20  C   UNL     1      46.527   8.067  12.984  0.00  0.00    +0.000 A 
BRANCH  15  22
ATOM     21  C   UNL     1      44.629  10.810  11.629  0.00  0.00    +0.000 C 
ATOM     22  O   UNL     1      45.795  10.070  11.970  0.00  0.00    +0.000 OA
ENDBRANCH  15  22
BRANCH  20  23
ATOM     23  O   UNL     1      47.479   8.797  13.645  0.00  0.00    +0.000 OA
ATOM     24  H   UNL     1      47.227   8.880  14.578  0.00  0.00    +0.000 HD
ENDBRANCH  20  23
ENDBRANCH  14  17
ENDBRANCH   1  14
TORSDOF 6
ENDMDL
MODEL 4
REMARK VINA RESULT:    -5.950      3.906      6.365
REMARK INTER + INTRA:          -8.217
REMARK INTER:                  -7.868
REMARK INTRA:                  -0.349
REMARK UNBOUND:                -0.528
REMARK  Name = 
REMARK  7 active torsions:
REMARK  status: ('A' for Active; 'I' for Inactive)
REMARK    1  A    between atoms: C_1  and  O_2
REMARK    2  A    between atoms: O_2  and  C_3
REMARK    3  A    between atoms: C_5  and  C_6
REMARK    4  A    between atoms: C_6  and  N_7
REMARK    5  A    between atoms: C_12  and  C_13
REMARK    6  A    between atoms: C_13  and  O_15
REMARK    7  A    between atoms: C_21  and  O_22
REMARK                            x       y       z     vdW  Elec       q    Type
REMARK                         _______ _______ _______ _____ _____    ______ ____
ROOT
ATOM      1  N   UNL     1      47.132   4.995  15.091  0.00  0.00    +0.000 N 
ATOM      2  C   UNL     1      48.093   5.975  14.959  0.00  0.00    +0.000 A 
ATOM      3  C   UNL     1      48.003   6.498  13.689  0.00  0.00    +0.000 A 
ATOM      4  C   UNL     1      46.963   5.810  13.019  0.00  0.00    +0.000 A 
ATOM      5  C   UNL     1      46.437   5.860  11.720  0.00  0.00    +0.000 A 
ATOM      6  C   UNL     1      45.404   4.981  11.398  0.00  0.00    +0.000 A 
ATOM      7  C   UNL     1      44.959   4.088  12.373  0.00  0.00    +0.000 A 
ATOM      8  N   UNL     1      45.429   4.010  13.652  0.00  0.00    +0.000 NA
ATOM      9  C   UNL     1      46.427   4.881  13.913  0.00  0.00    +0.000 A 
ENDROOT
BRANCH   6  10
ATOM     10  C   UNL     1      44.851   4.928  10.019  0.00  0.00    +0.000 C 
ATOM     11  O   UNL     1      43.773   4.408   9.779  0.00  0.00    +0.000 OA
BRANCH  10  12
ATOM     12  O   UNL     1      45.624   5.492   9.071  0.00  0.00    +0.000 OA
ATOM     13  H   UNL     1      46.160   6.262   9.339  0.00  0.00    +0.000 HD
ENDBRANCH  10  12
ENDBRANCH   6  10
BRANCH   1  14
ATOM     14  C   UNL     1      47.007   4.105  16.246  0.00  0.00    +0.000 C 
BRANCH  14  17
ATOM     15  C   UNL     1      50.290   4.024  18.213  0.00  0.00    +0.000 A 
ATOM     16  C   UNL     1      49.033   4.415  17.735  0.00  0.00    +0.000 A 
ATOM     17  C   UNL     1      48.340   3.642  16.787  0.00  0.00    +0.000 A 
ATOM     18  C   UNL     1      48.893   2.418  16.384  0.00  0.00    +0.000 A 
ATOM     19  C   UNL     1      50.133   2.000  16.876  0.00  0.00    +0.000 A 
ATOM     20  C   UNL     1      50.832   2.811  17.770  0.00  0.00    +0.000 A 
BRANCH  15  22
ATOM     21  C   UNL     1      50.346   5.448  20.117  0.00  0.00    +0.000 C 
ATOM     22  O   UNL     1      51.048   4.758  19.090  0.00  0.00    +0.000 OA
ENDBRANCH  15  22
BRANCH  20  23
ATOM     23  O   UNL     1      52.065   2.418  18.221  0.00  0.00    +0.000 OA
ATOM     24  H   UNL     1      52.284   2.912  19.026  0.00  0.00    +0.000 HD
ENDBRANCH  20  23
ENDBRANCH  14  17
ENDBRANCH   1  14
TORSDOF 6
ENDMDL
MODEL 5
REMARK VINA RESULT:    -5.888      4.083      7.152
REMARK INTER + INTRA:          -8.137
REMARK INTER:                  -7.641
REMARK INTRA:                  -0.496
REMARK UNBOUND:                -0.528
REMARK  Name = 
REMARK  7 active torsions:
REMARK  status: ('A' for Active; 'I' for Inactive)
REMARK    1  A    between atoms: C_1  and  O_2
REMARK    2  A    between atoms: O_2  and  C_3
REMARK    3  A    between atoms: C_5  and  C_6
REMARK    4  A    between atoms: C_6  and  N_7
REMARK    5  A    between atoms: C_12  and  C_13
REMARK    6  A    between atoms: C_13  and  O_15
REMARK    7  A    between atoms: C_21  and  O_22
REMARK                            x       y       z     vdW  Elec       q    Type
REMARK                         _______ _______ _______ _____ _____    ______ ____
ROOT
ATOM      1  N   UNL     1      48.049   6.753  13.173  0.00  0.00    +0.000 N 
ATOM      2  C   UNL     1      48.568   7.907  13.722  0.00  0.00    +0.000 A 
ATOM      3  C   UNL     1      48.780   7.688  15.064  0.00  0.00    +0.000 A 
ATOM      4  C   UNL     1      48.367   6.364  15.348  0.00  0.00    +0.000 A 
ATOM      5  C   UNL     1      48.296   5.592  16.518  0.00  0.00    +0.000 A 
ATOM      6  C   UNL     1      47.789   4.298  16.417  0.00  0.00    +0.000 A 
ATOM      7  C   UNL     1      47.363   3.842  15.169  0.00  0.00    +0.000 A 
ATOM      8  N   UNL     1      47.423   4.548  14.003  0.00  0.00    +0.000 NA
ATOM      9  C   UNL     1      47.922   5.794  14.154  0.00  0.00    +0.000 A 
ENDROOT
BRANCH   6  10
ATOM     10  C   UNL     1      47.617   3.452  17.627  0.00  0.00    +0.000 C 
ATOM     11  O   UNL     1      48.494   3.349  18.470  0.00  0.00    +0.000 OA
BRANCH  10  12
ATOM     12  O   UNL     1      46.432   2.817  17.717  0.00  0.00    +0.000 OA
ATOM     13  H   UNL     1      45.954   2.655  16.883  0.00  0.00    +0.000 HD
ENDBRANCH  10  12
ENDBRANCH   6  10
BRANCH   1  14
ATOM     14  C   UNL     1      47.555   6.636  11.800  0.00  0.00    +0.000 C 
BRANCH  14  17
ATOM     15  C   UNL     1      44.039   5.192  11.337  0.00  0.00    +0.000 A 
ATOM     16  C   UNL     1      45.430   5.298  11.462  0.00  0.00    +0.000 A 
ATOM     17  C   UNL     1      46.049   6.534  11.717  0.00  0.00    +0.000 A 
ATOM     18  C   UNL     1      45.239   7.659  11.929  0.00  0.00    +0.000 A 
ATOM     19  C   UNL     1      43.848   7.564  11.836  0.00  0.00    +0.000 A 
ATOM     20  C   UNL     1      43.257   6.339  11.523  0.00  0.00    +0.000 A 
BRANCH  15  22
ATOM     21  C   UNL     1      43.470   2.973  11.974  0.00  0.00    +0.000 C 
ATOM     22  O   UNL     1      43.375   4.032  11.030  0.00  0.00    +0.000 OA
ENDBRANCH  15  22
BRANCH  20  23
ATOM     23  O   UNL     1      41.896   6.255  11.395  0.00  0.00    +0.000 OA
ATOM     24  H   UNL     1      41.498   7.102  11.649  0.00  0.00    +0.000 HD
ENDBRANCH  20  23
ENDBRANCH  14  17
ENDBRANCH   1  14
TORSDOF 6
ENDMDL
MODEL 6
REMARK VINA RESULT:    -5.848      3.755      5.695
REMARK INTER + INTRA:          -8.086
REMARK INTER:                  -7.453
REMARK INTRA:                  -0.633
REMARK UNBOUND:                -0.528
REMARK  Name = 
REMARK  7 active torsions:
REMARK  status: ('A' for Active; 'I' for Inactive)
REMARK    1  A    between atoms: C_1  and  O_2
REMARK    2  A    between atoms: O_2  and  C_3
REMARK    3  A    between atoms: C_5  and  C_6
REMARK    4  A    between atoms: C_6  and  N_7
REMARK    5  A    between atoms: C_12  and  C_13
REMARK    6  A    between atoms: C_13  and  O_15
REMARK    7  A    between atoms: C_21  and  O_22
REMARK                            x       y       z     vdW  Elec       q    Type
REMARK                         _______ _______ _______ _____ _____    ______ ____
ROOT
ATOM      1  N   UNL     1      47.427   7.310  13.640  0.00  0.00    +0.000 N 
ATOM      2  C   UNL     1      47.010   8.610  13.440  0.00  0.00    +0.000 A 
ATOM      3  C   UNL     1      45.845   8.581  12.707  0.00  0.00    +0.000 A 
ATOM      4  C   UNL     1      45.546   7.223  12.440  0.00  0.00    +0.000 A 
ATOM      5  C   UNL     1      44.538   6.569  11.717  0.00  0.00    +0.000 A 
ATOM      6  C   UNL     1      44.584   5.178  11.642  0.00  0.00    +0.000 A 
ATOM      7  C   UNL     1      45.636   4.509  12.271  0.00  0.00    +0.000 A 
ATOM      8  N   UNL     1      46.632   5.099  12.994  0.00  0.00    +0.000 NA
ATOM      9  C   UNL     1      46.540   6.446  13.037  0.00  0.00    +0.000 A 
ENDROOT
BRANCH   6  10
ATOM     10  C   UNL     1      43.591   4.425  10.832  0.00  0.00    +0.000 C 
ATOM     11  O   UNL     1      42.938   3.508  11.304  0.00  0.00    +0.000 OA
BRANCH  10  12
ATOM     12  O   UNL     1      43.471   4.832   9.553  0.00  0.00    +0.000 OA
ATOM     13  H   UNL     1      43.054   5.699   9.403  0.00  0.00    +0.000 HD
ENDBRANCH  10  12
ENDBRANCH   6  10
BRANCH   1  14
ATOM     14  C   UNL     1      48.703   6.932  14.249  0.00  0.00    +0.000 C 
BRANCH  14  17
ATOM     15  C   UNL     1      48.194   5.293  17.671  0.00  0.00    +0.000 A 
ATOM     16  C   UNL     1      48.326   5.479  16.290  0.00  0.00    +0.000 A 
ATOM     17  C   UNL     1      48.614   6.742  15.746  0.00  0.00    +0.000 A 
ATOM     18  C   UNL     1      48.852   7.811  16.622  0.00  0.00    +0.000 A 
ATOM     19  C   UNL     1      48.754   7.635  18.005  0.00  0.00    +0.000 A 
ATOM     20  C   UNL     1      48.408   6.386  18.521  0.00  0.00    +0.000 A 
BRANCH  15  22
ATOM     21  C   UNL     1      47.480   3.042  17.397  0.00  0.00    +0.000 C 
ATOM     22  O   UNL     1      47.856   4.104  18.265  0.00  0.00    +0.000 OA
ENDBRANCH  15  22
BRANCH  20  23
ATOM     23  O   UNL     1      48.274   6.224  19.875  0.00  0.00    +0.000 OA
ATOM     24  H   UNL     1      47.349   6.374  20.125  0.00  0.00    +0.000 HD
ENDBRANCH  20  23
ENDBRANCH  14  17
ENDBRANCH   1  14
TORSDOF 6
ENDMDL
MODEL 7
REMARK VINA RESULT:    -5.755      3.930      6.133
REMARK INTER + INTRA:          -7.965
REMARK INTER:                  -7.630
REMARK INTRA:                  -0.335
REMARK UNBOUND:                -0.528
REMARK  Name = 
REMARK  7 active torsions:
REMARK  status: ('A' for Active; 'I' for Inactive)
REMARK    1  A    between atoms: C_1  and  O_2
REMARK    2  A    between atoms: O_2  and  C_3
REMARK    3  A    between atoms: C_5  and  C_6
REMARK    4  A    between atoms: C_6  and  N_7
REMARK    5  A    between atoms: C_12  and  C_13
REMARK    6  A    between atoms: C_13  and  O_15
REMARK    7  A    between atoms: C_21  and  O_22
REMARK                            x       y       z     vdW  Elec       q    Type
REMARK                         _______ _______ _______ _____ _____    ______ ____
ROOT
ATOM      1  N   UNL     1      47.267   4.897  14.907  0.00  0.00    +0.000 N 
ATOM      2  C   UNL     1      48.042   6.037  14.883  0.00  0.00    +0.000 A 
ATOM      3  C   UNL     1      47.826   6.680  13.685  0.00  0.00    +0.000 A 
ATOM      4  C   UNL     1      46.898   5.904  12.949  0.00  0.00    +0.000 A 
ATOM      5  C   UNL     1      46.332   6.012  11.670  0.00  0.00    +0.000 A 
ATOM      6  C   UNL     1      45.454   5.010  11.257  0.00  0.00    +0.000 A 
ATOM      7  C   UNL     1      45.197   3.948  12.124  0.00  0.00    +0.000 A 
ATOM      8  N   UNL     1      45.713   3.805  13.379  0.00  0.00    +0.000 NA
ATOM      9  C   UNL     1      46.555   4.800  13.731  0.00  0.00    +0.000 A 
ENDROOT
BRANCH   6  10
ATOM     10  C   UNL     1      44.876   5.023   9.887  0.00  0.00    +0.000 C 
ATOM     11  O   UNL     1      45.581   5.032   8.891  0.00  0.00    +0.000 OA
BRANCH  10  12
ATOM     12  O   UNL     1      43.529   5.022   9.836  0.00  0.00    +0.000 OA
ATOM     13  H   UNL     1      43.057   5.323  10.634  0.00  0.00    +0.000 HD
ENDBRANCH  10  12
ENDBRANCH   6  10
BRANCH   1  14
ATOM     14  C   UNL     1      47.330   3.872  15.950  0.00  0.00    +0.000 C 
BRANCH  14  17
ATOM     15  C   UNL     1      49.972   4.499  18.649  0.00  0.00    +0.000 A 
ATOM     16  C   UNL     1      49.353   4.098  17.458  0.00  0.00    +0.000 A 
ATOM     17  C   UNL     1      47.992   4.356  17.219  0.00  0.00    +0.000 A 
ATOM     18  C   UNL     1      47.274   5.101  18.166  0.00  0.00    +0.000 A 
ATOM     19  C   UNL     1      47.886   5.534  19.345  0.00  0.00    +0.000 A 
ATOM     20  C   UNL     1      49.222   5.216  19.589  0.00  0.00    +0.000 A 
BRANCH  15  22
ATOM     21  C   UNL     1      52.116   3.777  17.918  0.00  0.00    +0.000 C 
ATOM     22  O   UNL     1      51.277   4.228  18.973  0.00  0.00    +0.000 OA
ENDBRANCH  15  22
BRANCH  20  23
ATOM     23  O   UNL     1      49.809   5.608  20.764  0.00  0.00    +0.000 OA
ATOM     24  H   UNL     1      49.143   6.025  21.331  0.00  0.00    +0.000 HD
ENDBRANCH  20  23
ENDBRANCH  14  17
ENDBRANCH   1  14
TORSDOF 6
ENDMDL
MODEL 8
REMARK VINA RESULT:    -5.554      3.638      5.773
REMARK INTER + INTRA:          -7.705
REMARK INTER:                  -7.253
REMARK INTRA:                  -0.452
REMARK UNBOUND:                -0.528
REMARK  Name = 
REMARK  7 active torsions:
REMARK  status: ('A' for Active; 'I' for Inactive)
REMARK    1  A    between atoms: C_1  and  O_2
REMARK    2  A    between atoms: O_2  and  C_3
REMARK    3  A    between atoms: C_5  and  C_6
REMARK    4  A    between atoms: C_6  and  N_7
REMARK    5  A    between atoms: C_12  and  C_13
REMARK    6  A    between atoms: C_13  and  O_15
REMARK    7  A    between atoms: C_21  and  O_22
REMARK                            x       y       z     vdW  Elec       q    Type
REMARK                         _______ _______ _______ _____ _____    ______ ____
ROOT
ATOM      1  N   UNL     1      47.304   6.297  13.740  0.00  0.00    +0.000 N 
ATOM      2  C   UNL     1      46.897   7.552  13.338  0.00  0.00    +0.000 A 
ATOM      3  C   UNL     1      45.813   7.407  12.502  0.00  0.00    +0.000 A 
ATOM      4  C   UNL     1      45.555   6.020  12.380  0.00  0.00    +0.000 A 
ATOM      5  C   UNL     1      44.631   5.259  11.649  0.00  0.00    +0.000 A 
ATOM      6  C   UNL     1      44.698   3.870  11.754  0.00  0.00    +0.000 A 
ATOM      7  C   UNL     1      45.687   3.309  12.563  0.00  0.00    +0.000 A 
ATOM      8  N   UNL     1      46.599   4.005  13.302  0.00  0.00    +0.000 NA
ATOM      9  C   UNL     1      46.491   5.345  13.166  0.00  0.00    +0.000 A 
ENDROOT
BRANCH   6  10
ATOM     10  C   UNL     1      43.799   3.001  10.950  0.00  0.00    +0.000 C 
ATOM     11  O   UNL     1      43.823   3.005   9.730  0.00  0.00    +0.000 OA
BRANCH  10  12
ATOM     12  O   UNL     1      42.968   2.221  11.668  0.00  0.00    +0.000 OA
ATOM     13  H   UNL     1      42.629   2.589  12.505  0.00  0.00    +0.000 HD
ENDBRANCH  10  12
ENDBRANCH   6  10
BRANCH   1  14
ATOM     14  C   UNL     1      48.515   6.026  14.516  0.00  0.00    +0.000 C 
BRANCH  14  17
ATOM     15  C   UNL     1      48.376   6.635  18.293  0.00  0.00    +0.000 A 
ATOM     16  C   UNL     1      48.577   6.823  16.920  0.00  0.00    +0.000 A 
ATOM     17  C   UNL     1      48.245   5.824  15.989  0.00  0.00    +0.000 A 
ATOM     18  C   UNL     1      47.625   4.654  16.453  0.00  0.00    +0.000 A 
ATOM     19  C   UNL     1      47.390   4.465  17.817  0.00  0.00    +0.000 A 
ATOM     20  C   UNL     1      47.782   5.444  18.730  0.00  0.00    +0.000 A 
BRANCH  15  22
ATOM     21  C   UNL     1      50.121   7.663  19.539  0.00  0.00    +0.000 C 
ATOM     22  O   UNL     1      48.732   7.541  19.259  0.00  0.00    +0.000 OA
ENDBRANCH  15  22
BRANCH  20  23
ATOM     23  O   UNL     1      47.586   5.240  20.070  0.00  0.00    +0.000 OA
ATOM     24  H   UNL     1      48.004   5.960  20.568  0.00  0.00    +0.000 HD
ENDBRANCH  20  23
ENDBRANCH  14  17
ENDBRANCH   1  14
TORSDOF 6
ENDMDL
MODEL 9
REMARK VINA RESULT:    -5.426      3.591      6.915
REMARK INTER + INTRA:          -7.541
REMARK INTER:                  -7.216
REMARK INTRA:                  -0.325
REMARK UNBOUND:                -0.528
REMARK  Name = 
REMARK  7 active torsions:
REMARK  status: ('A' for Active; 'I' for Inactive)
REMARK    1  A    between atoms: C_1  and  O_2
REMARK    2  A    between atoms: O_2  and  C_3
REMARK    3  A    between atoms: C_5  and  C_6
REMARK    4  A    between atoms: C_6  and  N_7
REMARK    5  A    between atoms: C_12  and  C_13
REMARK    6  A    between atoms: C_13  and  O_15
REMARK    7  A    between atoms: C_21  and  O_22
REMARK                            x       y       z     vdW  Elec       q    Type
REMARK                         _______ _______ _______ _____ _____    ______ ____
ROOT
ATOM      1  N   UNL     1      46.607   7.296  12.317  0.00  0.00    +0.000 N 
ATOM      2  C   UNL     1      47.330   6.212  12.772  0.00  0.00    +0.000 A 
ATOM      3  C   UNL     1      48.649   6.588  12.882  0.00  0.00    +0.000 A 
ATOM      4  C   UNL     1      48.740   7.940  12.471  0.00  0.00    +0.000 A 
ATOM      5  C   UNL     1      49.799   8.847  12.322  0.00  0.00    +0.000 A 
ATOM      6  C   UNL     1      49.506  10.124  11.847  0.00  0.00    +0.000 A 
ATOM      7  C   UNL     1      48.182  10.430  11.528  0.00  0.00    +0.000 A 
ATOM      8  N   UNL     1      47.117   9.589  11.666  0.00  0.00    +0.000 NA
ATOM      9  C   UNL     1      47.455   8.366  12.130  0.00  0.00    +0.000 A 
ENDROOT
BRANCH   6  10
ATOM     10  C   UNL     1      50.589  11.111  11.595  0.00  0.00    +0.000 C 
ATOM     11  O   UNL     1      51.311  11.515  12.492  0.00  0.00    +0.000 OA
BRANCH  10  12
ATOM     12  O   UNL     1      50.707  11.516  10.316  0.00  0.00    +0.000 OA
ATOM     13  H   UNL     1      50.527  10.853   9.624  0.00  0.00    +0.000 HD
ENDBRANCH  10  12
ENDBRANCH   6  10
BRANCH   1  14
ATOM     14  C   UNL     1      45.196   7.251  11.934  0.00  0.00    +0.000 C 
BRANCH  14  17
ATOM     15  C   UNL     1      44.301   3.758  10.649  0.00  0.00    +0.000 A 
ATOM     16  C   UNL     1      44.846   5.044  10.740  0.00  0.00    +0.000 A 
ATOM     17  C   UNL     1      44.640   5.847  11.876  0.00  0.00    +0.000 A 
ATOM     18  C   UNL     1      43.941   5.303  12.963  0.00  0.00    +0.000 A 
ATOM     19  C   UNL     1      43.416   4.010  12.899  0.00  0.00    +0.000 A 
ATOM     20  C   UNL     1      43.581   3.252  11.740  0.00  0.00    +0.000 A 
BRANCH  15  22
ATOM     21  C   UNL     1      44.585   3.590   8.294  0.00  0.00    +0.000 C 
ATOM     22  O   UNL     1      44.411   2.945   9.550  0.00  0.00    +0.000 OA
ENDBRANCH  15  22
BRANCH  20  23
ATOM     23  O   UNL     1      43.033   1.999  11.664  0.00  0.00    +0.000 OA
ATOM     24  H   UNL     1      43.743   1.339  11.658  0.00  0.00    +0.000 HD
ENDBRANCH  20  23
ENDBRANCH  14  17
ENDBRANCH   1  14
TORSDOF 6
ENDMDL
