MODEL 1
REMARK VINA RESULT:    -8.207      0.000      0.000
REMARK INTER + INTRA:         -10.754
REMARK INTER:                 -10.127
REMARK INTRA:                  -0.627
REMARK UNBOUND:                -0.627
REMARK  Name = 
REMARK  4 active torsions:
REMARK  status: ('A' for Active; 'I' for Inactive)
REMARK    1  A    between atoms: C_2  and  C_3
REMARK    2  A    between atoms: N_7  and  C_8
REMARK    3  A    between atoms: C_8  and  C_9
REMARK    4  A    between atoms: C_11  and  C_12
REMARK                            x       y       z     vdW  Elec       q    Type
REMARK                         _______ _______ _______ _____ _____    ______ ____
ROOT
ATOM      1  C   UNL     1      44.041   4.505  11.264  0.00  0.00    +0.000 C 
ATOM      2  C   UNL     1      42.688   4.585  11.949  0.00  0.00    +0.000 C 
ATOM      3  C   UNL     1      43.086   5.636  10.962  0.00  0.00    +0.000 C 
ENDROOT
BRANCH   1   8
ATOM      4  C   UNL     1      46.742   2.524   7.241  0.00  0.00    +0.000 A 
ATOM      5  C   UNL     1      46.565   3.861   7.602  0.00  0.00    +0.000 A 
ATOM      6  C   UNL     1      45.754   4.180   8.704  0.00  0.00    +0.000 A 
ATOM      7  C   UNL     1      45.136   3.148   9.394  0.00  0.00    +0.000 A 
ATOM      8  N   UNL     1      44.166   3.331  10.377  0.00  0.00    +0.000 N 
ATOM      9  N   UNL     1      45.346   1.849   9.085  0.00  0.00    +0.000 NA
ATOM     10  C   UNL     1      46.130   1.564   8.021  0.00  0.00    +0.000 A 
ATOM     11  H   UNL     1      44.029   2.416  10.797  0.00  0.00    +0.000 HD
BRANCH   4  13
ATOM     12  N   UNL     1      48.110   1.832   5.158  0.00  0.00    +0.000 NA
ATOM     13  C   UNL     1      47.483   2.146   6.086  0.00  0.00    +0.000 C 
ENDBRANCH   4  13
ENDBRANCH   1   8
BRANCH   1  14
ATOM     14  C   UNL     1      45.327   4.808  12.036  0.00  0.00    +0.000 A 
ATOM     15  C   UNL     1      46.071   5.925  11.649  0.00  0.00    +0.000 A 
ATOM     16  C   UNL     1      46.834   6.627  12.588  0.00  0.00    +0.000 A 
ATOM     17  C   UNL     1      46.974   6.034  13.848  0.00  0.00    +0.000 A 
ATOM     18  C   UNL     1      46.358   4.819  14.100  0.00  0.00    +0.000 A 
ATOM     19  N   UNL     1      45.529   4.206  13.234  0.00  0.00    +0.000 NA
BRANCH  16  20
ATOM     20  C   UNL     1      47.334   7.994  12.295  0.00  0.00    +0.000 A 
ATOM     21  C   UNL     1      48.650   8.203  11.831  0.00  0.00    +0.000 A 
ATOM     22  C   UNL     1      49.121   9.473  11.496  0.00  0.00    +0.000 A 
ATOM     23  C   UNL     1      48.278  10.573  11.596  0.00  0.00    +0.000 A 
ATOM     24  C   UNL     1      46.972  10.397  12.040  0.00  0.00    +0.000 A 
ATOM     25  C   UNL     1      46.504   9.122  12.396  0.00  0.00    +0.000 A 
ENDBRANCH  16  20
ENDBRANCH   1  14
TORSDOF 4
ENDMDL
MODEL 2
REMARK VINA RESULT:    -7.385      2.386      6.749
REMARK INTER + INTRA:          -9.739
REMARK INTER:                  -9.204
REMARK INTRA:                  -0.535
REMARK UNBOUND:                -0.627
REMARK  Name = 
REMARK  4 active torsions:
REMARK  status: ('A' for Active; 'I' for Inactive)
REMARK    1  A    between atoms: C_2  and  C_3
REMARK    2  A    between atoms: N_7  and  C_8
REMARK    3  A    between atoms: C_8  and  C_9
REMARK    4  A    between atoms: C_11  and  C_12
REMARK                            x       y       z     vdW  Elec       q    Type
REMARK                         _______ _______ _______ _____ _____    ______ ____
ROOT
ATOM      1  C   UNL     1      46.138   4.992  13.450  0.00  0.00    +0.000 C 
ATOM      2  C   UNL     1      46.376   4.280  14.771  0.00  0.00    +0.000 C 
ATOM      3  C   UNL     1      47.398   4.191  13.681  0.00  0.00    +0.000 C 
ENDROOT
BRANCH   1   8
ATOM      4  C   UNL     1      48.237   9.437  11.651  0.00  0.00    +0.000 A 
ATOM      5  C   UNL     1      48.772   8.148  11.633  0.00  0.00    +0.000 A 
ATOM      6  C   UNL     1      48.053   7.091  12.218  0.00  0.00    +0.000 A 
ATOM      7  C   UNL     1      46.833   7.368  12.814  0.00  0.00    +0.000 A 
ATOM      8  N   UNL     1      46.112   6.462  13.588  0.00  0.00    +0.000 N 
ATOM      9  N   UNL     1      46.282   8.603  12.786  0.00  0.00    +0.000 NA
ATOM     10  C   UNL     1      46.991   9.605  12.218  0.00  0.00    +0.000 A 
ATOM     11  H   UNL     1      45.207   6.896  13.743  0.00  0.00    +0.000 HD
BRANCH   4  13
ATOM     12  N   UNL     1      49.547  11.461  10.716  0.00  0.00    +0.000 NA
ATOM     13  C   UNL     1      48.955  10.559  11.149  0.00  0.00    +0.000 C 
ENDBRANCH   4  13
ENDBRANCH   1   8
BRANCH   1  14
ATOM     14  C   UNL     1      45.101   4.468  12.456  0.00  0.00    +0.000 A 
ATOM     15  C   UNL     1      45.472   4.380  11.112  0.00  0.00    +0.000 A 
ATOM     16  C   UNL     1      44.910   3.402  10.284  0.00  0.00    +0.000 A 
ATOM     17  C   UNL     1      43.831   2.683  10.811  0.00  0.00    +0.000 A 
ATOM     18  C   UNL     1      43.391   2.961  12.095  0.00  0.00    +0.000 A 
ATOM     19  N   UNL     1      44.009   3.819  12.929  0.00  0.00    +0.000 NA
BRANCH  16  20
ATOM     20  C   UNL     1      45.532   3.056   8.982  0.00  0.00    +0.000 A 
ATOM     21  C   UNL     1      45.864   4.059   8.045  0.00  0.00    +0.000 A 
ATOM     22  C   UNL     1      46.501   3.760   6.840  0.00  0.00    +0.000 A 
ATOM     23  C   UNL     1      46.844   2.446   6.545  0.00  0.00    +0.000 A 
ATOM     24  C   UNL     1      46.540   1.438   7.453  0.00  0.00    +0.000 A 
ATOM     25  C   UNL     1      45.882   1.735   8.657  0.00  0.00    +0.000 A 
ENDBRANCH  16  20
ENDBRANCH   1  14
TORSDOF 4
ENDMDL
MODEL 3
REMARK VINA RESULT:    -7.112      2.535      7.492
REMARK INTER + INTRA:          -9.403
REMARK INTER:                 -10.000
REMARK INTRA:                   0.597
REMARK UNBOUND:                -0.627
REMARK  Name = 
REMARK  4 active torsions:
REMARK  status: ('A' for Active; 'I' for Inactive)
REMARK    1  A    between atoms: C_2  and  C_3
REMARK    2  A    between atoms: N_7  and  C_8
REMARK    3  A    between atoms: C_8  and  C_9
REMARK    4  A    between atoms: C_11  and  C_12
REMARK                            x       y       z     vdW  Elec       q    Type
REMARK                         _______ _______ _______ _____ _____    ______ ____
ROOT
ATOM      1  C   UNL     1      46.497   6.292  12.328  0.00  0.00    +0.000 C 
ATOM      2  C   UNL     1      47.635   7.255  12.032  0.00  0.00    +0.000 C 
ATOM      3  C   UNL     1      46.492   7.694  12.892  0.00  0.00    +0.000 C 
ENDROOT
BRANCH   1   8
ATOM      4  C   UNL     1      48.542   4.870  16.932  0.00  0.00    +0.000 A 
ATOM      5  C   UNL     1      48.646   6.096  16.271  0.00  0.00    +0.000 A 
ATOM      6  C   UNL     1      48.052   6.252  15.007  0.00  0.00    +0.000 A 
ATOM      7  C   UNL     1      47.391   5.171  14.445  0.00  0.00    +0.000 A 
ATOM      8  N   UNL     1      46.925   5.130  13.133  0.00  0.00    +0.000 N 
ATOM      9  N   UNL     1      47.238   3.999  15.103  0.00  0.00    +0.000 NA
ATOM     10  C   UNL     1      47.818   3.870  16.318  0.00  0.00    +0.000 A 
ATOM     11  H   UNL     1      46.356   4.290  13.072  0.00  0.00    +0.000 HD
BRANCH   4  13
ATOM     12  N   UNL     1      49.703   4.412  19.198  0.00  0.00    +0.000 NA
ATOM     13  C   UNL     1      49.193   4.627  18.175  0.00  0.00    +0.000 C 
ENDBRANCH   4  13
ENDBRANCH   1   8
BRANCH   1  14
ATOM     14  C   UNL     1      45.481   5.926  11.246  0.00  0.00    +0.000 A 
ATOM     15  C   UNL     1      45.953   5.273  10.104  0.00  0.00    +0.000 A 
ATOM     16  C   UNL     1      45.130   4.382   9.407  0.00  0.00    +0.000 A 
ATOM     17  C   UNL     1      43.782   4.353   9.782  0.00  0.00    +0.000 A 
ATOM     18  C   UNL     1      43.343   5.176  10.806  0.00  0.00    +0.000 A 
ATOM     19  N   UNL     1      44.161   5.943  11.552  0.00  0.00    +0.000 NA
BRANCH  16  20
ATOM     20  C   UNL     1      45.701   3.423   8.429  0.00  0.00    +0.000 A 
ATOM     21  C   UNL     1      46.270   3.871   7.217  0.00  0.00    +0.000 A 
ATOM     22  C   UNL     1      46.863   2.991   6.310  0.00  0.00    +0.000 A 
ATOM     23  C   UNL     1      46.922   1.633   6.602  0.00  0.00    +0.000 A 
ATOM     24  C   UNL     1      46.380   1.163   7.793  0.00  0.00    +0.000 A 
ATOM     25  C   UNL     1      45.766   2.046   8.696  0.00  0.00    +0.000 A 
ENDBRANCH  16  20
ENDBRANCH   1  14
TORSDOF 4
ENDMDL
MODEL 4
REMARK VINA RESULT:    -6.708      5.035      8.410
REMARK INTER + INTRA:          -8.904
REMARK INTER:                  -8.330
REMARK INTRA:                  -0.574
REMARK UNBOUND:                -0.627
REMARK  Name = 
REMARK  4 active torsions:
REMARK  status: ('A' for Active; 'I' for Inactive)
REMARK    1  A    between atoms: C_2  and  C_3
REMARK    2  A    between atoms: N_7  and  C_8
REMARK    3  A    between atoms: C_8  and  C_9
REMARK    4  A    between atoms: C_11  and  C_12
REMARK                            x       y       z     vdW  Elec       q    Type
REMARK                         _______ _______ _______ _____ _____    ______ ____
ROOT
ATOM      1  C   UNL     1      48.135   4.442  17.025  0.00  0.00    +0.000 C 
ATOM      2  C   UNL     1      47.018   4.782  17.997  0.00  0.00    +0.000 C 
ATOM      3  C   UNL     1      47.136   3.392  17.454  0.00  0.00    +0.000 C 
ENDROOT
BRANCH   1   8
ATOM      4  C   UNL     1      52.643   1.879  17.739  0.00  0.00    +0.000 A 
ATOM      5  C   UNL     1      51.374   1.359  17.477  0.00  0.00    +0.000 A 
ATOM      6  C   UNL     1      50.278   2.232  17.365  0.00  0.00    +0.000 A 
ATOM      7  C   UNL     1      50.491   3.591  17.535  0.00  0.00    +0.000 A 
ATOM      8  N   UNL     1      49.476   4.539  17.637  0.00  0.00    +0.000 N 
ATOM      9  N   UNL     1      51.726   4.106  17.734  0.00  0.00    +0.000 NA
ATOM     10  C   UNL     1      52.766   3.249  17.838  0.00  0.00    +0.000 A 
ATOM     11  H   UNL     1      49.941   5.441  17.593  0.00  0.00    +0.000 HD
BRANCH   4  13
ATOM     12  N   UNL     1      54.711   0.374  18.127  0.00  0.00    +0.000 NA
ATOM     13  C   UNL     1      53.774   1.039  17.945  0.00  0.00    +0.000 C 
ENDBRANCH   4  13
ENDBRANCH   1   8
BRANCH   1  14
ATOM     14  C   UNL     1      48.100   4.953  15.584  0.00  0.00    +0.000 A 
ATOM     15  C   UNL     1      47.132   4.421  14.728  0.00  0.00    +0.000 A 
ATOM     16  C   UNL     1      46.611   5.192  13.683  0.00  0.00    +0.000 A 
ATOM     17  C   UNL     1      47.252   6.408  13.424  0.00  0.00    +0.000 A 
ATOM     18  C   UNL     1      48.337   6.784  14.200  0.00  0.00    +0.000 A 
ATOM     19  N   UNL     1      48.760   6.097  15.278  0.00  0.00    +0.000 NA
BRANCH  16  20
ATOM     20  C   UNL     1      45.355   4.796  12.998  0.00  0.00    +0.000 A 
ATOM     21  C   UNL     1      44.244   5.666  12.955  0.00  0.00    +0.000 A 
ATOM     22  C   UNL     1      43.075   5.337  12.268  0.00  0.00    +0.000 A 
ATOM     23  C   UNL     1      42.991   4.130  11.583  0.00  0.00    +0.000 A 
ATOM     24  C   UNL     1      44.073   3.257  11.598  0.00  0.00    +0.000 A 
ATOM     25  C   UNL     1      45.242   3.579  12.306  0.00  0.00    +0.000 A 
ENDBRANCH  16  20
ENDBRANCH   1  14
TORSDOF 4
ENDMDL
MODEL 5
REMARK VINA RESULT:    -6.589      3.426      7.179
REMARK INTER + INTRA:          -8.756
REMARK INTER:                  -8.570
REMARK INTRA:                  -0.186
REMARK UNBOUND:                -0.627
REMARK  Name = 
REMARK  4 active torsions:
REMARK  status: ('A' for Active; 'I' for Inactive)
REMARK    1  A    between atoms: C_2  and  C_3
REMARK    2  A    between atoms: N_7  and  C_8
REMARK    3  A    between atoms: C_8  and  C_9
REMARK    4  A    between atoms: C_11  and  C_12
REMARK                            x       y       z     vdW  Elec       q    Type
REMARK                         _______ _______ _______ _____ _____    ______ ____
ROOT
ATOM      1  C   UNL     1      48.627   8.010  12.489  0.00  0.00    +0.000 C 
ATOM      2  C   UNL     1      49.793   7.385  11.743  0.00  0.00    +0.000 C 
ATOM      3  C   UNL     1      49.666   8.874  11.813  0.00  0.00    +0.000 C 
ENDROOT
BRANCH   1   8
ATOM      4  C   UNL     1      47.566   4.408  16.135  0.00  0.00    +0.000 A 
ATOM      5  C   UNL     1      47.020   4.545  14.857  0.00  0.00    +0.000 A 
ATOM      6  C   UNL     1      47.416   5.624  14.048  0.00  0.00    +0.000 A 
ATOM      7  C   UNL     1      48.331   6.534  14.555  0.00  0.00    +0.000 A 
ATOM      8  N   UNL     1      48.664   7.738  13.940  0.00  0.00    +0.000 N 
ATOM      9  N   UNL     1      48.905   6.376  15.769  0.00  0.00    +0.000 NA
ATOM     10  C   UNL     1      48.510   5.332  16.532  0.00  0.00    +0.000 A 
ATOM     11  H   UNL     1      49.461   8.097  14.459  0.00  0.00    +0.000 HD
BRANCH   4  13
ATOM     12  N   UNL     1      46.800   2.566  17.783  0.00  0.00    +0.000 NA
ATOM     13  C   UNL     1      47.141   3.385  17.030  0.00  0.00    +0.000 C 
ENDBRANCH   4  13
ENDBRANCH   1   8
BRANCH   1  14
ATOM     14  C   UNL     1      47.213   7.963  11.910  0.00  0.00    +0.000 A 
ATOM     15  C   UNL     1      46.884   6.887  11.081  0.00  0.00    +0.000 A 
ATOM     16  C   UNL     1      45.568   6.415  11.022  0.00  0.00    +0.000 A 
ATOM     17  C   UNL     1      44.595   7.197  11.654  0.00  0.00    +0.000 A 
ATOM     18  C   UNL     1      44.973   8.363  12.299  0.00  0.00    +0.000 A 
ATOM     19  N   UNL     1      46.254   8.751  12.455  0.00  0.00    +0.000 NA
BRANCH  16  20
ATOM     20  C   UNL     1      45.262   5.081  10.447  0.00  0.00    +0.000 A 
ATOM     21  C   UNL     1      44.565   4.109  11.195  0.00  0.00    +0.000 A 
ATOM     22  C   UNL     1      44.218   2.870  10.653  0.00  0.00    +0.000 A 
ATOM     23  C   UNL     1      44.541   2.576   9.334  0.00  0.00    +0.000 A 
ATOM     24  C   UNL     1      45.219   3.519   8.568  0.00  0.00    +0.000 A 
ATOM     25  C   UNL     1      45.586   4.757   9.119  0.00  0.00    +0.000 A 
ENDBRANCH  16  20
ENDBRANCH   1  14
TORSDOF 4
ENDMDL
MODEL 6
REMARK VINA RESULT:    -6.324      3.806      8.056
REMARK INTER + INTRA:          -8.430
REMARK INTER:                  -7.479
REMARK INTRA:                  -0.951
REMARK UNBOUND:                -0.627
REMARK  Name = 
REMARK  4 active torsions:
REMARK  status: ('A' for Active; 'I' for Inactive)
REMARK    1  A    between atoms: C_2  and  C_3
REMARK    2  A    between atoms: N_7  and  C_8
REMARK    3  A    between atoms: C_8  and  C_9
REMARK    4  A    between atoms: C_11  and  C_12
REMARK                            x       y       z     vdW  Elec       q    Type
REMARK                         _______ _______ _______ _____ _____    ______ ____
ROOT
ATOM      1  C   UNL     1      49.269   7.875  12.427  0.00  0.00    +0.000 C 
ATOM      2  C   UNL     1      50.342   7.813  11.353  0.00  0.00    +0.000 C 
ATOM      3  C   UNL     1      50.213   9.034  12.208  0.00  0.00    +0.000 C 
ENDROOT
BRANCH   1   8
ATOM      4  C   UNL     1      48.634   7.033  17.554  0.00  0.00    +0.000 A 
ATOM      5  C   UNL     1      48.731   8.248  16.874  0.00  0.00    +0.000 A 
ATOM      6  C   UNL     1      48.948   8.248  15.485  0.00  0.00    +0.000 A 
ATOM      7  C   UNL     1      49.079   7.032  14.833  0.00  0.00    +0.000 A 
ATOM      8  N   UNL     1      49.480   6.890  13.507  0.00  0.00    +0.000 N 
ATOM      9  N   UNL     1      48.931   5.852  15.476  0.00  0.00    +0.000 NA
ATOM     10  C   UNL     1      48.722   5.874  16.812  0.00  0.00    +0.000 A 
ATOM     11  H   UNL     1      49.325   5.913  13.279  0.00  0.00    +0.000 HD
BRANCH   4  13
ATOM     12  N   UNL     1      48.359   6.921  20.124  0.00  0.00    +0.000 NA
ATOM     13  C   UNL     1      48.498   6.971  18.970  0.00  0.00    +0.000 C 
ENDBRANCH   4  13
ENDBRANCH   1   8
BRANCH   1  14
ATOM     14  C   UNL     1      47.796   8.039  12.051  0.00  0.00    +0.000 A 
ATOM     15  C   UNL     1      47.083   6.892  11.693  0.00  0.00    +0.000 A 
ATOM     16  C   UNL     1      45.708   6.807  11.940  0.00  0.00    +0.000 A 
ATOM     17  C   UNL     1      45.074   7.984  12.352  0.00  0.00    +0.000 A 
ATOM     18  C   UNL     1      45.819   9.142  12.502  0.00  0.00    +0.000 A 
ATOM     19  N   UNL     1      47.159   9.191  12.379  0.00  0.00    +0.000 NA
BRANCH  16  20
ATOM     20  C   UNL     1      45.008   5.499  11.907  0.00  0.00    +0.000 A 
ATOM     21  C   UNL     1      44.167   5.096  12.967  0.00  0.00    +0.000 A 
ATOM     22  C   UNL     1      43.455   3.896  12.929  0.00  0.00    +0.000 A 
ATOM     23  C   UNL     1      43.548   3.071  11.814  0.00  0.00    +0.000 A 
ATOM     24  C   UNL     1      44.360   3.446  10.749  0.00  0.00    +0.000 A 
ATOM     25  C   UNL     1      45.092   4.644  10.796  0.00  0.00    +0.000 A 
ENDBRANCH  16  20
ENDBRANCH   1  14
TORSDOF 4
ENDMDL
MODEL 7
REMARK VINA RESULT:    -5.696      3.800      6.740
REMARK INTER + INTRA:          -7.655
REMARK INTER:                  -6.953
REMARK INTRA:                  -0.702
REMARK UNBOUND:                -0.627
REMARK  Name = 
REMARK  4 active torsions:
REMARK  status: ('A' for Active; 'I' for Inactive)
REMARK    1  A    between atoms: C_2  and  C_3
REMARK    2  A    between atoms: N_7  and  C_8
REMARK    3  A    between atoms: C_8  and  C_9
REMARK    4  A    between atoms: C_11  and  C_12
REMARK                            x       y       z     vdW  Elec       q    Type
REMARK                         _______ _______ _______ _____ _____    ______ ____
ROOT
ATOM      1  C   UNL     1      48.279   7.959  13.534  0.00  0.00    +0.000 C 
ATOM      2  C   UNL     1      49.054   9.079  12.861  0.00  0.00    +0.000 C 
ATOM      3  C   UNL     1      49.529   7.665  12.739  0.00  0.00    +0.000 C 
ENDROOT
BRANCH   1   8
ATOM      4  C   UNL     1      44.622   4.380  12.429  0.00  0.00    +0.000 A 
ATOM      5  C   UNL     1      45.998   4.205  12.582  0.00  0.00    +0.000 A 
ATOM      6  C   UNL     1      46.814   5.321  12.834  0.00  0.00    +0.000 A 
ATOM      7  C   UNL     1      46.224   6.573  12.907  0.00  0.00    +0.000 A 
ATOM      8  N   UNL     1      46.930   7.773  12.963  0.00  0.00    +0.000 N 
ATOM      9  N   UNL     1      44.886   6.744  12.816  0.00  0.00    +0.000 NA
ATOM     10  C   UNL     1      44.119   5.657  12.573  0.00  0.00    +0.000 A 
ATOM     11  H   UNL     1      46.237   8.486  13.169  0.00  0.00    +0.000 HD
BRANCH   4  13
ATOM     12  N   UNL     1      43.034   2.438  11.800  0.00  0.00    +0.000 NA
ATOM     13  C   UNL     1      43.757   3.301  12.090  0.00  0.00    +0.000 C 
ENDBRANCH   4  13
ENDBRANCH   1   8
BRANCH   1  14
ATOM     14  C   UNL     1      48.310   7.790  15.054  0.00  0.00    +0.000 A 
ATOM     15  C   UNL     1      48.731   6.559  15.564  0.00  0.00    +0.000 A 
ATOM     16  C   UNL     1      49.374   6.489  16.804  0.00  0.00    +0.000 A 
ATOM     17  C   UNL     1      49.374   7.657  17.575  0.00  0.00    +0.000 A 
ATOM     18  C   UNL     1      48.764   8.798  17.080  0.00  0.00    +0.000 A 
ATOM     19  N   UNL     1      48.252   8.894  15.838  0.00  0.00    +0.000 NA
BRANCH  16  20
ATOM     20  C   UNL     1      50.137   5.279  17.200  0.00  0.00    +0.000 A 
ATOM     21  C   UNL     1      49.502   4.024  17.315  0.00  0.00    +0.000 A 
ATOM     22  C   UNL     1      50.211   2.864  17.631  0.00  0.00    +0.000 A 
ATOM     23  C   UNL     1      51.587   2.924  17.819  0.00  0.00    +0.000 A 
ATOM     24  C   UNL     1      52.243   4.144  17.702  0.00  0.00    +0.000 A 
ATOM     25  C   UNL     1      51.526   5.315  17.404  0.00  0.00    +0.000 A 
ENDBRANCH  16  20
ENDBRANCH   1  14
TORSDOF 4
ENDMDL
MODEL 8
REMARK VINA RESULT:    -5.625      3.711      7.005
REMARK INTER + INTRA:          -7.568
REMARK INTER:                  -6.768
REMARK INTRA:                  -0.799
REMARK UNBOUND:                -0.627
REMARK  Name = 
REMARK  4 active torsions:
REMARK  status: ('A' for Active; 'I' for Inactive)
REMARK    1  A    between atoms: C_2  and  C_3
REMARK    2  A    between atoms: N_7  and  C_8
REMARK    3  A    between atoms: C_8  and  C_9
REMARK    4  A    between atoms: C_11  and  C_12
REMARK                            x       y       z     vdW  Elec       q    Type
REMARK                         _______ _______ _______ _____ _____    ______ ____
ROOT
ATOM      1  C   UNL     1      48.610   8.225  13.393  0.00  0.00    +0.000 C 
ATOM      2  C   UNL     1      48.407   8.276  14.898  0.00  0.00    +0.000 C 
ATOM      3  C   UNL     1      48.839   7.000  14.246  0.00  0.00    +0.000 C 
ENDROOT
BRANCH   1   8
ATOM      4  C   UNL     1      52.434   8.627   9.840  0.00  0.00    +0.000 A 
ATOM      5  C   UNL     1      51.786   7.480  10.301  0.00  0.00    +0.000 A 
ATOM      6  C   UNL     1      50.808   7.592  11.304  0.00  0.00    +0.000 A 
ATOM      7  C   UNL     1      50.528   8.848  11.821  0.00  0.00    +0.000 A 
ATOM      8  N   UNL     1      49.727   9.078  12.937  0.00  0.00    +0.000 N 
ATOM      9  N   UNL     1      51.111   9.970  11.341  0.00  0.00    +0.000 NA
ATOM     10  C   UNL     1      52.049   9.839  10.376  0.00  0.00    +0.000 A 
ATOM     11  H   UNL     1      49.584  10.083  12.967  0.00  0.00    +0.000 HD
BRANCH   4  13
ATOM     12  N   UNL     1      54.346   8.542   8.101  0.00  0.00    +0.000 NA
ATOM     13  C   UNL     1      53.490   8.566   8.887  0.00  0.00    +0.000 C 
ENDBRANCH   4  13
ENDBRANCH   1   8
BRANCH   1  14
ATOM     14  C   UNL     1      47.414   8.252  12.441  0.00  0.00    +0.000 A 
ATOM     15  C   UNL     1      47.126   7.088  11.723  0.00  0.00    +0.000 A 
ATOM     16  C   UNL     1      45.809   6.790  11.356  0.00  0.00    +0.000 A 
ATOM     17  C   UNL     1      44.862   7.801  11.553  0.00  0.00    +0.000 A 
ATOM     18  C   UNL     1      45.261   9.010  12.098  0.00  0.00    +0.000 A 
ATOM     19  N   UNL     1      46.503   9.250  12.560  0.00  0.00    +0.000 NA
BRANCH  16  20
ATOM     20  C   UNL     1      45.430   5.422  10.922  0.00  0.00    +0.000 A 
ATOM     21  C   UNL     1      45.017   4.450  11.859  0.00  0.00    +0.000 A 
ATOM     22  C   UNL     1      44.603   3.177  11.467  0.00  0.00    +0.000 A 
ATOM     23  C   UNL     1      44.569   2.844  10.118  0.00  0.00    +0.000 A 
ATOM     24  C   UNL     1      44.959   3.785   9.170  0.00  0.00    +0.000 A 
ATOM     25  C   UNL     1      45.395   5.059   9.566  0.00  0.00    +0.000 A 
ENDBRANCH  16  20
ENDBRANCH   1  14
TORSDOF 4
ENDMDL
MODEL 9
REMARK VINA RESULT:    -5.497      2.057      2.996
REMARK INTER + INTRA:          -7.409
REMARK INTER:                  -8.200
REMARK INTRA:                   0.791
REMARK UNBOUND:                -0.627
REMARK  Name = 
REMARK  4 active torsions:
REMARK  status: ('A' for Active; 'I' for Inactive)
REMARK    1  A    between atoms: C_2  and  C_3
REMARK    2  A    between atoms: N_7  and  C_8
REMARK    3  A    between atoms: C_8  and  C_9
REMARK    4  A    between atoms: C_11  and  C_12
REMARK                            x       y       z     vdW  Elec       q    Type
REMARK                         _______ _______ _______ _____ _____    ______ ____
ROOT
ATOM      1  C   UNL     1      44.202   6.348  11.145  0.00  0.00    +0.000 C 
ATOM      2  C   UNL     1      43.968   5.292  12.213  0.00  0.00    +0.000 C 
ATOM      3  C   UNL     1      42.882   5.619  11.237  0.00  0.00    +0.000 C 
ENDROOT
BRANCH   1   8
ATOM      4  C   UNL     1      46.038   2.353   8.305  0.00  0.00    +0.000 A 
ATOM      5  C   UNL     1      45.288   2.316   9.482  0.00  0.00    +0.000 A 
ATOM      6  C   UNL     1      44.934   3.521  10.115  0.00  0.00    +0.000 A 
ATOM      7  C   UNL     1      45.359   4.715   9.555  0.00  0.00    +0.000 A 
ATOM      8  N   UNL     1      45.242   5.958  10.172  0.00  0.00    +0.000 N 
ATOM      9  N   UNL     1      46.038   4.761   8.386  0.00  0.00    +0.000 NA
ATOM     10  C   UNL     1      46.368   3.590   7.794  0.00  0.00    +0.000 A 
ATOM     11  H   UNL     1      45.489   6.640   9.460  0.00  0.00    +0.000 HD
BRANCH   4  13
ATOM     12  N   UNL     1      46.886   0.191   7.166  0.00  0.00    +0.000 NA
ATOM     13  C   UNL     1      46.496   1.166   7.666  0.00  0.00    +0.000 C 
ENDBRANCH   4  13
ENDBRANCH   1   8
BRANCH   1  14
ATOM     14  C   UNL     1      44.255   7.831  11.513  0.00  0.00    +0.000 A 
ATOM     15  C   UNL     1      45.406   8.305  12.149  0.00  0.00    +0.000 A 
ATOM     16  C   UNL     1      45.823   9.627  11.966  0.00  0.00    +0.000 A 
ATOM     17  C   UNL     1      44.930  10.478  11.306  0.00  0.00    +0.000 A 
ATOM     18  C   UNL     1      43.714   9.980  10.868  0.00  0.00    +0.000 A 
ATOM     19  N   UNL     1      43.367   8.681  10.940  0.00  0.00    +0.000 NA
BRANCH  16  20
ATOM     20  C   UNL     1      47.200  10.048  12.325  0.00  0.00    +0.000 A 
ATOM     21  C   UNL     1      47.983   9.289  13.221  0.00  0.00    +0.000 A 
ATOM     22  C   UNL     1      49.299   9.636  13.528  0.00  0.00    +0.000 A 
ATOM     23  C   UNL     1      49.880  10.747  12.927  0.00  0.00    +0.000 A 
ATOM     24  C   UNL     1      49.138  11.509  12.032  0.00  0.00    +0.000 A 
ATOM     25  C   UNL     1      47.807  11.171  11.738  0.00  0.00    +0.000 A 
ENDBRANCH  16  20
ENDBRANCH   1  14
TORSDOF 4
ENDMDL
