MODEL 1
REMARK VINA RESULT:    -8.169      0.000      0.000
REMARK INTER + INTRA:         -11.961
REMARK INTER:                 -11.273
REMARK INTRA:                  -0.688
REMARK UNBOUND:                -0.688
REMARK  Name = 
REMARK  7 active torsions:
REMARK  status: ('A' for Active; 'I' for Inactive)
REMARK    1  A    between atoms: N_1  and  C_2
REMARK    2  A    between atoms: C_2  and  C_3
REMARK    3  A    between atoms: C_3  and  N_4
REMARK    4  A    between atoms: C_3  and  C_17
REMARK    5  A    between atoms: C_5  and  C_7
REMARK    6  A    between atoms: C_20  and  O_21
REMARK    7  A    between atoms: O_21  and  C_22
REMARK                            x       y       z     vdW  Elec       q    Type
REMARK                         _______ _______ _______ _____ _____    ______ ____
ROOT
ATOM      1  C   UNL     1      46.467   6.936  12.802  0.00  0.00    +0.000 C 
ENDROOT
BRANCH   1   2
ATOM      2  C   UNL     1      45.976   5.904  11.786  0.00  0.00    +0.000 A 
ATOM      3  C   UNL     1      45.411   4.702  12.233  0.00  0.00    +0.000 A 
ATOM      4  C   UNL     1      44.948   3.748  11.324  0.00  0.00    +0.000 A 
ATOM      5  C   UNL     1      45.001   3.997   9.951  0.00  0.00    +0.000 A 
ATOM      6  C   UNL     1      45.587   5.177   9.491  0.00  0.00    +0.000 A 
ATOM      7  C   UNL     1      46.065   6.128  10.401  0.00  0.00    +0.000 A 
BRANCH   5   8
ATOM      8  O   UNL     1      44.579   3.101   8.995  0.00  0.00    +0.000 OA
BRANCH   8   9
ATOM      9  C   UNL     1      45.529   2.539   8.147  0.00  0.00    +0.000 A 
ATOM     10  C   UNL     1      45.868   3.278   7.022  0.00  0.00    +0.000 A 
ATOM     11  C   UNL     1      46.823   2.757   6.152  0.00  0.00    +0.000 A 
ATOM     12  C   UNL     1      47.396   1.521   6.432  0.00  0.00    +0.000 A 
ATOM     13  C   UNL     1      46.975   0.845   7.564  0.00  0.00    +0.000 A 
ATOM     14  N   UNL     1      46.044   1.318   8.418  0.00  0.00    +0.000 NA
ENDBRANCH   8   9
ENDBRANCH   5   8
ENDBRANCH   1   2
BRANCH   1  15
ATOM     15  N   UNL     1      46.670   6.273  14.084  0.00  0.00    +0.000 N 
ATOM     16  C   UNL     1      47.919   5.951  14.559  0.00  0.00    +0.000 C 
ATOM     17  O   UNL     1      48.953   6.313  14.009  0.00  0.00    +0.000 OA
ATOM     18  H   UNL     1      45.883   5.727  14.420  0.00  0.00    +0.000 HD
BRANCH  16  19
ATOM     19  C   UNL     1      47.953   5.190  15.810  0.00  0.00    +0.000 A 
ATOM     20  C   UNL     1      47.518   3.872  15.832  0.00  0.00    +0.000 A 
ATOM     21  S   UNL     1      47.618   3.149  17.374  0.00  0.00    +0.000 S 
ATOM     22  C   UNL     1      48.197   4.591  18.072  0.00  0.00    +0.000 A 
ATOM     23  N   UNL     1      48.443   4.677  19.406  0.00  0.00    +0.000 NA
ATOM     24  C   UNL     1      48.830   5.846  19.801  0.00  0.00    +0.000 A 
ATOM     25  N   UNL     1      49.014   6.929  18.981  0.00  0.00    +0.000 N 
ATOM     26  C   UNL     1      48.840   6.870  17.621  0.00  0.00    +0.000 A 
ATOM     27  O   UNL     1      49.111   7.819  16.893  0.00  0.00    +0.000 OA
ATOM     28  C   UNL     1      48.352   5.592  17.133  0.00  0.00    +0.000 A 
ATOM     29  H   UNL     1      49.352   7.806  19.345  0.00  0.00    +0.000 HD
ENDBRANCH  16  19
ENDBRANCH   1  15
BRANCH   1  30
ATOM     30  C   UNL     1      45.497   8.152  12.912  0.00  0.00    +0.000 C 
BRANCH  30  31
ATOM     31  N   UNL     1      46.152   9.467  12.871  0.00  0.00    +0.000 NA
ATOM     32  H   UNL     1      45.434  10.189  12.895  0.00  0.00    +0.000 HD
ATOM     33  H   UNL     1      46.640   9.575  11.981  0.00  0.00    +0.000 HD
ENDBRANCH  30  31
ENDBRANCH   1  30
TORSDOF 7
ENDMDL
MODEL 2
REMARK VINA RESULT:    -8.043      1.591      2.128
REMARK INTER + INTRA:         -11.787
REMARK INTER:                 -11.513
REMARK INTRA:                  -0.274
REMARK UNBOUND:                -0.688
REMARK  Name = 
REMARK  7 active torsions:
REMARK  status: ('A' for Active; 'I' for Inactive)
REMARK    1  A    between atoms: N_1  and  C_2
REMARK    2  A    between atoms: C_2  and  C_3
REMARK    3  A    between atoms: C_3  and  N_4
REMARK    4  A    between atoms: C_3  and  C_17
REMARK    5  A    between atoms: C_5  and  C_7
REMARK    6  A    between atoms: C_20  and  O_21
REMARK    7  A    between atoms: O_21  and  C_22
REMARK                            x       y       z     vdW  Elec       q    Type
REMARK                         _______ _______ _______ _____ _____    ______ ____
ROOT
ATOM      1  C   UNL     1      46.012   7.688  12.269  0.00  0.00    +0.000 C 
ENDROOT
BRANCH   1   2
ATOM      2  C   UNL     1      45.627   6.421  11.506  0.00  0.00    +0.000 A 
ATOM      3  C   UNL     1      44.794   5.470  12.110  0.00  0.00    +0.000 A 
ATOM      4  C   UNL     1      44.422   4.308  11.429  0.00  0.00    +0.000 A 
ATOM      5  C   UNL     1      44.843   4.096  10.115  0.00  0.00    +0.000 A 
ATOM      6  C   UNL     1      45.697   5.020   9.510  0.00  0.00    +0.000 A 
ATOM      7  C   UNL     1      46.081   6.177  10.197  0.00  0.00    +0.000 A 
BRANCH   5   8
ATOM      8  O   UNL     1      44.530   2.970   9.385  0.00  0.00    +0.000 OA
BRANCH   8   9
ATOM      9  C   UNL     1      45.436   2.531   8.424  0.00  0.00    +0.000 A 
ATOM     10  C   UNL     1      45.648   3.374   7.342  0.00  0.00    +0.000 A 
ATOM     11  C   UNL     1      46.555   2.976   6.363  0.00  0.00    +0.000 A 
ATOM     12  C   UNL     1      47.209   1.756   6.495  0.00  0.00    +0.000 A 
ATOM     13  C   UNL     1      46.913   0.971   7.596  0.00  0.00    +0.000 A 
ATOM     14  N   UNL     1      46.031   1.322   8.554  0.00  0.00    +0.000 NA
ENDBRANCH   8   9
ENDBRANCH   5   8
ENDBRANCH   1   2
BRANCH   1  15
ATOM     15  N   UNL     1      46.654   7.306  13.520  0.00  0.00    +0.000 N 
ATOM     16  C   UNL     1      47.995   7.018  13.604  0.00  0.00    +0.000 C 
ATOM     17  O   UNL     1      48.771   7.187  12.671  0.00  0.00    +0.000 OA
ATOM     18  H   UNL     1      46.039   6.895  14.217  0.00  0.00    +0.000 HD
BRANCH  16  19
ATOM     19  C   UNL     1      48.469   6.543  14.907  0.00  0.00    +0.000 A 
ATOM     20  C   UNL     1      49.480   7.226  15.568  0.00  0.00    +0.000 A 
ATOM     21  S   UNL     1      49.909   6.523  17.062  0.00  0.00    +0.000 S 
ATOM     22  C   UNL     1      48.795   5.253  16.847  0.00  0.00    +0.000 A 
ATOM     23  N   UNL     1      48.688   4.248  17.757  0.00  0.00    +0.000 NA
ATOM     24  C   UNL     1      47.837   3.330  17.437  0.00  0.00    +0.000 A 
ATOM     25  N   UNL     1      47.068   3.334  16.302  0.00  0.00    +0.000 N 
ATOM     26  C   UNL     1      47.096   4.358  15.389  0.00  0.00    +0.000 A 
ATOM     27  O   UNL     1      46.326   4.395  14.435  0.00  0.00    +0.000 OA
ATOM     28  C   UNL     1      48.077   5.391  15.675  0.00  0.00    +0.000 A 
ATOM     29  H   UNL     1      46.396   2.604  16.126  0.00  0.00    +0.000 HD
ENDBRANCH  16  19
ENDBRANCH   1  15
BRANCH   1  30
ATOM     30  C   UNL     1      44.787   8.626  12.495  0.00  0.00    +0.000 C 
BRANCH  30  31
ATOM     31  N   UNL     1      45.113  10.058  12.565  0.00  0.00    +0.000 NA
ATOM     32  H   UNL     1      44.244  10.587  12.611  0.00  0.00    +0.000 HD
ATOM     33  H   UNL     1      45.578  10.342  11.703  0.00  0.00    +0.000 HD
ENDBRANCH  30  31
ENDBRANCH   1  30
TORSDOF 7
ENDMDL
MODEL 3
REMARK VINA RESULT:    -7.853      3.170      4.255
REMARK INTER + INTRA:         -11.525
REMARK INTER:                 -10.276
REMARK INTRA:                  -1.249
REMARK UNBOUND:                -0.688
REMARK  Name = 
REMARK  7 active torsions:
REMARK  status: ('A' for Active; 'I' for Inactive)
REMARK    1  A    between atoms: N_1  and  C_2
REMARK    2  A    between atoms: C_2  and  C_3
REMARK    3  A    between atoms: C_3  and  N_4
REMARK    4  A    between atoms: C_3  and  C_17
REMARK    5  A    between atoms: C_5  and  C_7
REMARK    6  A    between atoms: C_20  and  O_21
REMARK    7  A    between atoms: O_21  and  C_22
REMARK                            x       y       z     vdW  Elec       q    Type
REMARK                         _______ _______ _______ _____ _____    ______ ____
ROOT
ATOM      1  C   UNL     1      46.376   5.826  13.624  0.00  0.00    +0.000 C 
ENDROOT
BRANCH   1   2
ATOM      2  C   UNL     1      45.908   5.155  12.333  0.00  0.00    +0.000 A 
ATOM      3  C   UNL     1      45.343   3.872  12.380  0.00  0.00    +0.000 A 
ATOM      4  C   UNL     1      44.900   3.243  11.214  0.00  0.00    +0.000 A 
ATOM      5  C   UNL     1      44.974   3.901   9.985  0.00  0.00    +0.000 A 
ATOM      6  C   UNL     1      45.561   5.165   9.919  0.00  0.00    +0.000 A 
ATOM      7  C   UNL     1      46.017   5.792  11.084  0.00  0.00    +0.000 A 
BRANCH   5   8
ATOM      8  O   UNL     1      44.573   3.340   8.793  0.00  0.00    +0.000 OA
BRANCH   8   9
ATOM      9  C   UNL     1      45.513   2.645   8.037  0.00  0.00    +0.000 A 
ATOM     10  C   UNL     1      46.007   3.295   6.915  0.00  0.00    +0.000 A 
ATOM     11  C   UNL     1      46.958   2.640   6.137  0.00  0.00    +0.000 A 
ATOM     12  C   UNL     1      47.373   1.363   6.502  0.00  0.00    +0.000 A 
ATOM     13  C   UNL     1      46.804   0.784   7.623  0.00  0.00    +0.000 A 
ATOM     14  N   UNL     1      45.873   1.389   8.388  0.00  0.00    +0.000 NA
ENDBRANCH   8   9
ENDBRANCH   5   8
ENDBRANCH   1   2
BRANCH   1  15
ATOM     15  N   UNL     1      47.501   6.700  13.316  0.00  0.00    +0.000 N 
ATOM     16  C   UNL     1      47.381   8.069  13.264  0.00  0.00    +0.000 C 
ATOM     17  O   UNL     1      46.360   8.659  13.598  0.00  0.00    +0.000 OA
ATOM     18  H   UNL     1      48.251   6.272  12.780  0.00  0.00    +0.000 HD
BRANCH  16  19
ATOM     19  C   UNL     1      48.574   8.802  12.834  0.00  0.00    +0.000 A 
ATOM     20  C   UNL     1      48.472   9.782  11.857  0.00  0.00    +0.000 A 
ATOM     21  S   UNL     1      49.962  10.519  11.476  0.00  0.00    +0.000 S 
ATOM     22  C   UNL     1      50.800   9.515  12.567  0.00  0.00    +0.000 A 
ATOM     23  N   UNL     1      52.152   9.590  12.697  0.00  0.00    +0.000 NA
ATOM     24  C   UNL     1      52.654   8.734  13.525  0.00  0.00    +0.000 A 
ATOM     25  N   UNL     1      51.928   7.825  14.251  0.00  0.00    +0.000 N 
ATOM     26  C   UNL     1      50.558   7.758  14.200  0.00  0.00    +0.000 A 
ATOM     27  O   UNL     1      49.920   7.011  14.934  0.00  0.00    +0.000 OA
ATOM     28  C   UNL     1      49.947   8.663  13.242  0.00  0.00    +0.000 A 
ATOM     29  H   UNL     1      52.376   7.206  14.908  0.00  0.00    +0.000 HD
ENDBRANCH  16  19
ENDBRANCH   1  15
BRANCH   1  30
ATOM     30  C   UNL     1      46.722   4.784  14.730  0.00  0.00    +0.000 C 
BRANCH  30  31
ATOM     31  N   UNL     1      47.919   5.102  15.522  0.00  0.00    +0.000 NA
ATOM     32  H   UNL     1      48.145   6.086  15.388  0.00  0.00    +0.000 HD
ATOM     33  H   UNL     1      48.713   4.572  15.163  0.00  0.00    +0.000 HD
ENDBRANCH  30  31
ENDBRANCH   1  30
TORSDOF 7
ENDMDL
MODEL 4
REMARK VINA RESULT:    -7.733      1.589      1.999
REMARK INTER + INTRA:         -11.359
REMARK INTER:                 -10.245
REMARK INTRA:                  -1.114
REMARK UNBOUND:                -0.688
REMARK  Name = 
REMARK  7 active torsions:
REMARK  status: ('A' for Active; 'I' for Inactive)
REMARK    1  A    between atoms: N_1  and  C_2
REMARK    2  A    between atoms: C_2  and  C_3
REMARK    3  A    between atoms: C_3  and  N_4
REMARK    4  A    between atoms: C_3  and  C_17
REMARK    5  A    between atoms: C_5  and  C_7
REMARK    6  A    between atoms: C_20  and  O_21
REMARK    7  A    between atoms: O_21  and  C_22
REMARK                            x       y       z     vdW  Elec       q    Type
REMARK                         _______ _______ _______ _____ _____    ______ ____
ROOT
ATOM      1  C   UNL     1      48.007   7.250  13.914  0.00  0.00    +0.000 C 
ENDROOT
BRANCH   1   2
ATOM      2  C   UNL     1      47.098   6.475  12.959  0.00  0.00    +0.000 A 
ATOM      3  C   UNL     1      46.549   5.249  13.360  0.00  0.00    +0.000 A 
ATOM      4  C   UNL     1      45.710   4.528  12.508  0.00  0.00    +0.000 A 
ATOM      5  C   UNL     1      45.369   5.040  11.255  0.00  0.00    +0.000 A 
ATOM      6  C   UNL     1      45.931   6.245  10.830  0.00  0.00    +0.000 A 
ATOM      7  C   UNL     1      46.784   6.962  11.678  0.00  0.00    +0.000 A 
BRANCH   5   8
ATOM      8  O   UNL     1      44.561   4.382  10.354  0.00  0.00    +0.000 OA
BRANCH   8   9
ATOM      9  C   UNL     1      45.162   3.696   9.303  0.00  0.00    +0.000 A 
ATOM     10  C   UNL     1      45.253   2.317   9.435  0.00  0.00    +0.000 A 
ATOM     11  C   UNL     1      45.838   1.592   8.400  0.00  0.00    +0.000 A 
ATOM     12  C   UNL     1      46.314   2.266   7.280  0.00  0.00    +0.000 A 
ATOM     13  C   UNL     1      46.203   3.645   7.250  0.00  0.00    +0.000 A 
ATOM     14  N   UNL     1      45.654   4.376   8.241  0.00  0.00    +0.000 NA
ENDBRANCH   8   9
ENDBRANCH   5   8
ENDBRANCH   1   2
BRANCH   1  15
ATOM     15  N   UNL     1      47.945   6.625  15.230  0.00  0.00    +0.000 N 
ATOM     16  C   UNL     1      49.072   6.257  15.926  0.00  0.00    +0.000 C 
ATOM     17  O   UNL     1      50.205   6.544  15.556  0.00  0.00    +0.000 OA
ATOM     18  H   UNL     1      47.081   6.133  15.438  0.00  0.00    +0.000 HD
BRANCH  16  19
ATOM     19  C   UNL     1      48.844   5.542  17.184  0.00  0.00    +0.000 A 
ATOM     20  C   UNL     1      49.031   4.169  17.244  0.00  0.00    +0.000 A 
ATOM     21  S   UNL     1      48.708   3.506  18.783  0.00  0.00    +0.000 S 
ATOM     22  C   UNL     1      48.256   5.027  19.403  0.00  0.00    +0.000 A 
ATOM     23  N   UNL     1      47.810   5.162  20.680  0.00  0.00    +0.000 NA
ATOM     24  C   UNL     1      47.458   6.365  20.995  0.00  0.00    +0.000 A 
ATOM     25  N   UNL     1      47.530   7.449  20.158  0.00  0.00    +0.000 N 
ATOM     26  C   UNL     1      48.034   7.371  18.883  0.00  0.00    +0.000 A 
ATOM     27  O   UNL     1      48.188   8.369  18.188  0.00  0.00    +0.000 OA
ATOM     28  C   UNL     1      48.394   6.028  18.462  0.00  0.00    +0.000 A 
ATOM     29  H   UNL     1      47.271   8.370  20.475  0.00  0.00    +0.000 HD
ENDBRANCH  16  19
ENDBRANCH   1  15
BRANCH   1  30
ATOM     30  C   UNL     1      47.644   8.766  13.961  0.00  0.00    +0.000 C 
BRANCH  30  31
ATOM     31  N   UNL     1      47.487   9.318  15.315  0.00  0.00    +0.000 NA
ATOM     32  H   UNL     1      48.128  10.103  15.421  0.00  0.00    +0.000 HD
ATOM     33  H   UNL     1      47.770   8.619  16.001  0.00  0.00    +0.000 HD
ENDBRANCH  30  31
ENDBRANCH   1  30
TORSDOF 7
ENDMDL
MODEL 5
REMARK VINA RESULT:    -7.271      3.308      8.168
REMARK INTER + INTRA:         -10.721
REMARK INTER:                  -9.557
REMARK INTRA:                  -1.164
REMARK UNBOUND:                -0.688
REMARK  Name = 
REMARK  7 active torsions:
REMARK  status: ('A' for Active; 'I' for Inactive)
REMARK    1  A    between atoms: N_1  and  C_2
REMARK    2  A    between atoms: C_2  and  C_3
REMARK    3  A    between atoms: C_3  and  N_4
REMARK    4  A    between atoms: C_3  and  C_17
REMARK    5  A    between atoms: C_5  and  C_7
REMARK    6  A    between atoms: C_20  and  O_21
REMARK    7  A    between atoms: O_21  and  C_22
REMARK                            x       y       z     vdW  Elec       q    Type
REMARK                         _______ _______ _______ _____ _____    ______ ____
ROOT
ATOM      1  C   UNL     1      48.272   7.497  13.389  0.00  0.00    +0.000 C 
ENDROOT
BRANCH   1   2
ATOM      2  C   UNL     1      48.687   6.775  14.671  0.00  0.00    +0.000 A 
ATOM      3  C   UNL     1      47.863   5.774  15.204  0.00  0.00    +0.000 A 
ATOM      4  C   UNL     1      48.226   5.095  16.369  0.00  0.00    +0.000 A 
ATOM      5  C   UNL     1      49.440   5.374  16.999  0.00  0.00    +0.000 A 
ATOM      6  C   UNL     1      50.256   6.388  16.497  0.00  0.00    +0.000 A 
ATOM      7  C   UNL     1      49.887   7.079  15.337  0.00  0.00    +0.000 A 
BRANCH   5   8
ATOM      8  O   UNL     1      49.858   4.757  18.158  0.00  0.00    +0.000 OA
BRANCH   8   9
ATOM      9  C   UNL     1      50.785   3.724  18.062  0.00  0.00    +0.000 A 
ATOM     10  C   UNL     1      50.345   2.553  17.461  0.00  0.00    +0.000 A 
ATOM     11  C   UNL     1      51.244   1.497  17.334  0.00  0.00    +0.000 A 
ATOM     12  C   UNL     1      52.540   1.645  17.817  0.00  0.00    +0.000 A 
ATOM     13  C   UNL     1      52.880   2.841  18.426  0.00  0.00    +0.000 A 
ATOM     14  N   UNL     1      52.028   3.876  18.574  0.00  0.00    +0.000 NA
ENDBRANCH   8   9
ENDBRANCH   5   8
ENDBRANCH   1   2
BRANCH   1  15
ATOM     15  N   UNL     1      47.590   6.550  12.516  0.00  0.00    +0.000 N 
ATOM     16  C   UNL     1      46.452   6.877  11.817  0.00  0.00    +0.000 C 
ATOM     17  O   UNL     1      46.005   8.018  11.772  0.00  0.00    +0.000 OA
ATOM     18  H   UNL     1      47.744   5.570  12.733  0.00  0.00    +0.000 HD
BRANCH  16  19
ATOM     19  C   UNL     1      45.821   5.786  11.071  0.00  0.00    +0.000 A 
ATOM     20  C   UNL     1      45.952   5.724   9.691  0.00  0.00    +0.000 A 
ATOM     21  S   UNL     1      45.143   4.394   8.991  0.00  0.00    +0.000 S 
ATOM     22  C   UNL     1      44.548   3.890  10.506  0.00  0.00    +0.000 A 
ATOM     23  N   UNL     1      43.722   2.816  10.615  0.00  0.00    +0.000 NA
ATOM     24  C   UNL     1      43.312   2.581  11.818  0.00  0.00    +0.000 A 
ATOM     25  N   UNL     1      43.668   3.309  12.925  0.00  0.00    +0.000 N 
ATOM     26  C   UNL     1      44.550   4.360  12.870  0.00  0.00    +0.000 A 
ATOM     27  O   UNL     1      44.938   4.930  13.884  0.00  0.00    +0.000 OA
ATOM     28  C   UNL     1      44.999   4.699  11.531  0.00  0.00    +0.000 A 
ATOM     29  H   UNL     1      43.341   3.054  13.843  0.00  0.00    +0.000 HD
ENDBRANCH  16  19
ENDBRANCH   1  15
BRANCH   1  30
ATOM     30  C   UNL     1      49.486   8.180  12.687  0.00  0.00    +0.000 C 
BRANCH  30  31
ATOM     31  N   UNL     1      50.267   7.294  11.811  0.00  0.00    +0.000 NA
ATOM     32  H   UNL     1      51.258   7.479  11.963  0.00  0.00    +0.000 HD
ATOM     33  H   UNL     1      50.077   7.527  10.837  0.00  0.00    +0.000 HD
ENDBRANCH  30  31
ENDBRANCH   1  30
TORSDOF 7
ENDMDL
MODEL 6
REMARK VINA RESULT:    -7.067      3.037      4.754
REMARK INTER + INTRA:         -10.440
REMARK INTER:                  -9.290
REMARK INTRA:                  -1.150
REMARK UNBOUND:                -0.688
REMARK  Name = 
REMARK  7 active torsions:
REMARK  status: ('A' for Active; 'I' for Inactive)
REMARK    1  A    between atoms: N_1  and  C_2
REMARK    2  A    between atoms: C_2  and  C_3
REMARK    3  A    between atoms: C_3  and  N_4
REMARK    4  A    between atoms: C_3  and  C_17
REMARK    5  A    between atoms: C_5  and  C_7
REMARK    6  A    between atoms: C_20  and  O_21
REMARK    7  A    between atoms: O_21  and  C_22
REMARK                            x       y       z     vdW  Elec       q    Type
REMARK                         _______ _______ _______ _____ _____    ______ ____
ROOT
ATOM      1  C   UNL     1      47.150   5.439  14.577  0.00  0.00    +0.000 C 
ENDROOT
BRANCH   1   2
ATOM      2  C   UNL     1      46.440   4.972  13.307  0.00  0.00    +0.000 A 
ATOM      3  C   UNL     1      46.279   5.857  12.232  0.00  0.00    +0.000 A 
ATOM      4  C   UNL     1      45.641   5.450  11.058  0.00  0.00    +0.000 A 
ATOM      5  C   UNL     1      45.190   4.136  10.921  0.00  0.00    +0.000 A 
ATOM      6  C   UNL     1      45.317   3.251  11.993  0.00  0.00    +0.000 A 
ATOM      7  C   UNL     1      45.943   3.663  13.175  0.00  0.00    +0.000 A 
BRANCH   5   8
ATOM      8  O   UNL     1      44.539   3.665   9.802  0.00  0.00    +0.000 OA
BRANCH   8   9
ATOM      9  C   UNL     1      45.305   3.189   8.741  0.00  0.00    +0.000 A 
ATOM     10  C   UNL     1      45.640   1.842   8.775  0.00  0.00    +0.000 A 
ATOM     11  C   UNL     1      46.396   1.324   7.728  0.00  0.00    +0.000 A 
ATOM     12  C   UNL     1      46.794   2.164   6.693  0.00  0.00    +0.000 A 
ATOM     13  C   UNL     1      46.435   3.499   6.759  0.00  0.00    +0.000 A 
ATOM     14  N   UNL     1      45.714   4.033   7.766  0.00  0.00    +0.000 NA
ENDBRANCH   8   9
ENDBRANCH   5   8
ENDBRANCH   1   2
BRANCH   1  15
ATOM     15  N   UNL     1      48.378   6.128  14.202  0.00  0.00    +0.000 N 
ATOM     16  C   UNL     1      48.929   7.128  14.968  0.00  0.00    +0.000 C 
ATOM     17  O   UNL     1      48.505   7.422  16.080  0.00  0.00    +0.000 OA
ATOM     18  H   UNL     1      48.594   6.122  13.209  0.00  0.00    +0.000 HD
BRANCH  16  19
ATOM     19  C   UNL     1      50.103   7.797  14.403  0.00  0.00    +0.000 A 
ATOM     20  C   UNL     1      51.328   7.708  15.047  0.00  0.00    +0.000 A 
ATOM     21  S   UNL     1      52.576   8.558  14.252  0.00  0.00    +0.000 S 
ATOM     22  C   UNL     1      51.505   9.116  13.051  0.00  0.00    +0.000 A 
ATOM     23  N   UNL     1      51.926   9.955  12.067  0.00  0.00    +0.000 NA
ATOM     24  C   UNL     1      50.993  10.334  11.257  0.00  0.00    +0.000 A 
ATOM     25  N   UNL     1      49.683   9.933  11.326  0.00  0.00    +0.000 N 
ATOM     26  C   UNL     1      49.228   9.038  12.262  0.00  0.00    +0.000 A 
ATOM     27  O   UNL     1      48.079   8.611  12.242  0.00  0.00    +0.000 OA
ATOM     28  C   UNL     1      50.227   8.623  13.231  0.00  0.00    +0.000 A 
ATOM     29  H   UNL     1      49.009  10.238  10.642  0.00  0.00    +0.000 HD
ENDBRANCH  16  19
ENDBRANCH   1  15
BRANCH   1  30
ATOM     30  C   UNL     1      47.410   4.262  15.566  0.00  0.00    +0.000 C 
BRANCH  30  31
ATOM     31  N   UNL     1      46.574   4.278  16.775  0.00  0.00    +0.000 NA
ATOM     32  H   UNL     1      45.754   3.696  16.611  0.00  0.00    +0.000 HD
ATOM     33  H   UNL     1      46.228   5.224  16.935  0.00  0.00    +0.000 HD
ENDBRANCH  30  31
ENDBRANCH   1  30
TORSDOF 7
ENDMDL
MODEL 7
REMARK VINA RESULT:    -6.946      2.949      8.507
REMARK INTER + INTRA:         -10.274
REMARK INTER:                  -9.048
REMARK INTRA:                  -1.226
REMARK UNBOUND:                -0.688
REMARK  Name = 
REMARK  7 active torsions:
REMARK  status: ('A' for Active; 'I' for Inactive)
REMARK    1  A    between atoms: N_1  and  C_2
REMARK    2  A    between atoms: C_2  and  C_3
REMARK    3  A    between atoms: C_3  and  N_4
REMARK    4  A    between atoms: C_3  and  C_17
REMARK    5  A    between atoms: C_5  and  C_7
REMARK    6  A    between atoms: C_20  and  O_21
REMARK    7  A    between atoms: O_21  and  C_22
REMARK                            x       y       z     vdW  Elec       q    Type
REMARK                         _______ _______ _______ _____ _____    ______ ____
ROOT
ATOM      1  C   UNL     1      47.605   6.894  13.633  0.00  0.00    +0.000 C 
ENDROOT
BRANCH   1   2
ATOM      2  C   UNL     1      48.193   6.240  14.883  0.00  0.00    +0.000 A 
ATOM      3  C   UNL     1      49.346   6.777  15.473  0.00  0.00    +0.000 A 
ATOM      4  C   UNL     1      49.897   6.202  16.621  0.00  0.00    +0.000 A 
ATOM      5  C   UNL     1      49.281   5.105  17.225  0.00  0.00    +0.000 A 
ATOM      6  C   UNL     1      48.149   4.541  16.632  0.00  0.00    +0.000 A 
ATOM      7  C   UNL     1      47.605   5.108  15.474  0.00  0.00    +0.000 A 
BRANCH   5   8
ATOM      8  O   UNL     1      49.772   4.475  18.347  0.00  0.00    +0.000 OA
BRANCH   8   9
ATOM      9  C   UNL     1      50.818   3.570  18.195  0.00  0.00    +0.000 A 
ATOM     10  C   UNL     1      50.518   2.380  17.547  0.00  0.00    +0.000 A 
ATOM     11  C   UNL     1      51.540   1.451  17.364  0.00  0.00    +0.000 A 
ATOM     12  C   UNL     1      52.815   1.740  17.839  0.00  0.00    +0.000 A 
ATOM     13  C   UNL     1      53.013   2.942  18.497  0.00  0.00    +0.000 A 
ATOM     14  N   UNL     1      52.041   3.855  18.699  0.00  0.00    +0.000 NA
ENDBRANCH   8   9
ENDBRANCH   5   8
ENDBRANCH   1   2
BRANCH   1  15
ATOM     15  N   UNL     1      46.847   5.893  12.893  0.00  0.00    +0.000 N 
ATOM     16  C   UNL     1      45.499   6.017  12.650  0.00  0.00    +0.000 C 
ATOM     17  O   UNL     1      44.866   7.032  12.919  0.00  0.00    +0.000 OA
ATOM     18  H   UNL     1      47.239   4.956  12.901  0.00  0.00    +0.000 HD
BRANCH  16  19
ATOM     19  C   UNL     1      44.858   4.878  11.990  0.00  0.00    +0.000 A 
ATOM     20  C   UNL     1      44.038   4.026  12.717  0.00  0.00    +0.000 A 
ATOM     21  S   UNL     1      43.390   2.751  11.788  0.00  0.00    +0.000 S 
ATOM     22  C   UNL     1      44.227   3.265  10.397  0.00  0.00    +0.000 A 
ATOM     23  N   UNL     1      44.153   2.568   9.232  0.00  0.00    +0.000 NA
ATOM     24  C   UNL     1      44.879   3.049   8.277  0.00  0.00    +0.000 A 
ATOM     25  N   UNL     1      45.655   4.175   8.373  0.00  0.00    +0.000 N 
ATOM     26  C   UNL     1      45.709   4.946   9.508  0.00  0.00    +0.000 A 
ATOM     27  O   UNL     1      46.325   6.006   9.540  0.00  0.00    +0.000 OA
ATOM     28  C   UNL     1      44.952   4.418  10.630  0.00  0.00    +0.000 A 
ATOM     29  H   UNL     1      46.173   4.520   7.580  0.00  0.00    +0.000 HD
ENDBRANCH  16  19
ENDBRANCH   1  15
BRANCH   1  30
ATOM     30  C   UNL     1      48.704   7.570  12.757  0.00  0.00    +0.000 C 
BRANCH  30  31
ATOM     31  N   UNL     1      48.391   7.639  11.323  0.00  0.00    +0.000 NA
ATOM     32  H   UNL     1      47.410   7.398  11.192  0.00  0.00    +0.000 HD
ATOM     33  H   UNL     1      48.931   6.932  10.824  0.00  0.00    +0.000 HD
ENDBRANCH  30  31
ENDBRANCH   1  30
TORSDOF 7
ENDMDL
MODEL 8
REMARK VINA RESULT:    -6.797      3.951      8.763
REMARK INTER + INTRA:         -10.067
REMARK INTER:                  -9.069
REMARK INTRA:                  -0.998
REMARK UNBOUND:                -0.688
REMARK  Name = 
REMARK  7 active torsions:
REMARK  status: ('A' for Active; 'I' for Inactive)
REMARK    1  A    between atoms: N_1  and  C_2
REMARK    2  A    between atoms: C_2  and  C_3
REMARK    3  A    between atoms: C_3  and  N_4
REMARK    4  A    between atoms: C_3  and  C_17
REMARK    5  A    between atoms: C_5  and  C_7
REMARK    6  A    between atoms: C_20  and  O_21
REMARK    7  A    between atoms: O_21  and  C_22
REMARK                            x       y       z     vdW  Elec       q    Type
REMARK                         _______ _______ _______ _____ _____    ______ ____
ROOT
ATOM      1  C   UNL     1      47.992   4.403  16.367  0.00  0.00    +0.000 C 
ENDROOT
BRANCH   1   2
ATOM      2  C   UNL     1      49.265   5.223  16.576  0.00  0.00    +0.000 A 
ATOM      3  C   UNL     1      50.289   4.724  17.392  0.00  0.00    +0.000 A 
ATOM      4  C   UNL     1      51.464   5.453  17.591  0.00  0.00    +0.000 A 
ATOM      5  C   UNL     1      51.655   6.675  16.944  0.00  0.00    +0.000 A 
ATOM      6  C   UNL     1      50.632   7.198  16.152  0.00  0.00    +0.000 A 
ATOM      7  C   UNL     1      49.448   6.475  15.963  0.00  0.00    +0.000 A 
BRANCH   5   8
ATOM      8  O   UNL     1      52.778   7.456  17.102  0.00  0.00    +0.000 OA
BRANCH   8   9
ATOM      9  C   UNL     1      53.561   7.725  15.984  0.00  0.00    +0.000 A 
ATOM     10  C   UNL     1      54.186   6.637  15.390  0.00  0.00    +0.000 A 
ATOM     11  C   UNL     1      54.971   6.861  14.262  0.00  0.00    +0.000 A 
ATOM     12  C   UNL     1      55.109   8.157  13.774  0.00  0.00    +0.000 A 
ATOM     13  C   UNL     1      54.469   9.182  14.449  0.00  0.00    +0.000 A 
ATOM     14  N   UNL     1      53.713   8.998  15.550  0.00  0.00    +0.000 NA
ENDBRANCH   8   9
ENDBRANCH   5   8
ENDBRANCH   1   2
BRANCH   1  15
ATOM     15  N   UNL     1      47.127   5.109  15.430  0.00  0.00    +0.000 N 
ATOM     16  C   UNL     1      46.948   4.693  14.132  0.00  0.00    +0.000 C 
ATOM     17  O   UNL     1      47.392   3.633  13.707  0.00  0.00    +0.000 OA
ATOM     18  H   UNL     1      46.975   6.093  15.635  0.00  0.00    +0.000 HD
BRANCH  16  19
ATOM     19  C   UNL     1      46.136   5.569  13.284  0.00  0.00    +0.000 A 
ATOM     20  C   UNL     1      46.531   6.880  13.063  0.00  0.00    +0.000 A 
ATOM     21  S   UNL     1      45.460   7.753  12.062  0.00  0.00    +0.000 S 
ATOM     22  C   UNL     1      44.406   6.421  11.936  0.00  0.00    +0.000 A 
ATOM     23  N   UNL     1      43.237   6.510  11.247  0.00  0.00    +0.000 NA
ATOM     24  C   UNL     1      42.518   5.436  11.279  0.00  0.00    +0.000 A 
ATOM     25  N   UNL     1      42.869   4.276  11.919  0.00  0.00    +0.000 N 
ATOM     26  C   UNL     1      44.067   4.120  12.572  0.00  0.00    +0.000 A 
ATOM     27  O   UNL     1      44.408   3.042  13.047  0.00  0.00    +0.000 OA
ATOM     28  C   UNL     1      44.889   5.316  12.611  0.00  0.00    +0.000 A 
ATOM     29  H   UNL     1      42.279   3.460  11.879  0.00  0.00    +0.000 HD
ENDBRANCH  16  19
ENDBRANCH   1  15
BRANCH   1  30
ATOM     30  C   UNL     1      47.273   4.089  17.715  0.00  0.00    +0.000 C 
BRANCH  30  31
ATOM     31  N   UNL     1      46.549   2.810  17.743  0.00  0.00    +0.000 NA
ATOM     32  H   UNL     1      46.585   2.396  16.813  0.00  0.00    +0.000 HD
ATOM     33  H   UNL     1      45.564   2.983  17.943  0.00  0.00    +0.000 HD
ENDBRANCH  30  31
ENDBRANCH   1  30
TORSDOF 7
ENDMDL
MODEL 9
REMARK VINA RESULT:    -6.757      2.533      8.741
REMARK INTER + INTRA:         -10.013
REMARK INTER:                  -8.787
REMARK INTRA:                  -1.225
REMARK UNBOUND:                -0.688
REMARK  Name = 
REMARK  7 active torsions:
REMARK  status: ('A' for Active; 'I' for Inactive)
REMARK    1  A    between atoms: N_1  and  C_2
REMARK    2  A    between atoms: C_2  and  C_3
REMARK    3  A    between atoms: C_3  and  N_4
REMARK    4  A    between atoms: C_3  and  C_17
REMARK    5  A    between atoms: C_5  and  C_7
REMARK    6  A    between atoms: C_20  and  O_21
REMARK    7  A    between atoms: O_21  and  C_22
REMARK                            x       y       z     vdW  Elec       q    Type
REMARK                         _______ _______ _______ _____ _____    ______ ____
ROOT
ATOM      1  C   UNL     1      45.055   6.363  12.012  0.00  0.00    +0.000 C 
ENDROOT
BRANCH   1   2
ATOM      2  C   UNL     1      46.217   6.406  13.004  0.00  0.00    +0.000 A 
ATOM      3  C   UNL     1      46.862   7.621  13.269  0.00  0.00    +0.000 A 
ATOM      4  C   UNL     1      47.921   7.686  14.178  0.00  0.00    +0.000 A 
ATOM      5  C   UNL     1      48.326   6.543  14.871  0.00  0.00    +0.000 A 
ATOM      6  C   UNL     1      47.712   5.320  14.596  0.00  0.00    +0.000 A 
ATOM      7  C   UNL     1      46.660   5.252  13.675  0.00  0.00    +0.000 A 
BRANCH   5   8
ATOM      8  O   UNL     1      49.370   6.525  15.770  0.00  0.00    +0.000 OA
BRANCH   8   9
ATOM      9  C   UNL     1      49.248   5.739  16.912  0.00  0.00    +0.000 A 
ATOM     10  C   UNL     1      48.406   6.217  17.906  0.00  0.00    +0.000 A 
ATOM     11  C   UNL     1      48.247   5.455  19.060  0.00  0.00    +0.000 A 
ATOM     12  C   UNL     1      48.936   4.253  19.183  0.00  0.00    +0.000 A 
ATOM     13  C   UNL     1      49.774   3.870  18.151  0.00  0.00    +0.000 A 
ATOM     14  N   UNL     1      49.958   4.592  17.026  0.00  0.00    +0.000 NA
ENDBRANCH   8   9
ENDBRANCH   5   8
ENDBRANCH   1   2
BRANCH   1  15
ATOM     15  N   UNL     1      45.296   5.294  11.051  0.00  0.00    +0.000 N 
ATOM     16  C   UNL     1      44.276   4.587  10.461  0.00  0.00    +0.000 C 
ATOM     17  O   UNL     1      43.095   4.886  10.596  0.00  0.00    +0.000 OA
ATOM     18  H   UNL     1      46.203   4.842  11.123  0.00  0.00    +0.000 HD
BRANCH  16  19
ATOM     19  C   UNL     1      44.681   3.471   9.603  0.00  0.00    +0.000 A 
ATOM     20  C   UNL     1      44.118   2.216   9.784  0.00  0.00    +0.000 A 
ATOM     21  S   UNL     1      44.718   1.040   8.703  0.00  0.00    +0.000 S 
ATOM     22  C   UNL     1      45.789   2.159   7.995  0.00  0.00    +0.000 A 
ATOM     23  N   UNL     1      46.654   1.782   7.015  0.00  0.00    +0.000 NA
ATOM     24  C   UNL     1      47.438   2.725   6.608  0.00  0.00    +0.000 A 
ATOM     25  N   UNL     1      47.424   4.014   7.074  0.00  0.00    +0.000 N 
ATOM     26  C   UNL     1      46.526   4.454   8.015  0.00  0.00    +0.000 A 
ATOM     27  O   UNL     1      46.459   5.634   8.342  0.00  0.00    +0.000 OA
ATOM     28  C   UNL     1      45.656   3.419   8.545  0.00  0.00    +0.000 A 
ATOM     29  H   UNL     1      48.040   4.713   6.691  0.00  0.00    +0.000 HD
ENDBRANCH  16  19
ENDBRANCH   1  15
BRANCH   1  30
ATOM     30  C   UNL     1      44.831   7.742  11.319  0.00  0.00    +0.000 C 
BRANCH  30  31
ATOM     31  N   UNL     1      43.426   8.062  11.025  0.00  0.00    +0.000 NA
ATOM     32  H   UNL     1      42.832   7.521  11.652  0.00  0.00    +0.000 HD
ATOM     33  H   UNL     1      43.200   7.757  10.079  0.00  0.00    +0.000 HD
ENDBRANCH  30  31
ENDBRANCH   1  30
TORSDOF 7
ENDMDL
