MODEL 1
REMARK VINA RESULT:    -7.812      0.000      0.000
REMARK INTER + INTRA:         -12.100
REMARK INTER:                 -11.465
REMARK INTRA:                  -0.635
REMARK UNBOUND:                -0.635
REMARK  Name = 
REMARK  9 active torsions:
REMARK  status: ('A' for Active; 'I' for Inactive)
REMARK    1  A    between atoms: C_1  and  C_2
REMARK    2  A    between atoms: C_2  and  N_3
REMARK    3  A    between atoms: C_2  and  C_19
REMARK    4  A    between atoms: N_3  and  C_4
REMARK    5  A    between atoms: C_4  and  C_5
REMARK    6  A    between atoms: C_8  and  C_9
REMARK    7  A    between atoms: C_9  and  N_10
REMARK    8  A    between atoms: N_10  and  C_11
REMARK    9  A    between atoms: C_11  and  C_12
REMARK                            x       y       z     vdW  Elec       q    Type
REMARK                         _______ _______ _______ _____ _____    ______ ____
ROOT
ATOM      1  C   UNL     1      47.698   5.574  14.401  0.00  0.00    +0.000 C 
ENDROOT
BRANCH   1   2
ATOM      2  C   UNL     1      46.682   5.329  13.323  0.00  0.00    +0.000 A 
ATOM      3  C   UNL     1      46.498   6.224  12.262  0.00  0.00    +0.000 A 
ATOM      4  C   UNL     1      45.570   5.938  11.263  0.00  0.00    +0.000 A 
ATOM      5  C   UNL     1      44.833   4.761  11.351  0.00  0.00    +0.000 A 
ATOM      6  N   UNL     1      45.011   3.874  12.368  0.00  0.00    +0.000 NA
ATOM      7  C   UNL     1      45.918   4.172  13.319  0.00  0.00    +0.000 A 
BRANCH   5   8
ATOM      8  C   UNL     1      43.806   4.414  10.282  0.00  0.00    +0.000 C 
BRANCH   8   9
ATOM      9  N   UNL     1      44.399   4.455   8.948  0.00  0.00    +0.000 NA
ATOM     10  H   UNL     1      45.229   5.040   8.959  0.00  0.00    +0.000 HD
BRANCH   9  11
ATOM     11  C   UNL     1      44.629   3.159   8.342  0.00  0.00    +0.000 C 
BRANCH  11  12
ATOM     12  C   UNL     1      46.146   2.894   8.303  0.00  0.00    +0.000 C 
ATOM     13  C   UNL     1      46.863   3.671   7.201  0.00  0.00    +0.000 C 
ATOM     14  C   UNL     1      46.697   2.770   5.999  0.00  0.00    +0.000 C 
ATOM     15  N   UNL     1      46.910   1.418   6.536  0.00  0.00    +0.000 NA
ATOM     16  C   UNL     1      46.450   1.440   7.937  0.00  0.00    +0.000 C 
ATOM     17  H   UNL     1      47.915   1.237   6.536  0.00  0.00    +0.000 HD
ENDBRANCH  11  12
ENDBRANCH   9  11
ENDBRANCH   8   9
ENDBRANCH   5   8
ENDBRANCH   1   2
BRANCH   1  18
ATOM     18  N   UNL     1      47.934   4.369  15.192  0.00  0.00    +0.000 NA
ATOM     19  H   UNL     1      48.903   4.078  15.061  0.00  0.00    +0.000 HD
BRANCH  18  21
ATOM     20  C   UNL     1      46.809   3.462  17.227  0.00  0.00    +0.000 C 
ATOM     21  C   UNL     1      47.699   4.561  16.631  0.00  0.00    +0.000 C 
BRANCH  21  22
ATOM     22  C   UNL     1      49.065   4.571  17.292  0.00  0.00    +0.000 A 
ATOM     23  C   UNL     1      49.578   5.663  17.980  0.00  0.00    +0.000 A 
ATOM     24  S   UNL     1      51.144   5.402  18.601  0.00  0.00    +0.000 S 
ATOM     25  C   UNL     1      51.189   3.817  17.983  0.00  0.00    +0.000 A 
ATOM     26  N   UNL     1      52.278   3.024  18.169  0.00  0.00    +0.000 NA
ATOM     27  C   UNL     1      52.173   1.847  17.651  0.00  0.00    +0.000 A 
ATOM     28  N   UNL     1      51.079   1.390  16.962  0.00  0.00    +0.000 N 
ATOM     29  C   UNL     1      49.951   2.156  16.743  0.00  0.00    +0.000 A 
ATOM     30  O   UNL     1      48.992   1.714  16.122  0.00  0.00    +0.000 OA
ATOM     31  C   UNL     1      50.024   3.491  17.311  0.00  0.00    +0.000 A 
ATOM     32  H   UNL     1      51.060   0.455  16.584  0.00  0.00    +0.000 HD
ENDBRANCH  21  22
ENDBRANCH  18  21
ENDBRANCH   1  18
TORSDOF 8
ENDMDL
MODEL 2
REMARK VINA RESULT:    -7.488      2.159      2.823
REMARK INTER + INTRA:         -11.625
REMARK INTER:                 -10.469
REMARK INTRA:                  -1.156
REMARK UNBOUND:                -0.635
REMARK  Name = 
REMARK  9 active torsions:
REMARK  status: ('A' for Active; 'I' for Inactive)
REMARK    1  A    between atoms: C_1  and  C_2
REMARK    2  A    between atoms: C_2  and  N_3
REMARK    3  A    between atoms: C_2  and  C_19
REMARK    4  A    between atoms: N_3  and  C_4
REMARK    5  A    between atoms: C_4  and  C_5
REMARK    6  A    between atoms: C_8  and  C_9
REMARK    7  A    between atoms: C_9  and  N_10
REMARK    8  A    between atoms: N_10  and  C_11
REMARK    9  A    between atoms: C_11  and  C_12
REMARK                            x       y       z     vdW  Elec       q    Type
REMARK                         _______ _______ _______ _____ _____    ______ ____
ROOT
ATOM      1  C   UNL     1      46.954   7.847  12.766  0.00  0.00    +0.000 C 
ENDROOT
BRANCH   1   2
ATOM      2  C   UNL     1      46.098   6.748  12.206  0.00  0.00    +0.000 A 
ATOM      3  C   UNL     1      45.021   6.211  12.922  0.00  0.00    +0.000 A 
ATOM      4  C   UNL     1      44.230   5.217  12.349  0.00  0.00    +0.000 A 
ATOM      5  C   UNL     1      44.540   4.771  11.068  0.00  0.00    +0.000 A 
ATOM      6  N   UNL     1      45.575   5.293  10.354  0.00  0.00    +0.000 NA
ATOM      7  C   UNL     1      46.321   6.256  10.930  0.00  0.00    +0.000 A 
BRANCH   5   8
ATOM      8  C   UNL     1      43.703   3.684  10.409  0.00  0.00    +0.000 C 
BRANCH   8   9
ATOM      9  N   UNL     1      44.523   2.527  10.057  0.00  0.00    +0.000 NA
ATOM     10  H   UNL     1      44.148   1.694  10.500  0.00  0.00    +0.000 HD
BRANCH   9  11
ATOM     11  C   UNL     1      44.761   2.355   8.639  0.00  0.00    +0.000 C 
BRANCH  11  12
ATOM     12  C   UNL     1      46.282   2.375   8.388  0.00  0.00    +0.000 C 
ATOM     13  C   UNL     1      46.705   3.408   7.347  0.00  0.00    +0.000 C 
ATOM     14  C   UNL     1      46.522   2.660   6.045  0.00  0.00    +0.000 C 
ATOM     15  N   UNL     1      47.023   1.310   6.339  0.00  0.00    +0.000 NA
ATOM     16  C   UNL     1      46.763   1.061   7.769  0.00  0.00    +0.000 C 
ATOM     17  H   UNL     1      48.033   1.313   6.197  0.00  0.00    +0.000 HD
ENDBRANCH  11  12
ENDBRANCH   9  11
ENDBRANCH   8   9
ENDBRANCH   5   8
ENDBRANCH   1   2
BRANCH   1  18
ATOM     18  N   UNL     1      47.309   7.585  14.159  0.00  0.00    +0.000 NA
ATOM     19  H   UNL     1      46.678   6.875  14.530  0.00  0.00    +0.000 HD
BRANCH  18  21
ATOM     20  C   UNL     1      49.724   8.209  14.049  0.00  0.00    +0.000 C 
ATOM     21  C   UNL     1      48.690   7.109  14.328  0.00  0.00    +0.000 C 
BRANCH  21  22
ATOM     22  C   UNL     1      48.802   6.608  15.756  0.00  0.00    +0.000 A 
ATOM     23  C   UNL     1      49.444   7.308  16.769  0.00  0.00    +0.000 A 
ATOM     24  S   UNL     1      49.436   6.497  18.267  0.00  0.00    +0.000 S 
ATOM     25  C   UNL     1      48.565   5.187  17.621  0.00  0.00    +0.000 A 
ATOM     26  N   UNL     1      48.221   4.124  18.397  0.00  0.00    +0.000 NA
ATOM     27  C   UNL     1      47.560   3.206  17.778  0.00  0.00    +0.000 A 
ATOM     28  N   UNL     1      47.210   3.252  16.453  0.00  0.00    +0.000 N 
ATOM     29  C   UNL     1      47.538   4.305  15.622  0.00  0.00    +0.000 A 
ATOM     30  O   UNL     1      47.209   4.311  14.441  0.00  0.00    +0.000 OA
ATOM     31  C   UNL     1      48.283   5.365  16.278  0.00  0.00    +0.000 A 
ATOM     32  H   UNL     1      46.688   2.499  16.029  0.00  0.00    +0.000 HD
ENDBRANCH  21  22
ENDBRANCH  18  21
ENDBRANCH   1  18
TORSDOF 8
ENDMDL
MODEL 3
REMARK VINA RESULT:    -7.036      2.430      3.129
REMARK INTER + INTRA:         -10.961
REMARK INTER:                 -10.045
REMARK INTRA:                  -0.916
REMARK UNBOUND:                -0.635
REMARK  Name = 
REMARK  9 active torsions:
REMARK  status: ('A' for Active; 'I' for Inactive)
REMARK    1  A    between atoms: C_1  and  C_2
REMARK    2  A    between atoms: C_2  and  N_3
REMARK    3  A    between atoms: C_2  and  C_19
REMARK    4  A    between atoms: N_3  and  C_4
REMARK    5  A    between atoms: C_4  and  C_5
REMARK    6  A    between atoms: C_8  and  C_9
REMARK    7  A    between atoms: C_9  and  N_10
REMARK    8  A    between atoms: N_10  and  C_11
REMARK    9  A    between atoms: C_11  and  C_12
REMARK                            x       y       z     vdW  Elec       q    Type
REMARK                         _______ _______ _______ _____ _____    ______ ____
ROOT
ATOM      1  C   UNL     1      48.063   6.699  13.792  0.00  0.00    +0.000 C 
ENDROOT
BRANCH   1   2
ATOM      2  C   UNL     1      46.898   5.810  13.462  0.00  0.00    +0.000 A 
ATOM      3  C   UNL     1      45.682   6.326  12.997  0.00  0.00    +0.000 A 
ATOM      4  C   UNL     1      44.640   5.461  12.668  0.00  0.00    +0.000 A 
ATOM      5  C   UNL     1      44.833   4.092  12.821  0.00  0.00    +0.000 A 
ATOM      6  N   UNL     1      46.014   3.575  13.257  0.00  0.00    +0.000 NA
ATOM      7  C   UNL     1      47.007   4.432  13.564  0.00  0.00    +0.000 A 
BRANCH   5   8
ATOM      8  C   UNL     1      43.718   3.115  12.476  0.00  0.00    +0.000 C 
BRANCH   8   9
ATOM      9  N   UNL     1      43.333   3.228  11.072  0.00  0.00    +0.000 NA
ATOM     10  H   UNL     1      42.878   4.122  10.911  0.00  0.00    +0.000 HD
BRANCH   9  11
ATOM     11  C   UNL     1      44.393   2.955  10.123  0.00  0.00    +0.000 C 
BRANCH  11  12
ATOM     12  C   UNL     1      44.346   4.019   9.010  0.00  0.00    +0.000 C 
ATOM     13  C   UNL     1      44.671   3.456   7.628  0.00  0.00    +0.000 C 
ATOM     14  C   UNL     1      46.181   3.517   7.592  0.00  0.00    +0.000 C 
ATOM     15  N   UNL     1      46.499   4.808   8.219  0.00  0.00    +0.000 NA
ATOM     16  C   UNL     1      45.434   5.077   9.202  0.00  0.00    +0.000 C 
ATOM     17  H   UNL     1      46.451   5.527   7.495  0.00  0.00    +0.000 HD
ENDBRANCH  11  12
ENDBRANCH   9  11
ENDBRANCH   8   9
ENDBRANCH   5   8
ENDBRANCH   1   2
BRANCH   1  18
ATOM     18  N   UNL     1      48.027   7.123  15.190  0.00  0.00    +0.000 NA
ATOM     19  H   UNL     1      47.110   6.898  15.576  0.00  0.00    +0.000 HD
BRANCH  18  21
ATOM     20  C   UNL     1      50.468   6.954  15.681  0.00  0.00    +0.000 C 
ATOM     21  C   UNL     1      49.051   6.472  16.021  0.00  0.00    +0.000 C 
BRANCH  21  22
ATOM     22  C   UNL     1      48.701   6.791  17.463  0.00  0.00    +0.000 A 
ATOM     23  C   UNL     1      48.411   8.069  17.920  0.00  0.00    +0.000 A 
ATOM     24  S   UNL     1      48.075   8.135  19.590  0.00  0.00    +0.000 S 
ATOM     25  C   UNL     1      48.295   6.457  19.761  0.00  0.00    +0.000 A 
ATOM     26  N   UNL     1      48.149   5.852  20.970  0.00  0.00    +0.000 NA
ATOM     27  C   UNL     1      48.340   4.576  20.952  0.00  0.00    +0.000 A 
ATOM     28  N   UNL     1      48.664   3.849  19.836  0.00  0.00    +0.000 N 
ATOM     29  C   UNL     1      48.827   4.415  18.588  0.00  0.00    +0.000 A 
ATOM     30  O   UNL     1      49.118   3.733  17.611  0.00  0.00    +0.000 OA
ATOM     31  C   UNL     1      48.620   5.852  18.559  0.00  0.00    +0.000 A 
ATOM     32  H   UNL     1      48.798   2.850  19.890  0.00  0.00    +0.000 HD
ENDBRANCH  21  22
ENDBRANCH  18  21
ENDBRANCH   1  18
TORSDOF 8
ENDMDL
MODEL 4
REMARK VINA RESULT:    -6.967      2.008      2.392
REMARK INTER + INTRA:         -10.860
REMARK INTER:                  -9.991
REMARK INTRA:                  -0.869
REMARK UNBOUND:                -0.635
REMARK  Name = 
REMARK  9 active torsions:
REMARK  status: ('A' for Active; 'I' for Inactive)
REMARK    1  A    between atoms: C_1  and  C_2
REMARK    2  A    between atoms: C_2  and  N_3
REMARK    3  A    between atoms: C_2  and  C_19
REMARK    4  A    between atoms: N_3  and  C_4
REMARK    5  A    between atoms: C_4  and  C_5
REMARK    6  A    between atoms: C_8  and  C_9
REMARK    7  A    between atoms: C_9  and  N_10
REMARK    8  A    between atoms: N_10  and  C_11
REMARK    9  A    between atoms: C_11  and  C_12
REMARK                            x       y       z     vdW  Elec       q    Type
REMARK                         _______ _______ _______ _____ _____    ______ ____
ROOT
ATOM      1  C   UNL     1      47.419   6.813  13.611  0.00  0.00    +0.000 C 
ENDROOT
BRANCH   1   2
ATOM      2  C   UNL     1      46.505   6.003  12.736  0.00  0.00    +0.000 A 
ATOM      3  C   UNL     1      46.331   6.294  11.378  0.00  0.00    +0.000 A 
ATOM      4  C   UNL     1      45.501   5.494  10.595  0.00  0.00    +0.000 A 
ATOM      5  C   UNL     1      44.850   4.420  11.193  0.00  0.00    +0.000 A 
ATOM      6  N   UNL     1      45.021   4.115  12.509  0.00  0.00    +0.000 NA
ATOM      7  C   UNL     1      45.832   4.902  13.242  0.00  0.00    +0.000 A 
BRANCH   5   8
ATOM      8  C   UNL     1      43.932   3.524  10.373  0.00  0.00    +0.000 C 
BRANCH   8   9
ATOM      9  N   UNL     1      44.602   2.282  10.000  0.00  0.00    +0.000 NA
ATOM     10  H   UNL     1      44.110   1.491  10.405  0.00  0.00    +0.000 HD
BRANCH   9  11
ATOM     11  C   UNL     1      44.852   2.124   8.582  0.00  0.00    +0.000 C 
BRANCH  11  12
ATOM     12  C   UNL     1      46.363   2.287   8.327  0.00  0.00    +0.000 C 
ATOM     13  C   UNL     1      46.688   3.399   7.331  0.00  0.00    +0.000 C 
ATOM     14  C   UNL     1      46.560   2.696   5.998  0.00  0.00    +0.000 C 
ATOM     15  N   UNL     1      47.178   1.382   6.229  0.00  0.00    +0.000 NA
ATOM     16  C   UNL     1      46.952   1.049   7.647  0.00  0.00    +0.000 C 
ATOM     17  H   UNL     1      48.184   1.480   6.084  0.00  0.00    +0.000 HD
ENDBRANCH  11  12
ENDBRANCH   9  11
ENDBRANCH   8   9
ENDBRANCH   5   8
ENDBRANCH   1   2
BRANCH   1  18
ATOM     18  N   UNL     1      47.913   6.023  14.736  0.00  0.00    +0.000 NA
ATOM     19  H   UNL     1      48.212   5.112  14.390  0.00  0.00    +0.000 HD
BRANCH  18  21
ATOM     20  C   UNL     1      48.786   8.124  15.763  0.00  0.00    +0.000 C 
ATOM     21  C   UNL     1      49.048   6.649  15.432  0.00  0.00    +0.000 C 
BRANCH  21  22
ATOM     22  C   UNL     1      49.276   5.841  16.696  0.00  0.00    +0.000 A 
ATOM     23  C   UNL     1      48.258   5.223  17.409  0.00  0.00    +0.000 A 
ATOM     24  S   UNL     1      48.801   4.404  18.801  0.00  0.00    +0.000 S 
ATOM     25  C   UNL     1      50.418   4.835  18.496  0.00  0.00    +0.000 A 
ATOM     26  N   UNL     1      51.417   4.440  19.330  0.00  0.00    +0.000 NA
ATOM     27  C   UNL     1      52.593   4.834  18.975  0.00  0.00    +0.000 A 
ATOM     28  N   UNL     1      52.862   5.588  17.862  0.00  0.00    +0.000 N 
ATOM     29  C   UNL     1      51.885   6.017  16.987  0.00  0.00    +0.000 A 
ATOM     30  O   UNL     1      52.164   6.691  16.001  0.00  0.00    +0.000 OA
ATOM     31  C   UNL     1      50.543   5.595  17.346  0.00  0.00    +0.000 A 
ATOM     32  H   UNL     1      53.808   5.861  17.639  0.00  0.00    +0.000 HD
ENDBRANCH  21  22
ENDBRANCH  18  21
ENDBRANCH   1  18
TORSDOF 8
ENDMDL
MODEL 5
REMARK VINA RESULT:    -6.775      2.912      4.006
REMARK INTER + INTRA:         -10.579
REMARK INTER:                  -9.107
REMARK INTRA:                  -1.472
REMARK UNBOUND:                -0.635
REMARK  Name = 
REMARK  9 active torsions:
REMARK  status: ('A' for Active; 'I' for Inactive)
REMARK    1  A    between atoms: C_1  and  C_2
REMARK    2  A    between atoms: C_2  and  N_3
REMARK    3  A    between atoms: C_2  and  C_19
REMARK    4  A    between atoms: N_3  and  C_4
REMARK    5  A    between atoms: C_4  and  C_5
REMARK    6  A    between atoms: C_8  and  C_9
REMARK    7  A    between atoms: C_9  and  N_10
REMARK    8  A    between atoms: N_10  and  C_11
REMARK    9  A    between atoms: C_11  and  C_12
REMARK                            x       y       z     vdW  Elec       q    Type
REMARK                         _______ _______ _______ _____ _____    ______ ____
ROOT
ATOM      1  C   UNL     1      48.764   7.276  12.823  0.00  0.00    +0.000 C 
ENDROOT
BRANCH   1   2
ATOM      2  C   UNL     1      47.398   6.667  12.954  0.00  0.00    +0.000 A 
ATOM      3  C   UNL     1      46.253   7.307  12.465  0.00  0.00    +0.000 A 
ATOM      4  C   UNL     1      45.009   6.688  12.576  0.00  0.00    +0.000 A 
ATOM      5  C   UNL     1      44.934   5.441  13.186  0.00  0.00    +0.000 A 
ATOM      6  N   UNL     1      46.040   4.800  13.654  0.00  0.00    +0.000 NA
ATOM      7  C   UNL     1      47.231   5.418  13.530  0.00  0.00    +0.000 A 
BRANCH   5   8
ATOM      8  C   UNL     1      43.594   4.734  13.331  0.00  0.00    +0.000 C 
BRANCH   8   9
ATOM      9  N   UNL     1      43.633   3.402  12.735  0.00  0.00    +0.000 NA
ATOM     10  H   UNL     1      43.036   2.772  13.262  0.00  0.00    +0.000 HD
BRANCH   9  11
ATOM     11  C   UNL     1      43.377   3.361  11.310  0.00  0.00    +0.000 C 
BRANCH  11  12
ATOM     12  C   UNL     1      44.708   3.102  10.577  0.00  0.00    +0.000 C 
ATOM     13  C   UNL     1      45.205   4.312   9.789  0.00  0.00    +0.000 C 
ATOM     14  C   UNL     1      44.477   4.171   8.471  0.00  0.00    +0.000 C 
ATOM     15  N   UNL     1      44.536   2.730   8.186  0.00  0.00    +0.000 NA
ATOM     16  C   UNL     1      44.548   2.039   9.488  0.00  0.00    +0.000 C 
ATOM     17  H   UNL     1      45.423   2.541   7.718  0.00  0.00    +0.000 HD
ENDBRANCH  11  12
ENDBRANCH   9  11
ENDBRANCH   8   9
ENDBRANCH   5   8
ENDBRANCH   1   2
BRANCH   1  18
ATOM     18  N   UNL     1      49.657   6.808  13.880  0.00  0.00    +0.000 NA
ATOM     19  H   UNL     1      50.349   6.182  13.470  0.00  0.00    +0.000 HD
BRANCH  18  21
ATOM     20  C   UNL     1      50.650   9.085  13.633  0.00  0.00    +0.000 C 
ATOM     21  C   UNL     1      50.369   7.898  14.565  0.00  0.00    +0.000 C 
BRANCH  21  22
ATOM     22  C   UNL     1      49.494   8.319  15.731  0.00  0.00    +0.000 A 
ATOM     23  C   UNL     1      48.984   9.601  15.887  0.00  0.00    +0.000 A 
ATOM     24  S   UNL     1      48.052   9.796  17.301  0.00  0.00    +0.000 S 
ATOM     25  C   UNL     1      48.287   8.172  17.750  0.00  0.00    +0.000 A 
ATOM     26  N   UNL     1      47.740   7.676  18.893  0.00  0.00    +0.000 NA
ATOM     27  C   UNL     1      47.996   6.430  19.106  0.00  0.00    +0.000 A 
ATOM     28  N   UNL     1      48.750   5.633  18.284  0.00  0.00    +0.000 N 
ATOM     29  C   UNL     1      49.329   6.089  17.117  0.00  0.00    +0.000 A 
ATOM     30  O   UNL     1      49.999   5.347  16.406  0.00  0.00    +0.000 OA
ATOM     31  C   UNL     1      49.067   7.488  16.834  0.00  0.00    +0.000 A 
ATOM     32  H   UNL     1      48.910   4.662  18.509  0.00  0.00    +0.000 HD
ENDBRANCH  21  22
ENDBRANCH  18  21
ENDBRANCH   1  18
TORSDOF 8
ENDMDL
MODEL 6
REMARK VINA RESULT:    -6.699      3.052      4.420
REMARK INTER + INTRA:         -10.466
REMARK INTER:                  -9.040
REMARK INTRA:                  -1.426
REMARK UNBOUND:                -0.635
REMARK  Name = 
REMARK  9 active torsions:
REMARK  status: ('A' for Active; 'I' for Inactive)
REMARK    1  A    between atoms: C_1  and  C_2
REMARK    2  A    between atoms: C_2  and  N_3
REMARK    3  A    between atoms: C_2  and  C_19
REMARK    4  A    between atoms: N_3  and  C_4
REMARK    5  A    between atoms: C_4  and  C_5
REMARK    6  A    between atoms: C_8  and  C_9
REMARK    7  A    between atoms: C_9  and  N_10
REMARK    8  A    between atoms: N_10  and  C_11
REMARK    9  A    between atoms: C_11  and  C_12
REMARK                            x       y       z     vdW  Elec       q    Type
REMARK                         _______ _______ _______ _____ _____    ______ ____
ROOT
ATOM      1  C   UNL     1      49.134   7.907  17.148  0.00  0.00    +0.000 C 
ENDROOT
BRANCH   1   2
ATOM      2  C   UNL     1      48.598   7.788  15.751  0.00  0.00    +0.000 A 
ATOM      3  C   UNL     1      48.585   6.568  15.065  0.00  0.00    +0.000 A 
ATOM      4  C   UNL     1      48.044   6.495  13.782  0.00  0.00    +0.000 A 
ATOM      5  C   UNL     1      47.533   7.654  13.206  0.00  0.00    +0.000 A 
ATOM      6  N   UNL     1      47.525   8.844  13.866  0.00  0.00    +0.000 NA
ATOM      7  C   UNL     1      48.050   8.886  15.106  0.00  0.00    +0.000 A 
BRANCH   5   8
ATOM      8  C   UNL     1      46.938   7.618  11.805  0.00  0.00    +0.000 C 
BRANCH   8   9
ATOM      9  N   UNL     1      45.607   7.016  11.813  0.00  0.00    +0.000 NA
ATOM     10  H   UNL     1      44.906   7.730  11.637  0.00  0.00    +0.000 HD
BRANCH   9  11
ATOM     11  C   UNL     1      45.456   5.854  10.962  0.00  0.00    +0.000 C 
BRANCH  11  12
ATOM     12  C   UNL     1      44.676   4.773  11.735  0.00  0.00    +0.000 C 
ATOM     13  C   UNL     1      43.295   4.493  11.147  0.00  0.00    +0.000 C 
ATOM     14  C   UNL     1      42.436   5.551  11.802  0.00  0.00    +0.000 C 
ATOM     15  N   UNL     1      42.916   5.587  13.191  0.00  0.00    +0.000 NA
ATOM     16  C   UNL     1      44.346   5.232  13.157  0.00  0.00    +0.000 C 
ATOM     17  H   UNL     1      42.421   4.861  13.711  0.00  0.00    +0.000 HD
ENDBRANCH  11  12
ENDBRANCH   9  11
ENDBRANCH   8   9
ENDBRANCH   5   8
ENDBRANCH   1   2
BRANCH   1  18
ATOM     18  N   UNL     1      48.234   7.287  18.117  0.00  0.00    +0.000 NA
ATOM     19  H   UNL     1      47.669   6.587  17.636  0.00  0.00    +0.000 HD
BRANCH  18  21
ATOM     20  C   UNL     1      47.981   6.177  20.338  0.00  0.00    +0.000 C 
ATOM     21  C   UNL     1      48.939   6.629  19.227  0.00  0.00    +0.000 C 
BRANCH  21  22
ATOM     22  C   UNL     1      49.673   5.443  18.629  0.00  0.00    +0.000 A 
ATOM     23  C   UNL     1      51.046   5.261  18.725  0.00  0.00    +0.000 A 
ATOM     24  S   UNL     1      51.603   3.854  17.940  0.00  0.00    +0.000 S 
ATOM     25  C   UNL     1      50.028   3.432  17.453  0.00  0.00    +0.000 A 
ATOM     26  N   UNL     1      49.799   2.304  16.728  0.00  0.00    +0.000 NA
ATOM     27  C   UNL     1      48.559   2.106  16.432  0.00  0.00    +0.000 A 
ATOM     28  N   UNL     1      47.527   2.932  16.795  0.00  0.00    +0.000 N 
ATOM     29  C   UNL     1      47.706   4.088  17.526  0.00  0.00    +0.000 A 
ATOM     30  O   UNL     1      46.759   4.803  17.831  0.00  0.00    +0.000 OA
ATOM     31  C   UNL     1      49.089   4.352  17.883  0.00  0.00    +0.000 A 
ATOM     32  H   UNL     1      46.576   2.716  16.532  0.00  0.00    +0.000 HD
ENDBRANCH  21  22
ENDBRANCH  18  21
ENDBRANCH   1  18
TORSDOF 8
ENDMDL
MODEL 7
REMARK VINA RESULT:    -6.682      3.476      8.473
REMARK INTER + INTRA:         -10.442
REMARK INTER:                  -8.949
REMARK INTRA:                  -1.493
REMARK UNBOUND:                -0.635
REMARK  Name = 
REMARK  9 active torsions:
REMARK  status: ('A' for Active; 'I' for Inactive)
REMARK    1  A    between atoms: C_1  and  C_2
REMARK    2  A    between atoms: C_2  and  N_3
REMARK    3  A    between atoms: C_2  and  C_19
REMARK    4  A    between atoms: N_3  and  C_4
REMARK    5  A    between atoms: C_4  and  C_5
REMARK    6  A    between atoms: C_8  and  C_9
REMARK    7  A    between atoms: C_9  and  N_10
REMARK    8  A    between atoms: N_10  and  C_11
REMARK    9  A    between atoms: C_11  and  C_12
REMARK                            x       y       z     vdW  Elec       q    Type
REMARK                         _______ _______ _______ _____ _____    ______ ____
ROOT
ATOM      1  C   UNL     1      48.317   8.279  11.903  0.00  0.00    +0.000 C 
ENDROOT
BRANCH   1   2
ATOM      2  C   UNL     1      48.502   8.099  13.383  0.00  0.00    +0.000 A 
ATOM      3  C   UNL     1      48.161   9.101  14.299  0.00  0.00    +0.000 A 
ATOM      4  C   UNL     1      48.315   8.876  15.666  0.00  0.00    +0.000 A 
ATOM      5  C   UNL     1      48.818   7.651  16.090  0.00  0.00    +0.000 A 
ATOM      6  N   UNL     1      49.139   6.661  15.212  0.00  0.00    +0.000 NA
ATOM      7  C   UNL     1      48.977   6.902  13.897  0.00  0.00    +0.000 A 
BRANCH   5   8
ATOM      8  C   UNL     1      49.005   7.368  17.574  0.00  0.00    +0.000 C 
BRANCH   8   9
ATOM      9  N   UNL     1      47.852   6.661  18.125  0.00  0.00    +0.000 NA
ATOM     10  H   UNL     1      47.278   6.299  17.370  0.00  0.00    +0.000 HD
BRANCH   9  11
ATOM     11  C   UNL     1      48.169   5.660  19.123  0.00  0.00    +0.000 C 
BRANCH  11  12
ATOM     12  C   UNL     1      47.712   4.283  18.603  0.00  0.00    +0.000 C 
ATOM     13  C   UNL     1      48.847   3.264  18.524  0.00  0.00    +0.000 C 
ATOM     14  C   UNL     1      49.454   3.550  17.169  0.00  0.00    +0.000 C 
ATOM     15  N   UNL     1      48.291   3.783  16.301  0.00  0.00    +0.000 NA
ATOM     16  C   UNL     1      47.235   4.363  17.152  0.00  0.00    +0.000 C 
ATOM     17  H   UNL     1      47.964   2.876  15.966  0.00  0.00    +0.000 HD
ENDBRANCH  11  12
ENDBRANCH   9  11
ENDBRANCH   8   9
ENDBRANCH   5   8
ENDBRANCH   1   2
BRANCH   1  18
ATOM     18  N   UNL     1      47.644   7.128  11.308  0.00  0.00    +0.000 NA
ATOM     19  H   UNL     1      48.192   6.291  11.507  0.00  0.00    +0.000 HD
BRANCH  18  21
ATOM     20  C   UNL     1      45.421   8.188  11.710  0.00  0.00    +0.000 C 
ATOM     21  C   UNL     1      46.281   6.922  11.820  0.00  0.00    +0.000 C 
BRANCH  21  22
ATOM     22  C   UNL     1      45.684   5.787  11.008  0.00  0.00    +0.000 A 
ATOM     23  C   UNL     1      45.845   5.654   9.636  0.00  0.00    +0.000 A 
ATOM     24  S   UNL     1      45.045   4.298   8.984  0.00  0.00    +0.000 S 
ATOM     25  C   UNL     1      44.462   3.833  10.513  0.00  0.00    +0.000 A 
ATOM     26  N   UNL     1      43.689   2.723  10.659  0.00  0.00    +0.000 NA
ATOM     27  C   UNL     1      43.323   2.488  11.874  0.00  0.00    +0.000 A 
ATOM     28  N   UNL     1      43.658   3.260  12.956  0.00  0.00    +0.000 N 
ATOM     29  C   UNL     1      44.435   4.396  12.860  0.00  0.00    +0.000 A 
ATOM     30  O   UNL     1      44.714   5.063  13.851  0.00  0.00    +0.000 OA
ATOM     31  C   UNL     1      44.873   4.701  11.510  0.00  0.00    +0.000 A 
ATOM     32  H   UNL     1      43.339   3.017  13.883  0.00  0.00    +0.000 HD
ENDBRANCH  21  22
ENDBRANCH  18  21
ENDBRANCH   1  18
TORSDOF 8
ENDMDL
MODEL 8
REMARK VINA RESULT:    -6.596      3.898      8.795
REMARK INTER + INTRA:         -10.315
REMARK INTER:                  -8.304
REMARK INTRA:                  -2.011
REMARK UNBOUND:                -0.635
REMARK  Name = 
REMARK  9 active torsions:
REMARK  status: ('A' for Active; 'I' for Inactive)
REMARK    1  A    between atoms: C_1  and  C_2
REMARK    2  A    between atoms: C_2  and  N_3
REMARK    3  A    between atoms: C_2  and  C_19
REMARK    4  A    between atoms: N_3  and  C_4
REMARK    5  A    between atoms: C_4  and  C_5
REMARK    6  A    between atoms: C_8  and  C_9
REMARK    7  A    between atoms: C_9  and  N_10
REMARK    8  A    between atoms: N_10  and  C_11
REMARK    9  A    between atoms: C_11  and  C_12
REMARK                            x       y       z     vdW  Elec       q    Type
REMARK                         _______ _______ _______ _____ _____    ______ ____
ROOT
ATOM      1  C   UNL     1      48.060   8.989  14.191  0.00  0.00    +0.000 C 
ENDROOT
BRANCH   1   2
ATOM      2  C   UNL     1      48.873   8.359  15.285  0.00  0.00    +0.000 A 
ATOM      3  C   UNL     1      49.884   7.429  15.015  0.00  0.00    +0.000 A 
ATOM      4  C   UNL     1      50.638   6.898  16.059  0.00  0.00    +0.000 A 
ATOM      5  C   UNL     1      50.357   7.302  17.361  0.00  0.00    +0.000 A 
ATOM      6  N   UNL     1      49.388   8.216  17.638  0.00  0.00    +0.000 NA
ATOM      7  C   UNL     1      48.676   8.718  16.610  0.00  0.00    +0.000 A 
BRANCH   5   8
ATOM      8  C   UNL     1      51.156   6.741  18.529  0.00  0.00    +0.000 C 
BRANCH   8   9
ATOM      9  N   UNL     1      50.289   6.039  19.472  0.00  0.00    +0.000 NA
ATOM     10  H   UNL     1      49.404   6.531  19.557  0.00  0.00    +0.000 HD
BRANCH   9  11
ATOM     11  C   UNL     1      50.125   4.623  19.214  0.00  0.00    +0.000 C 
BRANCH  11  12
ATOM     12  C   UNL     1      48.629   4.271  19.327  0.00  0.00    +0.000 C 
ATOM     13  C   UNL     1      48.067   3.627  18.061  0.00  0.00    +0.000 C 
ATOM     14  C   UNL     1      47.698   4.826  17.217  0.00  0.00    +0.000 C 
ATOM     15  N   UNL     1      47.106   5.768  18.178  0.00  0.00    +0.000 NA
ATOM     16  C   UNL     1      47.768   5.527  19.473  0.00  0.00    +0.000 C 
ATOM     17  H   UNL     1      46.118   5.533  18.278  0.00  0.00    +0.000 HD
ENDBRANCH  11  12
ENDBRANCH   9  11
ENDBRANCH   8   9
ENDBRANCH   5   8
ENDBRANCH   1   2
BRANCH   1  18
ATOM     18  N   UNL     1      46.782   8.302  14.017  0.00  0.00    +0.000 NA
ATOM     19  H   UNL     1      46.028   8.974  14.163  0.00  0.00    +0.000 HD
BRANCH  18  21
ATOM     20  C   UNL     1      47.849   7.927  11.792  0.00  0.00    +0.000 C 
ATOM     21  C   UNL     1      46.618   7.707  12.682  0.00  0.00    +0.000 C 
BRANCH  21  22
ATOM     22  C   UNL     1      46.364   6.227  12.900  0.00  0.00    +0.000 A 
ATOM     23  C   UNL     1      47.240   5.386  13.571  0.00  0.00    +0.000 A 
ATOM     24  S   UNL     1      46.710   3.768  13.646  0.00  0.00    +0.000 S 
ATOM     25  C   UNL     1      45.284   4.134  12.793  0.00  0.00    +0.000 A 
ATOM     26  N   UNL     1      44.368   3.168  12.514  0.00  0.00    +0.000 NA
ATOM     27  C   UNL     1      43.334   3.588  11.866  0.00  0.00    +0.000 A 
ATOM     28  N   UNL     1      43.133   4.885  11.470  0.00  0.00    +0.000 N 
ATOM     29  C   UNL     1      44.032   5.900  11.725  0.00  0.00    +0.000 A 
ATOM     30  O   UNL     1      43.819   7.049  11.354  0.00  0.00    +0.000 OA
ATOM     31  C   UNL     1      45.213   5.474  12.455  0.00  0.00    +0.000 A 
ATOM     32  H   UNL     1      42.298   5.148  10.967  0.00  0.00    +0.000 HD
ENDBRANCH  21  22
ENDBRANCH  18  21
ENDBRANCH   1  18
TORSDOF 8
ENDMDL
MODEL 9
REMARK VINA RESULT:    -6.537      3.382      8.634
REMARK INTER + INTRA:         -10.229
REMARK INTER:                  -9.364
REMARK INTRA:                  -0.865
REMARK UNBOUND:                -0.635
REMARK  Name = 
REMARK  9 active torsions:
REMARK  status: ('A' for Active; 'I' for Inactive)
REMARK    1  A    between atoms: C_1  and  C_2
REMARK    2  A    between atoms: C_2  and  N_3
REMARK    3  A    between atoms: C_2  and  C_19
REMARK    4  A    between atoms: N_3  and  C_4
REMARK    5  A    between atoms: C_4  and  C_5
REMARK    6  A    between atoms: C_8  and  C_9
REMARK    7  A    between atoms: C_9  and  N_10
REMARK    8  A    between atoms: N_10  and  C_11
REMARK    9  A    between atoms: C_11  and  C_12
REMARK                            x       y       z     vdW  Elec       q    Type
REMARK                         _______ _______ _______ _____ _____    ______ ____
ROOT
ATOM      1  C   UNL     1      47.453   7.690  11.979  0.00  0.00    +0.000 C 
ENDROOT
BRANCH   1   2
ATOM      2  C   UNL     1      48.025   7.744  13.366  0.00  0.00    +0.000 A 
ATOM      3  C   UNL     1      47.850   8.857  14.197  0.00  0.00    +0.000 A 
ATOM      4  C   UNL     1      48.367   8.850  15.491  0.00  0.00    +0.000 A 
ATOM      5  C   UNL     1      49.062   7.726  15.926  0.00  0.00    +0.000 A 
ATOM      6  N   UNL     1      49.228   6.630  15.136  0.00  0.00    +0.000 NA
ATOM      7  C   UNL     1      48.714   6.662  13.891  0.00  0.00    +0.000 A 
BRANCH   5   8
ATOM      8  C   UNL     1      49.646   7.680  17.331  0.00  0.00    +0.000 C 
BRANCH   8   9
ATOM      9  N   UNL     1      48.908   6.748  18.179  0.00  0.00    +0.000 NA
ATOM     10  H   UNL     1      47.914   6.820  17.985  0.00  0.00    +0.000 HD
BRANCH   9  11
ATOM     11  C   UNL     1      49.391   5.383  18.151  0.00  0.00    +0.000 C 
BRANCH  11  12
ATOM     12  C   UNL     1      48.199   4.432  18.370  0.00  0.00    +0.000 C 
ATOM     13  C   UNL     1      48.587   2.956  18.303  0.00  0.00    +0.000 C 
ATOM     14  C   UNL     1      48.519   2.665  16.821  0.00  0.00    +0.000 C 
ATOM     15  N   UNL     1      47.314   3.377  16.373  0.00  0.00    +0.000 NA
ATOM     16  C   UNL     1      47.170   4.558  17.245  0.00  0.00    +0.000 C 
ATOM     17  H   UNL     1      46.513   2.766  16.532  0.00  0.00    +0.000 HD
ENDBRANCH  11  12
ENDBRANCH   9  11
ENDBRANCH   8   9
ENDBRANCH   5   8
ENDBRANCH   1   2
BRANCH   1  18
ATOM     18  N   UNL     1      46.740   6.436  11.747  0.00  0.00    +0.000 NA
ATOM     19  H   UNL     1      47.169   5.706  12.316  0.00  0.00    +0.000 HD
BRANCH  18  21
ATOM     20  C   UNL     1      44.577   7.595  11.293  0.00  0.00    +0.000 C 
ATOM     21  C   UNL     1      45.312   6.507  12.088  0.00  0.00    +0.000 C 
BRANCH  21  22
ATOM     22  C   UNL     1      44.730   5.136  11.797  0.00  0.00    +0.000 A 
ATOM     23  C   UNL     1      44.002   4.398  12.720  0.00  0.00    +0.000 A 
ATOM     24  S   UNL     1      43.491   2.883  12.129  0.00  0.00    +0.000 S 
ATOM     25  C   UNL     1      44.216   3.163  10.615  0.00  0.00    +0.000 A 
ATOM     26  N   UNL     1      44.146   2.234   9.624  0.00  0.00    +0.000 NA
ATOM     27  C   UNL     1      44.735   2.581   8.529  0.00  0.00    +0.000 A 
ATOM     28  N   UNL     1      45.388   3.770   8.335  0.00  0.00    +0.000 N 
ATOM     29  C   UNL     1      45.490   4.743   9.309  0.00  0.00    +0.000 A 
ATOM     30  O   UNL     1      46.084   5.795   9.100  0.00  0.00    +0.000 OA
ATOM     31  C   UNL     1      44.840   4.397  10.560  0.00  0.00    +0.000 A 
ATOM     32  H   UNL     1      45.827   3.981   7.450  0.00  0.00    +0.000 HD
ENDBRANCH  21  22
ENDBRANCH  18  21
ENDBRANCH   1  18
TORSDOF 8
ENDMDL
