MODEL 1
REMARK VINA RESULT:    -8.169      0.000      0.000
REMARK INTER + INTRA:         -13.378
REMARK INTER:                 -11.989
REMARK INTRA:                  -1.389
REMARK UNBOUND:                -1.389
REMARK  Name = 
REMARK  10 active torsions:
REMARK  status: ('A' for Active; 'I' for Inactive)
REMARK    1  A    between atoms: C_1  and  O_2
REMARK    2  A    between atoms: O_2  and  C_3
REMARK    3  A    between atoms: C_10  and  C_11
REMARK    4  A    between atoms: N_13  and  C_14
REMARK    5  A    between atoms: C_14  and  C_15
REMARK    6  A    between atoms: C_18  and  C_19
REMARK    7  A    between atoms: C_19  and  N_20
REMARK    8  A    between atoms: N_20  and  C_21
REMARK    9  A    between atoms: N_20  and  C_22
REMARK   10  A    between atoms: C_22  and  C_23
REMARK                            x       y       z     vdW  Elec       q    Type
REMARK                         _______ _______ _______ _____ _____    ______ ____
ROOT
ATOM      1  C   UNL     1      48.054   6.642  13.077  0.00  0.00    +0.000 A 
ATOM      2  C   UNL     1      47.320   5.665  13.757  0.00  0.00    +0.000 A 
ATOM      3  C   UNL     1      46.147   5.149  13.200  0.00  0.00    +0.000 A 
ATOM      4  C   UNL     1      45.681   5.608  11.960  0.00  0.00    +0.000 A 
ATOM      5  C   UNL     1      46.439   6.561  11.266  0.00  0.00    +0.000 A 
ATOM      6  C   UNL     1      47.619   7.067  11.815  0.00  0.00    +0.000 A 
ENDROOT
BRANCH   1   7
ATOM      7  C   UNL     1      49.334   7.184  13.667  0.00  0.00    +0.000 C 
BRANCH   7  10
ATOM      8  C   UNL     1      50.431   7.181  15.871  0.00  0.00    +0.000 C 
ATOM      9  O   UNL     1      51.537   7.343  15.360  0.00  0.00    +0.000 OA
ATOM     10  N   UNL     1      49.301   7.093  15.103  0.00  0.00    +0.000 N 
ATOM     11  H   UNL     1      48.403   6.938  15.538  0.00  0.00    +0.000 HD
BRANCH   8  19
ATOM     12  C   UNL     1      49.041   4.786  17.922  0.00  0.00    +0.000 A 
ATOM     13  N   UNL     1      48.606   4.015  18.939  0.00  0.00    +0.000 NA
ATOM     14  C   UNL     1      48.769   4.465  20.186  0.00  0.00    +0.000 A 
ATOM     15  N   UNL     1      49.324   5.618  20.550  0.00  0.00    +0.000 NA
ATOM     16  C   UNL     1      49.755   6.349  19.507  0.00  0.00    +0.000 A 
ATOM     17  S   UNL     1      50.485   7.856  19.792  0.00  0.00    +0.000 S 
ATOM     18  C   UNL     1      50.722   8.109  18.129  0.00  0.00    +0.000 A 
ATOM     19  C   UNL     1      50.264   7.068  17.329  0.00  0.00    +0.000 A 
ATOM     20  C   UNL     1      49.674   6.020  18.159  0.00  0.00    +0.000 A 
BRANCH  12  22
ATOM     21  C   UNL     1      47.818   3.355  16.546  0.00  0.00    +0.000 C 
ATOM     22  O   UNL     1      48.879   4.304  16.640  0.00  0.00    +0.000 OA
ENDBRANCH  12  22
ENDBRANCH   8  19
ENDBRANCH   7  10
ENDBRANCH   1   7
BRANCH   4  23
ATOM     23  C   UNL     1      44.375   5.097  11.385  0.00  0.00    +0.000 C 
BRANCH  23  24
ATOM     24  N   UNL     1      44.473   3.735  10.821  0.00  0.00    +0.000 NA
ATOM     25  C   UNL     1      43.532   2.818  11.481  0.00  0.00    +0.000 C 
BRANCH  24  26
ATOM     26  C   UNL     1      44.187   3.744   9.374  0.00  0.00    +0.000 C 
BRANCH  26  27
ATOM     27  C   UNL     1      45.270   3.131   8.512  0.00  0.00    +0.000 A 
ATOM     28  C   UNL     1      46.087   3.935   7.700  0.00  0.00    +0.000 A 
ATOM     29  C   UNL     1      47.149   3.378   6.985  0.00  0.00    +0.000 A 
ATOM     30  C   UNL     1      47.399   2.009   7.062  0.00  0.00    +0.000 A 
ATOM     31  C   UNL     1      46.566   1.205   7.830  0.00  0.00    +0.000 A 
ATOM     32  F   UNL     1      46.794  -0.113   7.891  0.00  0.00    +0.000 F 
ATOM     33  C   UNL     1      45.509   1.750   8.552  0.00  0.00    +0.000 A 
ENDBRANCH  26  27
ENDBRANCH  24  26
ENDBRANCH  23  24
ENDBRANCH   4  23
TORSDOF 8
ENDMDL
MODEL 2
REMARK VINA RESULT:    -7.315      1.691      2.012
REMARK INTER + INTRA:         -12.126
REMARK INTER:                 -10.568
REMARK INTRA:                  -1.558
REMARK UNBOUND:                -1.389
REMARK  Name = 
REMARK  10 active torsions:
REMARK  status: ('A' for Active; 'I' for Inactive)
REMARK    1  A    between atoms: C_1  and  O_2
REMARK    2  A    between atoms: O_2  and  C_3
REMARK    3  A    between atoms: C_10  and  C_11
REMARK    4  A    between atoms: N_13  and  C_14
REMARK    5  A    between atoms: C_14  and  C_15
REMARK    6  A    between atoms: C_18  and  C_19
REMARK    7  A    between atoms: C_19  and  N_20
REMARK    8  A    between atoms: N_20  and  C_21
REMARK    9  A    between atoms: N_20  and  C_22
REMARK   10  A    between atoms: C_22  and  C_23
REMARK                            x       y       z     vdW  Elec       q    Type
REMARK                         _______ _______ _______ _____ _____    ______ ____
ROOT
ATOM      1  C   UNL     1      47.681   8.170  12.860  0.00  0.00    +0.000 A 
ATOM      2  C   UNL     1      47.719   6.838  12.437  0.00  0.00    +0.000 A 
ATOM      3  C   UNL     1      46.561   6.213  11.968  0.00  0.00    +0.000 A 
ATOM      4  C   UNL     1      45.342   6.904  11.925  0.00  0.00    +0.000 A 
ATOM      5  C   UNL     1      45.316   8.250  12.317  0.00  0.00    +0.000 A 
ATOM      6  C   UNL     1      46.477   8.880  12.773  0.00  0.00    +0.000 A 
ENDROOT
BRANCH   1   7
ATOM      7  C   UNL     1      48.937   8.853  13.346  0.00  0.00    +0.000 C 
BRANCH   7  10
ATOM      8  C   UNL     1      49.434   8.499  15.730  0.00  0.00    +0.000 C 
ATOM      9  O   UNL     1      48.830   9.522  16.045  0.00  0.00    +0.000 OA
ATOM     10  N   UNL     1      49.530   8.106  14.423  0.00  0.00    +0.000 N 
ATOM     11  H   UNL     1      50.049   7.274  14.180  0.00  0.00    +0.000 HD
BRANCH   8  19
ATOM     12  C   UNL     1      49.133   5.175  16.587  0.00  0.00    +0.000 A 
ATOM     13  N   UNL     1      49.244   3.931  17.097  0.00  0.00    +0.000 NA
ATOM     14  C   UNL     1      50.120   3.730  18.085  0.00  0.00    +0.000 A 
ATOM     15  N   UNL     1      50.916   4.639  18.640  0.00  0.00    +0.000 NA
ATOM     16  C   UNL     1      50.784   5.861  18.095  0.00  0.00    +0.000 A 
ATOM     17  S   UNL     1      51.723   7.145  18.690  0.00  0.00    +0.000 S 
ATOM     18  C   UNL     1      51.031   8.229  17.580  0.00  0.00    +0.000 A 
ATOM     19  C   UNL     1      50.088   7.649  16.739  0.00  0.00    +0.000 A 
ATOM     20  C   UNL     1      49.934   6.231  17.059  0.00  0.00    +0.000 A 
BRANCH  12  22
ATOM     21  C   UNL     1      47.220   4.365  15.530  0.00  0.00    +0.000 C 
ATOM     22  O   UNL     1      48.235   5.367  15.559  0.00  0.00    +0.000 OA
ENDBRANCH  12  22
ENDBRANCH   8  19
ENDBRANCH   7  10
ENDBRANCH   1   7
BRANCH   4  23
ATOM     23  C   UNL     1      44.071   6.210  11.479  0.00  0.00    +0.000 C 
BRANCH  23  24
ATOM     24  N   UNL     1      44.226   4.750  11.309  0.00  0.00    +0.000 NA
ATOM     25  C   UNL     1      43.491   4.013  12.348  0.00  0.00    +0.000 C 
BRANCH  24  26
ATOM     26  C   UNL     1      43.733   4.321   9.987  0.00  0.00    +0.000 C 
BRANCH  26  27
ATOM     27  C   UNL     1      44.745   3.570   9.148  0.00  0.00    +0.000 A 
ATOM     28  C   UNL     1      45.004   2.209   9.379  0.00  0.00    +0.000 A 
ATOM     29  C   UNL     1      45.863   1.495   8.539  0.00  0.00    +0.000 A 
ATOM     30  C   UNL     1      46.483   2.136   7.469  0.00  0.00    +0.000 A 
ATOM     31  C   UNL     1      46.262   3.492   7.265  0.00  0.00    +0.000 A 
ATOM     32  F   UNL     1      46.871   4.115   6.247  0.00  0.00    +0.000 F 
ATOM     33  C   UNL     1      45.404   4.212   8.090  0.00  0.00    +0.000 A 
ENDBRANCH  26  27
ENDBRANCH  24  26
ENDBRANCH  23  24
ENDBRANCH   4  23
TORSDOF 8
ENDMDL
MODEL 3
REMARK VINA RESULT:    -7.097      1.569      2.126
REMARK INTER + INTRA:         -11.805
REMARK INTER:                 -10.729
REMARK INTRA:                  -1.076
REMARK UNBOUND:                -1.389
REMARK  Name = 
REMARK  10 active torsions:
REMARK  status: ('A' for Active; 'I' for Inactive)
REMARK    1  A    between atoms: C_1  and  O_2
REMARK    2  A    between atoms: O_2  and  C_3
REMARK    3  A    between atoms: C_10  and  C_11
REMARK    4  A    between atoms: N_13  and  C_14
REMARK    5  A    between atoms: C_14  and  C_15
REMARK    6  A    between atoms: C_18  and  C_19
REMARK    7  A    between atoms: C_19  and  N_20
REMARK    8  A    between atoms: N_20  and  C_21
REMARK    9  A    between atoms: N_20  and  C_22
REMARK   10  A    between atoms: C_22  and  C_23
REMARK                            x       y       z     vdW  Elec       q    Type
REMARK                         _______ _______ _______ _____ _____    ______ ____
ROOT
ATOM      1  C   UNL     1      48.106   6.786  13.006  0.00  0.00    +0.000 A 
ATOM      2  C   UNL     1      47.495   7.403  11.910  0.00  0.00    +0.000 A 
ATOM      3  C   UNL     1      46.277   6.926  11.419  0.00  0.00    +0.000 A 
ATOM      4  C   UNL     1      45.655   5.816  12.007  0.00  0.00    +0.000 A 
ATOM      5  C   UNL     1      46.253   5.222  13.128  0.00  0.00    +0.000 A 
ATOM      6  C   UNL     1      47.464   5.708  13.627  0.00  0.00    +0.000 A 
ENDROOT
BRANCH   1   7
ATOM      7  C   UNL     1      49.411   7.316  13.551  0.00  0.00    +0.000 C 
BRANCH   7  10
ATOM      8  C   UNL     1      50.515   7.319  15.751  0.00  0.00    +0.000 C 
ATOM      9  O   UNL     1      51.049   8.403  15.521  0.00  0.00    +0.000 OA
ATOM     10  N   UNL     1      49.697   6.723  14.831  0.00  0.00    +0.000 N 
ATOM     11  H   UNL     1      49.284   5.822  15.027  0.00  0.00    +0.000 HD
BRANCH   8  19
ATOM     12  C   UNL     1      49.343   7.780  18.958  0.00  0.00    +0.000 A 
ATOM     13  N   UNL     1      49.019   7.707  20.265  0.00  0.00    +0.000 NA
ATOM     14  C   UNL     1      49.556   6.724  20.993  0.00  0.00    +0.000 A 
ATOM     15  N   UNL     1      50.395   5.785  20.566  0.00  0.00    +0.000 NA
ATOM     16  C   UNL     1      50.681   5.887  19.257  0.00  0.00    +0.000 A 
ATOM     17  S   UNL     1      51.746   4.770  18.547  0.00  0.00    +0.000 S 
ATOM     18  C   UNL     1      51.588   5.513  17.027  0.00  0.00    +0.000 A 
ATOM     19  C   UNL     1      50.732   6.608  17.021  0.00  0.00    +0.000 A 
ATOM     20  C   UNL     1      50.199   6.836  18.363  0.00  0.00    +0.000 A 
BRANCH  12  22
ATOM     21  C   UNL     1      47.520   9.220  18.750  0.00  0.00    +0.000 C 
ATOM     22  O   UNL     1      48.771   8.792  18.214  0.00  0.00    +0.000 OA
ENDBRANCH  12  22
ENDBRANCH   8  19
ENDBRANCH   7  10
ENDBRANCH   1   7
BRANCH   4  23
ATOM     23  C   UNL     1      44.367   5.255  11.436  0.00  0.00    +0.000 C 
BRANCH  23  24
ATOM     24  N   UNL     1      44.506   3.881  10.910  0.00  0.00    +0.000 NA
ATOM     25  C   UNL     1      43.626   2.947  11.628  0.00  0.00    +0.000 C 
BRANCH  24  26
ATOM     26  C   UNL     1      44.174   3.834   9.474  0.00  0.00    +0.000 C 
BRANCH  26  27
ATOM     27  C   UNL     1      45.230   3.187   8.603  0.00  0.00    +0.000 A 
ATOM     28  C   UNL     1      46.054   3.964   7.771  0.00  0.00    +0.000 A 
ATOM     29  C   UNL     1      47.093   3.375   7.046  0.00  0.00    +0.000 A 
ATOM     30  C   UNL     1      47.312   2.002   7.134  0.00  0.00    +0.000 A 
ATOM     31  C   UNL     1      46.473   1.226   7.923  0.00  0.00    +0.000 A 
ATOM     32  F   UNL     1      46.671  -0.097   7.994  0.00  0.00    +0.000 F 
ATOM     33  C   UNL     1      45.439   1.802   8.654  0.00  0.00    +0.000 A 
ENDBRANCH  26  27
ENDBRANCH  24  26
ENDBRANCH  23  24
ENDBRANCH   4  23
TORSDOF 8
ENDMDL
MODEL 4
REMARK VINA RESULT:    -7.019      3.794      8.425
REMARK INTER + INTRA:         -11.691
REMARK INTER:                  -9.782
REMARK INTRA:                  -1.910
REMARK UNBOUND:                -1.389
REMARK  Name = 
REMARK  10 active torsions:
REMARK  status: ('A' for Active; 'I' for Inactive)
REMARK    1  A    between atoms: C_1  and  O_2
REMARK    2  A    between atoms: O_2  and  C_3
REMARK    3  A    between atoms: C_10  and  C_11
REMARK    4  A    between atoms: N_13  and  C_14
REMARK    5  A    between atoms: C_14  and  C_15
REMARK    6  A    between atoms: C_18  and  C_19
REMARK    7  A    between atoms: C_19  and  N_20
REMARK    8  A    between atoms: N_20  and  C_21
REMARK    9  A    between atoms: N_20  and  C_22
REMARK   10  A    between atoms: C_22  and  C_23
REMARK                            x       y       z     vdW  Elec       q    Type
REMARK                         _______ _______ _______ _____ _____    ______ ____
ROOT
ATOM      1  C   UNL     1      48.465   7.959  13.401  0.00  0.00    +0.000 A 
ATOM      2  C   UNL     1      47.996   9.005  14.202  0.00  0.00    +0.000 A 
ATOM      3  C   UNL     1      48.110   8.935  15.593  0.00  0.00    +0.000 A 
ATOM      4  C   UNL     1      48.684   7.813  16.208  0.00  0.00    +0.000 A 
ATOM      5  C   UNL     1      49.185   6.783  15.399  0.00  0.00    +0.000 A 
ATOM      6  C   UNL     1      49.084   6.859  14.008  0.00  0.00    +0.000 A 
ENDROOT
BRANCH   1   7
ATOM      7  C   UNL     1      48.363   8.045  11.897  0.00  0.00    +0.000 C 
BRANCH   7  10
ATOM      8  C   UNL     1      46.258   6.924  11.285  0.00  0.00    +0.000 C 
ATOM      9  O   UNL     1      45.596   7.896  11.642  0.00  0.00    +0.000 OA
ATOM     10  N   UNL     1      47.623   6.923  11.380  0.00  0.00    +0.000 N 
ATOM     11  H   UNL     1      48.151   6.107  11.103  0.00  0.00    +0.000 HD
BRANCH   8  19
ATOM     12  C   UNL     1      44.510   4.323  12.715  0.00  0.00    +0.000 A 
ATOM     13  N   UNL     1      43.778   3.225  12.998  0.00  0.00    +0.000 NA
ATOM     14  C   UNL     1      43.428   2.424  11.988  0.00  0.00    +0.000 A 
ATOM     15  N   UNL     1      43.725   2.588  10.702  0.00  0.00    +0.000 NA
ATOM     16  C   UNL     1      44.443   3.699  10.463  0.00  0.00    +0.000 A 
ATOM     17  S   UNL     1      44.917   4.059   8.872  0.00  0.00    +0.000 S 
ATOM     18  C   UNL     1      45.702   5.479   9.376  0.00  0.00    +0.000 A 
ATOM     19  C   UNL     1      45.620   5.713  10.744  0.00  0.00    +0.000 A 
ATOM     20  C   UNL     1      44.874   4.637  11.394  0.00  0.00    +0.000 A 
BRANCH  12  22
ATOM     21  C   UNL     1      46.134   4.831  14.310  0.00  0.00    +0.000 C 
ATOM     22  O   UNL     1      44.854   5.148  13.765  0.00  0.00    +0.000 OA
ENDBRANCH  12  22
ENDBRANCH   8  19
ENDBRANCH   7  10
ENDBRANCH   1   7
BRANCH   4  23
ATOM     23  C   UNL     1      48.749   7.704  17.718  0.00  0.00    +0.000 C 
BRANCH  23  24
ATOM     24  N   UNL     1      49.905   6.921  18.203  0.00  0.00    +0.000 NA
ATOM     25  C   UNL     1      50.826   7.761  18.982  0.00  0.00    +0.000 C 
BRANCH  24  26
ATOM     26  C   UNL     1      49.460   5.798  19.049  0.00  0.00    +0.000 C 
BRANCH  26  27
ATOM     27  C   UNL     1      49.179   4.514  18.297  0.00  0.00    +0.000 A 
ATOM     28  C   UNL     1      47.867   4.160  17.940  0.00  0.00    +0.000 A 
ATOM     29  C   UNL     1      47.622   3.027  17.160  0.00  0.00    +0.000 A 
ATOM     30  C   UNL     1      48.683   2.228  16.739  0.00  0.00    +0.000 A 
ATOM     31  C   UNL     1      49.978   2.553  17.127  0.00  0.00    +0.000 A 
ATOM     32  F   UNL     1      50.997   1.776  16.738  0.00  0.00    +0.000 F 
ATOM     33  C   UNL     1      50.234   3.682  17.898  0.00  0.00    +0.000 A 
ENDBRANCH  26  27
ENDBRANCH  24  26
ENDBRANCH  23  24
ENDBRANCH   4  23
TORSDOF 8
ENDMDL
MODEL 5
REMARK VINA RESULT:    -7.011      4.377      6.590
REMARK INTER + INTRA:         -11.679
REMARK INTER:                 -10.544
REMARK INTRA:                  -1.136
REMARK UNBOUND:                -1.389
REMARK  Name = 
REMARK  10 active torsions:
REMARK  status: ('A' for Active; 'I' for Inactive)
REMARK    1  A    between atoms: C_1  and  O_2
REMARK    2  A    between atoms: O_2  and  C_3
REMARK    3  A    between atoms: C_10  and  C_11
REMARK    4  A    between atoms: N_13  and  C_14
REMARK    5  A    between atoms: C_14  and  C_15
REMARK    6  A    between atoms: C_18  and  C_19
REMARK    7  A    between atoms: C_19  and  N_20
REMARK    8  A    between atoms: N_20  and  C_21
REMARK    9  A    between atoms: N_20  and  C_22
REMARK   10  A    between atoms: C_22  and  C_23
REMARK                            x       y       z     vdW  Elec       q    Type
REMARK                         _______ _______ _______ _____ _____    ______ ____
ROOT
ATOM      1  C   UNL     1      48.161   6.917  12.792  0.00  0.00    +0.000 A 
ATOM      2  C   UNL     1      47.360   7.493  11.801  0.00  0.00    +0.000 A 
ATOM      3  C   UNL     1      46.109   6.949  11.500  0.00  0.00    +0.000 A 
ATOM      4  C   UNL     1      45.643   5.811  12.174  0.00  0.00    +0.000 A 
ATOM      5  C   UNL     1      46.434   5.258  13.190  0.00  0.00    +0.000 A 
ATOM      6  C   UNL     1      47.678   5.811  13.502  0.00  0.00    +0.000 A 
ENDROOT
BRANCH   1   7
ATOM      7  C   UNL     1      49.504   7.518  13.134  0.00  0.00    +0.000 C 
BRANCH   7  10
ATOM      8  C   UNL     1      51.344   8.597  11.906  0.00  0.00    +0.000 C 
ATOM      9  O   UNL     1      52.155   8.284  12.775  0.00  0.00    +0.000 OA
ATOM     10  N   UNL     1      50.023   8.256  12.013  0.00  0.00    +0.000 N 
ATOM     11  H   UNL     1      49.365   8.541  11.301  0.00  0.00    +0.000 HD
BRANCH   8  19
ATOM     12  C   UNL     1      53.459   7.925   9.271  0.00  0.00    +0.000 A 
ATOM     13  N   UNL     1      54.182   7.914   8.132  0.00  0.00    +0.000 NA
ATOM     14  C   UNL     1      54.128   8.988   7.340  0.00  0.00    +0.000 A 
ATOM     15  N   UNL     1      53.426  10.097   7.550  0.00  0.00    +0.000 NA
ATOM     16  C   UNL     1      52.710  10.062   8.688  0.00  0.00    +0.000 A 
ATOM     17  S   UNL     1      51.758  11.403   9.115  0.00  0.00    +0.000 S 
ATOM     18  C   UNL     1      51.227  10.634  10.534  0.00  0.00    +0.000 A 
ATOM     19  C   UNL     1      51.748   9.357  10.712  0.00  0.00    +0.000 A 
ATOM     20  C   UNL     1      52.646   9.023   9.608  0.00  0.00    +0.000 A 
BRANCH  12  22
ATOM     21  C   UNL     1      53.799   5.620   9.333  0.00  0.00    +0.000 C 
ATOM     22  O   UNL     1      53.513   6.805  10.073  0.00  0.00    +0.000 OA
ENDBRANCH  12  22
ENDBRANCH   8  19
ENDBRANCH   7  10
ENDBRANCH   1   7
BRANCH   4  23
ATOM     23  C   UNL     1      44.316   5.180  11.803  0.00  0.00    +0.000 C 
BRANCH  23  24
ATOM     24  N   UNL     1      44.445   3.807  11.271  0.00  0.00    +0.000 NA
ATOM     25  C   UNL     1      43.660   2.853  12.068  0.00  0.00    +0.000 C 
BRANCH  24  26
ATOM     26  C   UNL     1      43.987   3.742   9.871  0.00  0.00    +0.000 C 
BRANCH  26  27
ATOM     27  C   UNL     1      45.031   3.259   8.887  0.00  0.00    +0.000 A 
ATOM     28  C   UNL     1      45.726   4.167   8.070  0.00  0.00    +0.000 A 
ATOM     29  C   UNL     1      46.759   3.730   7.236  0.00  0.00    +0.000 A 
ATOM     30  C   UNL     1      47.099   2.379   7.200  0.00  0.00    +0.000 A 
ATOM     31  C   UNL     1      46.385   1.474   7.975  0.00  0.00    +0.000 A 
ATOM     32  F   UNL     1      46.700   0.173   7.927  0.00  0.00    +0.000 F 
ATOM     33  C   UNL     1      45.359   1.898   8.813  0.00  0.00    +0.000 A 
ENDBRANCH  26  27
ENDBRANCH  24  26
ENDBRANCH  23  24
ENDBRANCH   4  23
TORSDOF 8
ENDMDL
MODEL 6
REMARK VINA RESULT:    -6.925      1.968      2.333
REMARK INTER + INTRA:         -11.554
REMARK INTER:                 -10.196
REMARK INTRA:                  -1.358
REMARK UNBOUND:                -1.389
REMARK  Name = 
REMARK  10 active torsions:
REMARK  status: ('A' for Active; 'I' for Inactive)
REMARK    1  A    between atoms: C_1  and  O_2
REMARK    2  A    between atoms: O_2  and  C_3
REMARK    3  A    between atoms: C_10  and  C_11
REMARK    4  A    between atoms: N_13  and  C_14
REMARK    5  A    between atoms: C_14  and  C_15
REMARK    6  A    between atoms: C_18  and  C_19
REMARK    7  A    between atoms: C_19  and  N_20
REMARK    8  A    between atoms: N_20  and  C_21
REMARK    9  A    between atoms: N_20  and  C_22
REMARK   10  A    between atoms: C_22  and  C_23
REMARK                            x       y       z     vdW  Elec       q    Type
REMARK                         _______ _______ _______ _____ _____    ______ ____
ROOT
ATOM      1  C   UNL     1      48.517   8.381  12.893  0.00  0.00    +0.000 A 
ATOM      2  C   UNL     1      47.312   8.878  13.401  0.00  0.00    +0.000 A 
ATOM      3  C   UNL     1      46.101   8.264  13.073  0.00  0.00    +0.000 A 
ATOM      4  C   UNL     1      46.070   7.150  12.223  0.00  0.00    +0.000 A 
ATOM      5  C   UNL     1      47.283   6.633  11.745  0.00  0.00    +0.000 A 
ATOM      6  C   UNL     1      48.495   7.238  12.084  0.00  0.00    +0.000 A 
ENDROOT
BRANCH   1   7
ATOM      7  C   UNL     1      49.828   9.030  13.265  0.00  0.00    +0.000 C 
BRANCH   7  10
ATOM      8  C   UNL     1      50.715   8.096  15.362  0.00  0.00    +0.000 C 
ATOM      9  O   UNL     1      50.056   8.886  16.035  0.00  0.00    +0.000 OA
ATOM     10  N   UNL     1      50.656   8.107  13.995  0.00  0.00    +0.000 N 
ATOM     11  H   UNL     1      51.221   7.465  13.458  0.00  0.00    +0.000 HD
BRANCH   8  19
ATOM     12  C   UNL     1      50.155   5.224  17.181  0.00  0.00    +0.000 A 
ATOM     13  N   UNL     1      50.225   4.068  17.873  0.00  0.00    +0.000 NA
ATOM     14  C   UNL     1      51.434   3.577  18.159  0.00  0.00    +0.000 A 
ATOM     15  N   UNL     1      52.607   4.112  17.834  0.00  0.00    +0.000 NA
ATOM     16  C   UNL     1      52.492   5.255  17.136  0.00  0.00    +0.000 A 
ATOM     17  S   UNL     1      53.895   6.077  16.644  0.00  0.00    +0.000 S 
ATOM     18  C   UNL     1      52.977   7.293  15.892  0.00  0.00    +0.000 A 
ATOM     19  C   UNL     1      51.604   7.104  15.990  0.00  0.00    +0.000 A 
ATOM     20  C   UNL     1      51.317   5.887  16.747  0.00  0.00    +0.000 A 
BRANCH  12  22
ATOM     21  C   UNL     1      48.168   6.084  18.046  0.00  0.00    +0.000 C 
ATOM     22  O   UNL     1      48.901   5.712  16.880  0.00  0.00    +0.000 OA
ENDBRANCH  12  22
ENDBRANCH   8  19
ENDBRANCH   7  10
ENDBRANCH   1   7
BRANCH   4  23
ATOM     23  C   UNL     1      44.753   6.522  11.814  0.00  0.00    +0.000 C 
BRANCH  23  24
ATOM     24  N   UNL     1      44.808   5.049  11.717  0.00  0.00    +0.000 NA
ATOM     25  C   UNL     1      44.311   4.417  12.949  0.00  0.00    +0.000 C 
BRANCH  24  26
ATOM     26  C   UNL     1      44.001   4.567  10.580  0.00  0.00    +0.000 C 
BRANCH  26  27
ATOM     27  C   UNL     1      44.792   3.870   9.494  0.00  0.00    +0.000 A 
ATOM     28  C   UNL     1      45.561   4.607   8.578  0.00  0.00    +0.000 A 
ATOM     29  C   UNL     1      46.369   3.957   7.641  0.00  0.00    +0.000 A 
ATOM     30  C   UNL     1      46.407   2.564   7.602  0.00  0.00    +0.000 A 
ATOM     31  C   UNL     1      45.616   1.834   8.479  0.00  0.00    +0.000 A 
ATOM     32  F   UNL     1      45.638   0.496   8.431  0.00  0.00    +0.000 F 
ATOM     33  C   UNL     1      44.812   2.470   9.420  0.00  0.00    +0.000 A 
ENDBRANCH  26  27
ENDBRANCH  24  26
ENDBRANCH  23  24
ENDBRANCH   4  23
TORSDOF 8
ENDMDL
MODEL 7
REMARK VINA RESULT:    -6.792      3.656      8.535
REMARK INTER + INTRA:         -11.358
REMARK INTER:                  -8.979
REMARK INTRA:                  -2.379
REMARK UNBOUND:                -1.389
REMARK  Name = 
REMARK  10 active torsions:
REMARK  status: ('A' for Active; 'I' for Inactive)
REMARK    1  A    between atoms: C_1  and  O_2
REMARK    2  A    between atoms: O_2  and  C_3
REMARK    3  A    between atoms: C_10  and  C_11
REMARK    4  A    between atoms: N_13  and  C_14
REMARK    5  A    between atoms: C_14  and  C_15
REMARK    6  A    between atoms: C_18  and  C_19
REMARK    7  A    between atoms: C_19  and  N_20
REMARK    8  A    between atoms: N_20  and  C_21
REMARK    9  A    between atoms: N_20  and  C_22
REMARK   10  A    between atoms: C_22  and  C_23
REMARK                            x       y       z     vdW  Elec       q    Type
REMARK                         _______ _______ _______ _____ _____    ______ ____
ROOT
ATOM      1  C   UNL     1      49.133   7.985  15.968  0.00  0.00    +0.000 A 
ATOM      2  C   UNL     1      48.614   8.514  17.155  0.00  0.00    +0.000 A 
ATOM      3  C   UNL     1      49.151   8.139  18.389  0.00  0.00    +0.000 A 
ATOM      4  C   UNL     1      50.208   7.220  18.460  0.00  0.00    +0.000 A 
ATOM      5  C   UNL     1      50.748   6.720  17.267  0.00  0.00    +0.000 A 
ATOM      6  C   UNL     1      50.220   7.105  16.032  0.00  0.00    +0.000 A 
ENDROOT
BRANCH   1   7
ATOM      7  C   UNL     1      48.568   8.407  14.633  0.00  0.00    +0.000 C 
BRANCH   7  10
ATOM      8  C   UNL     1      47.834   6.451  13.332  0.00  0.00    +0.000 C 
ATOM      9  O   UNL     1      48.966   6.281  12.882  0.00  0.00    +0.000 OA
ATOM     10  N   UNL     1      47.562   7.475  14.197  0.00  0.00    +0.000 N 
ATOM     11  H   UNL     1      46.621   7.614  14.540  0.00  0.00    +0.000 HD
BRANCH   8  19
ATOM     12  C   UNL     1      44.745   7.006  11.909  0.00  0.00    +0.000 A 
ATOM     13  N   UNL     1      43.522   6.931  11.346  0.00  0.00    +0.000 NA
ATOM     14  C   UNL     1      42.952   5.728  11.234  0.00  0.00    +0.000 A 
ATOM     15  N   UNL     1      43.465   4.565  11.624  0.00  0.00    +0.000 NA
ATOM     16  C   UNL     1      44.689   4.682  12.168  0.00  0.00    +0.000 A 
ATOM     17  S   UNL     1      45.490   3.293  12.727  0.00  0.00    +0.000 S 
ATOM     18  C   UNL     1      46.837   4.207  13.212  0.00  0.00    +0.000 A 
ATOM     19  C   UNL     1      46.716   5.568  12.960  0.00  0.00    +0.000 A 
ATOM     20  C   UNL     1      45.421   5.851  12.344  0.00  0.00    +0.000 A 
BRANCH  12  22
ATOM     21  C   UNL     1      44.569   9.261  11.344  0.00  0.00    +0.000 C 
ATOM     22  O   UNL     1      45.328   8.252  12.007  0.00  0.00    +0.000 OA
ENDBRANCH  12  22
ENDBRANCH   8  19
ENDBRANCH   7  10
ENDBRANCH   1   7
BRANCH   4  23
ATOM     23  C   UNL     1      50.749   6.762  19.800  0.00  0.00    +0.000 C 
BRANCH  23  24
ATOM     24  N   UNL     1      50.760   5.293  19.959  0.00  0.00    +0.000 NA
ATOM     25  C   UNL     1      51.540   4.893  21.139  0.00  0.00    +0.000 C 
BRANCH  24  26
ATOM     26  C   UNL     1      49.388   4.770  20.099  0.00  0.00    +0.000 C 
BRANCH  26  27
ATOM     27  C   UNL     1      48.795   4.202  18.827  0.00  0.00    +0.000 A 
ATOM     28  C   UNL     1      47.622   4.743  18.274  0.00  0.00    +0.000 A 
ATOM     29  C   UNL     1      47.135   4.284  17.048  0.00  0.00    +0.000 A 
ATOM     30  C   UNL     1      47.806   3.270  16.367  0.00  0.00    +0.000 A 
ATOM     31  C   UNL     1      48.942   2.704  16.932  0.00  0.00    +0.000 A 
ATOM     32  F   UNL     1      49.579   1.717  16.288  0.00  0.00    +0.000 F 
ATOM     33  C   UNL     1      49.441   3.158  18.150  0.00  0.00    +0.000 A 
ENDBRANCH  26  27
ENDBRANCH  24  26
ENDBRANCH  23  24
ENDBRANCH   4  23
TORSDOF 8
ENDMDL
MODEL 8
REMARK VINA RESULT:    -6.786      1.551      2.114
REMARK INTER + INTRA:         -11.350
REMARK INTER:                 -10.332
REMARK INTRA:                  -1.018
REMARK UNBOUND:                -1.389
REMARK  Name = 
REMARK  10 active torsions:
REMARK  status: ('A' for Active; 'I' for Inactive)
REMARK    1  A    between atoms: C_1  and  O_2
REMARK    2  A    between atoms: O_2  and  C_3
REMARK    3  A    between atoms: C_10  and  C_11
REMARK    4  A    between atoms: N_13  and  C_14
REMARK    5  A    between atoms: C_14  and  C_15
REMARK    6  A    between atoms: C_18  and  C_19
REMARK    7  A    between atoms: C_19  and  N_20
REMARK    8  A    between atoms: N_20  and  C_21
REMARK    9  A    between atoms: N_20  and  C_22
REMARK   10  A    between atoms: C_22  and  C_23
REMARK                            x       y       z     vdW  Elec       q    Type
REMARK                         _______ _______ _______ _____ _____    ______ ____
ROOT
ATOM      1  C   UNL     1      48.082   6.730  12.960  0.00  0.00    +0.000 A 
ATOM      2  C   UNL     1      47.338   7.471  12.037  0.00  0.00    +0.000 A 
ATOM      3  C   UNL     1      46.126   6.976  11.548  0.00  0.00    +0.000 A 
ATOM      4  C   UNL     1      45.643   5.727  11.964  0.00  0.00    +0.000 A 
ATOM      5  C   UNL     1      46.375   5.005  12.917  0.00  0.00    +0.000 A 
ATOM      6  C   UNL     1      47.580   5.505  13.416  0.00  0.00    +0.000 A 
ENDROOT
BRANCH   1   7
ATOM      7  C   UNL     1      49.381   7.274  13.507  0.00  0.00    +0.000 C 
BRANCH   7  10
ATOM      8  C   UNL     1      50.510   7.469  15.685  0.00  0.00    +0.000 C 
ATOM      9  O   UNL     1      51.563   7.808  15.149  0.00  0.00    +0.000 OA
ATOM     10  N   UNL     1      49.395   7.190  14.943  0.00  0.00    +0.000 N 
ATOM     11  H   UNL     1      48.544   6.891  15.399  0.00  0.00    +0.000 HD
BRANCH   8  19
ATOM     12  C   UNL     1      52.283   5.708  18.057  0.00  0.00    +0.000 A 
ATOM     13  N   UNL     1      52.811   5.167  19.175  0.00  0.00    +0.000 NA
ATOM     14  C   UNL     1      52.245   5.466  20.347  0.00  0.00    +0.000 A 
ATOM     15  N   UNL     1      51.194   6.256  20.545  0.00  0.00    +0.000 NA
ATOM     16  C   UNL     1      50.707   6.783  19.408  0.00  0.00    +0.000 A 
ATOM     17  S   UNL     1      49.357   7.812  19.478  0.00  0.00    +0.000 S 
ATOM     18  C   UNL     1      49.376   8.030  17.793  0.00  0.00    +0.000 A 
ATOM     19  C   UNL     1      50.396   7.341  17.147  0.00  0.00    +0.000 A 
ATOM     20  C   UNL     1      51.185   6.585  18.118  0.00  0.00    +0.000 A 
BRANCH  12  22
ATOM     21  C   UNL     1      54.088   6.141  16.645  0.00  0.00    +0.000 C 
ATOM     22  O   UNL     1      52.885   5.402  16.854  0.00  0.00    +0.000 OA
ENDBRANCH  12  22
ENDBRANCH   8  19
ENDBRANCH   7  10
ENDBRANCH   1   7
BRANCH   4  23
ATOM     23  C   UNL     1      44.363   5.159  11.386  0.00  0.00    +0.000 C 
BRANCH  23  24
ATOM     24  N   UNL     1      44.452   3.721  11.058  0.00  0.00    +0.000 NA
ATOM     25  C   UNL     1      43.634   2.915  11.976  0.00  0.00    +0.000 C 
BRANCH  24  26
ATOM     26  C   UNL     1      44.000   3.468   9.676  0.00  0.00    +0.000 C 
BRANCH  26  27
ATOM     27  C   UNL     1      45.093   3.034   8.724  0.00  0.00    +0.000 A 
ATOM     28  C   UNL     1      45.772   3.973   7.929  0.00  0.00    +0.000 A 
ATOM     29  C   UNL     1      46.847   3.583   7.126  0.00  0.00    +0.000 A 
ATOM     30  C   UNL     1      47.247   2.249   7.098  0.00  0.00    +0.000 A 
ATOM     31  C   UNL     1      46.550   1.311   7.851  0.00  0.00    +0.000 A 
ATOM     32  F   UNL     1      46.922   0.025   7.811  0.00  0.00    +0.000 F 
ATOM     33  C   UNL     1      45.482   1.689   8.658  0.00  0.00    +0.000 A 
ENDBRANCH  26  27
ENDBRANCH  24  26
ENDBRANCH  23  24
ENDBRANCH   4  23
TORSDOF 8
ENDMDL
MODEL 9
REMARK VINA RESULT:    -6.706      2.267      3.239
REMARK INTER + INTRA:         -11.231
REMARK INTER:                 -10.428
REMARK INTRA:                  -0.803
REMARK UNBOUND:                -1.389
REMARK  Name = 
REMARK  10 active torsions:
REMARK  status: ('A' for Active; 'I' for Inactive)
REMARK    1  A    between atoms: C_1  and  O_2
REMARK    2  A    between atoms: O_2  and  C_3
REMARK    3  A    between atoms: C_10  and  C_11
REMARK    4  A    between atoms: N_13  and  C_14
REMARK    5  A    between atoms: C_14  and  C_15
REMARK    6  A    between atoms: C_18  and  C_19
REMARK    7  A    between atoms: C_19  and  N_20
REMARK    8  A    between atoms: N_20  and  C_21
REMARK    9  A    between atoms: N_20  and  C_22
REMARK   10  A    between atoms: C_22  and  C_23
REMARK                            x       y       z     vdW  Elec       q    Type
REMARK                         _______ _______ _______ _____ _____    ______ ____
ROOT
ATOM      1  C   UNL     1      47.914   6.277  13.932  0.00  0.00    +0.000 A 
ATOM      2  C   UNL     1      47.584   7.075  12.833  0.00  0.00    +0.000 A 
ATOM      3  C   UNL     1      46.494   6.745  12.023  0.00  0.00    +0.000 A 
ATOM      4  C   UNL     1      45.725   5.604  12.289  0.00  0.00    +0.000 A 
ATOM      5  C   UNL     1      46.038   4.826  13.413  0.00  0.00    +0.000 A 
ATOM      6  C   UNL     1      47.119   5.164  14.231  0.00  0.00    +0.000 A 
ENDROOT
BRANCH   1   7
ATOM      7  C   UNL     1      49.077   6.646  14.822  0.00  0.00    +0.000 C 
BRANCH   7  10
ATOM      8  C   UNL     1      49.456   7.395  17.136  0.00  0.00    +0.000 C 
ATOM      9  O   UNL     1      50.676   7.377  16.980  0.00  0.00    +0.000 OA
ATOM     10  N   UNL     1      48.607   7.049  16.121  0.00  0.00    +0.000 N 
ATOM     11  H   UNL     1      47.608   7.048  16.274  0.00  0.00    +0.000 HD
BRANCH   8  19
ATOM     12  C   UNL     1      49.074  10.408  18.763  0.00  0.00    +0.000 A 
ATOM     13  N   UNL     1      48.764  11.430  19.587  0.00  0.00    +0.000 NA
ATOM     14  C   UNL     1      48.111  11.151  20.719  0.00  0.00    +0.000 A 
ATOM     15  N   UNL     1      47.722   9.951  21.138  0.00  0.00    +0.000 NA
ATOM     16  C   UNL     1      48.039   8.963  20.283  0.00  0.00    +0.000 A 
ATOM     17  S   UNL     1      47.622   7.362  20.667  0.00  0.00    +0.000 S 
ATOM     18  C   UNL     1      48.302   6.788  19.220  0.00  0.00    +0.000 A 
ATOM     19  C   UNL     1      48.850   7.784  18.420  0.00  0.00    +0.000 A 
ATOM     20  C   UNL     1      48.700   9.086  19.067  0.00  0.00    +0.000 A 
BRANCH  12  22
ATOM     21  C   UNL     1      48.840  10.974  16.514  0.00  0.00    +0.000 C 
ATOM     22  O   UNL     1      49.737  10.710  17.592  0.00  0.00    +0.000 OA
ENDBRANCH  12  22
ENDBRANCH   8  19
ENDBRANCH   7  10
ENDBRANCH   1   7
BRANCH   4  23
ATOM     23  C   UNL     1      44.584   5.206  11.374  0.00  0.00    +0.000 C 
BRANCH  23  24
ATOM     24  N   UNL     1      44.537   3.757  11.087  0.00  0.00    +0.000 NA
ATOM     25  C   UNL     1      43.641   3.060  12.020  0.00  0.00    +0.000 C 
BRANCH  24  26
ATOM     26  C   UNL     1      44.070   3.510   9.709  0.00  0.00    +0.000 C 
BRANCH  26  27
ATOM     27  C   UNL     1      45.146   3.049   8.751  0.00  0.00    +0.000 A 
ATOM     28  C   UNL     1      45.827   3.968   7.934  0.00  0.00    +0.000 A 
ATOM     29  C   UNL     1      46.888   3.553   7.125  0.00  0.00    +0.000 A 
ATOM     30  C   UNL     1      47.271   2.214   7.112  0.00  0.00    +0.000 A 
ATOM     31  C   UNL     1      46.573   1.296   7.887  0.00  0.00    +0.000 A 
ATOM     32  F   UNL     1      46.929   0.005   7.862  0.00  0.00    +0.000 F 
ATOM     33  C   UNL     1      45.519   1.698   8.701  0.00  0.00    +0.000 A 
ENDBRANCH  26  27
ENDBRANCH  24  26
ENDBRANCH  23  24
ENDBRANCH   4  23
TORSDOF 8
ENDMDL
