MODEL 1
REMARK VINA RESULT:    -8.197      0.000      0.000
REMARK INTER + INTRA:         -10.825
REMARK INTER:                 -10.593
REMARK INTRA:                  -0.232
REMARK UNBOUND:                -0.232
REMARK  Name = 
REMARK  5 active torsions:
REMARK  status: ('A' for Active; 'I' for Inactive)
REMARK    1  A    between atoms: C_2  and  C_4
REMARK    2  A    between atoms: C_7  and  C_8
REMARK    3  A    between atoms: C_8  and  O_9
REMARK    4  A    between atoms: O_9  and  C_10
REMARK    5  A    between atoms: C_14  and  C_15
REMARK                            x       y       z     vdW  Elec       q    Type
REMARK                         _______ _______ _______ _____ _____    ______ ____
ROOT
ATOM      1  C   UNL     1      43.234   3.522  11.405  0.00  0.00    +0.000 C 
ENDROOT
BRANCH   1   5
ATOM      2  C   UNL     1      46.413   4.938  13.757  0.00  0.00    +0.000 A 
ATOM      3  N   UNL     1      46.374   3.605  13.516  0.00  0.00    +0.000 NA
ATOM      4  C   UNL     1      45.336   3.184  12.764  0.00  0.00    +0.000 A 
ATOM      5  C   UNL     1      44.369   4.022  12.241  0.00  0.00    +0.000 A 
ATOM      6  C   UNL     1      44.509   5.355  12.572  0.00  0.00    +0.000 A 
ATOM      7  N   UNL     1      45.519   5.844  13.315  0.00  0.00    +0.000 NA
BRANCH   2   9
ATOM      8  N   UNL     1      47.552   5.084  15.921  0.00  0.00    +0.000 N 
ATOM      9  C   UNL     1      47.570   5.443  14.591  0.00  0.00    +0.000 C 
ATOM     10  O   UNL     1      48.488   6.127  14.149  0.00  0.00    +0.000 OA
ATOM     11  H   UNL     1      48.296   5.403  16.522  0.00  0.00    +0.000 HD
ATOM     12  H   UNL     1      46.791   4.525  16.288  0.00  0.00    +0.000 HD
ENDBRANCH   2   9
ENDBRANCH   1   5
BRANCH   1  13
ATOM     13  O   UNL     1      43.735   2.524  10.520  0.00  0.00    +0.000 OA
BRANCH  13  14
ATOM     14  C   UNL     1      44.572   2.941   9.521  0.00  0.00    +0.000 A 
ATOM     15  C   UNL     1      44.745   4.254   9.084  0.00  0.00    +0.000 A 
ATOM     16  C   UNL     1      45.645   4.539   8.052  0.00  0.00    +0.000 A 
ATOM     17  C   UNL     1      46.380   3.516   7.455  0.00  0.00    +0.000 A 
ATOM     18  C   UNL     1      46.222   2.191   7.882  0.00  0.00    +0.000 A 
ATOM     19  C   UNL     1      45.306   1.917   8.911  0.00  0.00    +0.000 A 
BRANCH  18  20
ATOM     20  C   UNL     1      47.022   1.069   7.269  0.00  0.00    +0.000 C 
ATOM     21  F   UNL     1      46.822  -0.136   7.874  0.00  0.00    +0.000 F 
ATOM     22  F   UNL     1      46.724   0.878   5.953  0.00  0.00    +0.000 F 
ATOM     23  F   UNL     1      48.364   1.293   7.320  0.00  0.00    +0.000 F 
ENDBRANCH  18  20
ENDBRANCH  13  14
ENDBRANCH   1  13
TORSDOF 5
ENDMDL
MODEL 2
REMARK VINA RESULT:    -8.002      4.468      6.722
REMARK INTER + INTRA:         -10.574
REMARK INTER:                  -9.933
REMARK INTRA:                  -0.641
REMARK UNBOUND:                -0.232
REMARK  Name = 
REMARK  5 active torsions:
REMARK  status: ('A' for Active; 'I' for Inactive)
REMARK    1  A    between atoms: C_2  and  C_4
REMARK    2  A    between atoms: C_7  and  C_8
REMARK    3  A    between atoms: C_8  and  O_9
REMARK    4  A    between atoms: O_9  and  C_10
REMARK    5  A    between atoms: C_14  and  C_15
REMARK                            x       y       z     vdW  Elec       q    Type
REMARK                         _______ _______ _______ _____ _____    ______ ____
ROOT
ATOM      1  C   UNL     1      43.798   3.830  10.534  0.00  0.00    +0.000 C 
ENDROOT
BRANCH   1   5
ATOM      2  C   UNL     1      46.464   2.723   7.483  0.00  0.00    +0.000 A 
ATOM      3  N   UNL     1      46.097   4.027   7.534  0.00  0.00    +0.000 NA
ATOM      4  C   UNL     1      45.234   4.346   8.521  0.00  0.00    +0.000 A 
ATOM      5  C   UNL     1      44.750   3.442   9.447  0.00  0.00    +0.000 A 
ATOM      6  C   UNL     1      45.185   2.141   9.279  0.00  0.00    +0.000 A 
ATOM      7  N   UNL     1      46.044   1.754   8.319  0.00  0.00    +0.000 NA
BRANCH   2   9
ATOM      8  N   UNL     1      47.335   3.046   5.217  0.00  0.00    +0.000 N 
ATOM      9  C   UNL     1      47.438   2.335   6.392  0.00  0.00    +0.000 C 
ATOM     10  O   UNL     1      48.283   1.452   6.507  0.00  0.00    +0.000 OA
ATOM     11  H   UNL     1      47.955   2.820   4.453  0.00  0.00    +0.000 HD
ATOM     12  H   UNL     1      46.633   3.769   5.118  0.00  0.00    +0.000 HD
ENDBRANCH   2   9
ENDBRANCH   1   5
BRANCH   1  13
ATOM     13  O   UNL     1      44.132   5.145  10.972  0.00  0.00    +0.000 OA
BRANCH  13  14
ATOM     14  C   UNL     1      45.164   5.262  11.863  0.00  0.00    +0.000 A 
ATOM     15  C   UNL     1      45.398   4.441  12.966  0.00  0.00    +0.000 A 
ATOM     16  C   UNL     1      46.502   4.672  13.792  0.00  0.00    +0.000 A 
ATOM     17  C   UNL     1      47.380   5.721  13.520  0.00  0.00    +0.000 A 
ATOM     18  C   UNL     1      47.163   6.555  12.415  0.00  0.00    +0.000 A 
ATOM     19  C   UNL     1      46.043   6.318  11.600  0.00  0.00    +0.000 A 
BRANCH  18  20
ATOM     20  C   UNL     1      48.109   7.681  12.084  0.00  0.00    +0.000 C 
ATOM     21  F   UNL     1      47.486   8.877  11.893  0.00  0.00    +0.000 F 
ATOM     22  F   UNL     1      49.027   7.893  13.069  0.00  0.00    +0.000 F 
ATOM     23  F   UNL     1      48.824   7.448  10.949  0.00  0.00    +0.000 F 
ENDBRANCH  18  20
ENDBRANCH  13  14
ENDBRANCH   1  13
TORSDOF 5
ENDMDL
MODEL 3
REMARK VINA RESULT:    -7.967      4.441      6.690
REMARK INTER + INTRA:         -10.529
REMARK INTER:                  -9.997
REMARK INTRA:                  -0.532
REMARK UNBOUND:                -0.232
REMARK  Name = 
REMARK  5 active torsions:
REMARK  status: ('A' for Active; 'I' for Inactive)
REMARK    1  A    between atoms: C_2  and  C_4
REMARK    2  A    between atoms: C_7  and  C_8
REMARK    3  A    between atoms: C_8  and  O_9
REMARK    4  A    between atoms: O_9  and  C_10
REMARK    5  A    between atoms: C_14  and  C_15
REMARK                            x       y       z     vdW  Elec       q    Type
REMARK                         _______ _______ _______ _____ _____    ______ ____
ROOT
ATOM      1  C   UNL     1      43.810   4.558  10.351  0.00  0.00    +0.000 C 
ENDROOT
BRANCH   1   5
ATOM      2  C   UNL     1      46.420   2.521   7.765  0.00  0.00    +0.000 A 
ATOM      3  N   UNL     1      46.331   3.865   7.614  0.00  0.00    +0.000 NA
ATOM      4  C   UNL     1      45.478   4.486   8.455  0.00  0.00    +0.000 A 
ATOM      5  C   UNL     1      44.743   3.838   9.429  0.00  0.00    +0.000 A 
ATOM      6  C   UNL     1      44.907   2.467   9.472  0.00  0.00    +0.000 A 
ATOM      7  N   UNL     1      45.741   1.784   8.666  0.00  0.00    +0.000 NA
BRANCH   2   9
ATOM      8  N   UNL     1      48.463   2.524   6.415  0.00  0.00    +0.000 N 
ATOM      9  C   UNL     1      47.374   1.797   6.842  0.00  0.00    +0.000 C 
ATOM     10  O   UNL     1      47.226   0.634   6.476  0.00  0.00    +0.000 OA
ATOM     11  H   UNL     1      49.125   2.090   5.789  0.00  0.00    +0.000 HD
ATOM     12  H   UNL     1      48.581   3.486   6.711  0.00  0.00    +0.000 HD
ENDBRANCH   2   9
ENDBRANCH   1   5
BRANCH   1  13
ATOM     13  O   UNL     1      44.165   4.232  11.691  0.00  0.00    +0.000 OA
BRANCH  13  14
ATOM     14  C   UNL     1      45.226   4.902  12.237  0.00  0.00    +0.000 A 
ATOM     15  C   UNL     1      45.807   6.069  11.742  0.00  0.00    +0.000 A 
ATOM     16  C   UNL     1      46.888   6.654  12.408  0.00  0.00    +0.000 A 
ATOM     17  C   UNL     1      47.392   6.080  13.575  0.00  0.00    +0.000 A 
ATOM     18  C   UNL     1      46.820   4.909  14.090  0.00  0.00    +0.000 A 
ATOM     19  C   UNL     1      45.742   4.325  13.403  0.00  0.00    +0.000 A 
BRANCH  18  20
ATOM     20  C   UNL     1      47.330   4.281  15.362  0.00  0.00    +0.000 C 
ATOM     21  F   UNL     1      46.404   4.246  16.361  0.00  0.00    +0.000 F 
ATOM     22  F   UNL     1      47.727   2.990  15.180  0.00  0.00    +0.000 F 
ATOM     23  F   UNL     1      48.407   4.935  15.875  0.00  0.00    +0.000 F 
ENDBRANCH  18  20
ENDBRANCH  13  14
ENDBRANCH   1  13
TORSDOF 5
ENDMDL
MODEL 4
REMARK VINA RESULT:    -7.646      1.827      2.487
REMARK INTER + INTRA:         -10.113
REMARK INTER:                  -9.784
REMARK INTRA:                  -0.330
REMARK UNBOUND:                -0.232
REMARK  Name = 
REMARK  5 active torsions:
REMARK  status: ('A' for Active; 'I' for Inactive)
REMARK    1  A    between atoms: C_2  and  C_4
REMARK    2  A    between atoms: C_7  and  C_8
REMARK    3  A    between atoms: C_8  and  O_9
REMARK    4  A    between atoms: O_9  and  C_10
REMARK    5  A    between atoms: C_14  and  C_15
REMARK                            x       y       z     vdW  Elec       q    Type
REMARK                         _______ _______ _______ _____ _____    ______ ____
ROOT
ATOM      1  C   UNL     1      45.777   6.268  11.048  0.00  0.00    +0.000 C 
ENDROOT
BRANCH   1   5
ATOM      2  C   UNL     1      47.079   4.699  14.720  0.00  0.00    +0.000 A 
ATOM      3  N   UNL     1      45.820   4.383  14.330  0.00  0.00    +0.000 NA
ATOM      4  C   UNL     1      45.432   4.910  13.150  0.00  0.00    +0.000 A 
ATOM      5  C   UNL     1      46.237   5.704  12.355  0.00  0.00    +0.000 A 
ATOM      6  C   UNL     1      47.491   5.968  12.870  0.00  0.00    +0.000 A 
ATOM      7  N   UNL     1      47.943   5.475  14.038  0.00  0.00    +0.000 NA
BRANCH   2   9
ATOM      8  N   UNL     1      47.161   4.802  17.166  0.00  0.00    +0.000 N 
ATOM      9  C   UNL     1      47.547   4.116  16.036  0.00  0.00    +0.000 C 
ATOM     10  O   UNL     1      48.225   3.098  16.133  0.00  0.00    +0.000 OA
ATOM     11  H   UNL     1      47.454   4.460  18.069  0.00  0.00    +0.000 HD
ATOM     12  H   UNL     1      46.607   5.647  17.085  0.00  0.00    +0.000 HD
ENDBRANCH   2   9
ENDBRANCH   1   5
BRANCH   1  13
ATOM     13  O   UNL     1      44.576   5.600  10.671  0.00  0.00    +0.000 OA
BRANCH  13  14
ATOM     14  C   UNL     1      44.705   4.389  10.048  0.00  0.00    +0.000 A 
ATOM     15  C   UNL     1      44.052   3.208  10.400  0.00  0.00    +0.000 A 
ATOM     16  C   UNL     1      44.272   2.037   9.668  0.00  0.00    +0.000 A 
ATOM     17  C   UNL     1      45.142   2.041   8.577  0.00  0.00    +0.000 A 
ATOM     18  C   UNL     1      45.805   3.218   8.207  0.00  0.00    +0.000 A 
ATOM     19  C   UNL     1      45.583   4.384   8.959  0.00  0.00    +0.000 A 
BRANCH  18  20
ATOM     20  C   UNL     1      46.732   3.255   7.018  0.00  0.00    +0.000 C 
ATOM     21  F   UNL     1      47.841   2.477   7.168  0.00  0.00    +0.000 F 
ATOM     22  F   UNL     1      46.128   2.824   5.875  0.00  0.00    +0.000 F 
ATOM     23  F   UNL     1      47.191   4.509   6.750  0.00  0.00    +0.000 F 
ENDBRANCH  18  20
ENDBRANCH  13  14
ENDBRANCH   1  13
TORSDOF 5
ENDMDL
MODEL 5
REMARK VINA RESULT:    -7.261      1.946      2.654
REMARK INTER + INTRA:          -9.615
REMARK INTER:                  -8.838
REMARK INTRA:                  -0.777
REMARK UNBOUND:                -0.232
REMARK  Name = 
REMARK  5 active torsions:
REMARK  status: ('A' for Active; 'I' for Inactive)
REMARK    1  A    between atoms: C_2  and  C_4
REMARK    2  A    between atoms: C_7  and  C_8
REMARK    3  A    between atoms: C_8  and  O_9
REMARK    4  A    between atoms: O_9  and  C_10
REMARK    5  A    between atoms: C_14  and  C_15
REMARK                            x       y       z     vdW  Elec       q    Type
REMARK                         _______ _______ _______ _____ _____    ______ ____
ROOT
ATOM      1  C   UNL     1      43.677   5.617  11.932  0.00  0.00    +0.000 C 
ENDROOT
BRANCH   1   5
ATOM      2  C   UNL     1      47.595   6.453  13.194  0.00  0.00    +0.000 A 
ATOM      3  N   UNL     1      47.037   7.317  12.311  0.00  0.00    +0.000 NA
ATOM      4  C   UNL     1      45.782   7.014  11.921  0.00  0.00    +0.000 A 
ATOM      5  C   UNL     1      45.072   5.920  12.380  0.00  0.00    +0.000 A 
ATOM      6  C   UNL     1      45.755   5.107  13.263  0.00  0.00    +0.000 A 
ATOM      7  N   UNL     1      47.006   5.350  13.695  0.00  0.00    +0.000 NA
BRANCH   2   9
ATOM      8  N   UNL     1      49.854   7.256  12.691  0.00  0.00    +0.000 N 
ATOM      9  C   UNL     1      49.000   6.770  13.657  0.00  0.00    +0.000 C 
ATOM     10  O   UNL     1      49.393   6.622  14.810  0.00  0.00    +0.000 OA
ATOM     11  H   UNL     1      50.805   7.475  12.946  0.00  0.00    +0.000 HD
ATOM     12  H   UNL     1      49.532   7.372  11.738  0.00  0.00    +0.000 HD
ENDBRANCH   2   9
ENDBRANCH   1   5
BRANCH   1  13
ATOM     13  O   UNL     1      43.690   5.443  10.517  0.00  0.00    +0.000 OA
BRANCH  13  14
ATOM     14  C   UNL     1      44.157   4.249  10.039  0.00  0.00    +0.000 A 
ATOM     15  C   UNL     1      43.774   2.980  10.475  0.00  0.00    +0.000 A 
ATOM     16  C   UNL     1      44.330   1.839   9.890  0.00  0.00    +0.000 A 
ATOM     17  C   UNL     1      45.266   1.957   8.863  0.00  0.00    +0.000 A 
ATOM     18  C   UNL     1      45.661   3.223   8.410  0.00  0.00    +0.000 A 
ATOM     19  C   UNL     1      45.104   4.362   9.016  0.00  0.00    +0.000 A 
BRANCH  18  20
ATOM     20  C   UNL     1      46.653   3.379   7.286  0.00  0.00    +0.000 C 
ATOM     21  F   UNL     1      47.662   2.463   7.318  0.00  0.00    +0.000 F 
ATOM     22  F   UNL     1      46.074   3.249   6.060  0.00  0.00    +0.000 F 
ATOM     23  F   UNL     1      47.259   4.599   7.286  0.00  0.00    +0.000 F 
ENDBRANCH  18  20
ENDBRANCH  13  14
ENDBRANCH   1  13
TORSDOF 5
ENDMDL
MODEL 6
REMARK VINA RESULT:    -7.121      2.362      3.775
REMARK INTER + INTRA:          -9.435
REMARK INTER:                  -9.193
REMARK INTRA:                  -0.241
REMARK UNBOUND:                -0.232
REMARK  Name = 
REMARK  5 active torsions:
REMARK  status: ('A' for Active; 'I' for Inactive)
REMARK    1  A    between atoms: C_2  and  C_4
REMARK    2  A    between atoms: C_7  and  C_8
REMARK    3  A    between atoms: C_8  and  O_9
REMARK    4  A    between atoms: O_9  and  C_10
REMARK    5  A    between atoms: C_14  and  C_15
REMARK                            x       y       z     vdW  Elec       q    Type
REMARK                         _______ _______ _______ _____ _____    ______ ____
ROOT
ATOM      1  C   UNL     1      47.521   6.615  12.135  0.00  0.00    +0.000 C 
ENDROOT
BRANCH   1   5
ATOM      2  C   UNL     1      47.469   4.577  15.808  0.00  0.00    +0.000 A 
ATOM      3  N   UNL     1      48.242   5.688  15.733  0.00  0.00    +0.000 NA
ATOM      4  C   UNL     1      48.241   6.313  14.538  0.00  0.00    +0.000 A 
ATOM      5  C   UNL     1      47.504   5.894  13.446  0.00  0.00    +0.000 A 
ATOM      6  C   UNL     1      46.770   4.741  13.643  0.00  0.00    +0.000 A 
ATOM      7  N   UNL     1      46.724   4.068  14.807  0.00  0.00    +0.000 NA
BRANCH   2   9
ATOM      8  N   UNL     1      48.396   4.251  18.051  0.00  0.00    +0.000 N 
ATOM      9  C   UNL     1      47.442   3.858  17.138  0.00  0.00    +0.000 C 
ATOM     10  O   UNL     1      46.636   2.978  17.427  0.00  0.00    +0.000 OA
ATOM     11  H   UNL     1      48.427   3.795  18.951  0.00  0.00    +0.000 HD
ATOM     12  H   UNL     1      49.065   4.971  17.810  0.00  0.00    +0.000 HD
ENDBRANCH   2   9
ENDBRANCH   1   5
BRANCH   1  13
ATOM     13  O   UNL     1      46.209   7.106  11.878  0.00  0.00    +0.000 OA
BRANCH  13  14
ATOM     14  C   UNL     1      45.317   6.236  11.310  0.00  0.00    +0.000 A 
ATOM     15  C   UNL     1      43.994   6.039  11.704  0.00  0.00    +0.000 A 
ATOM     16  C   UNL     1      43.189   5.118  11.027  0.00  0.00    +0.000 A 
ATOM     17  C   UNL     1      43.699   4.393   9.950  0.00  0.00    +0.000 A 
ATOM     18  C   UNL     1      45.025   4.580   9.537  0.00  0.00    +0.000 A 
ATOM     19  C   UNL     1      45.826   5.500  10.235  0.00  0.00    +0.000 A 
BRANCH  18  20
ATOM     20  C   UNL     1      45.594   3.828   8.361  0.00  0.00    +0.000 C 
ATOM     21  F   UNL     1      44.718   3.690   7.327  0.00  0.00    +0.000 F 
ATOM     22  F   UNL     1      46.693   4.439   7.837  0.00  0.00    +0.000 F 
ATOM     23  F   UNL     1      45.987   2.566   8.687  0.00  0.00    +0.000 F 
ENDBRANCH  18  20
ENDBRANCH  13  14
ENDBRANCH   1  13
TORSDOF 5
ENDMDL
MODEL 7
REMARK VINA RESULT:    -6.905      4.169      5.936
REMARK INTER + INTRA:          -9.156
REMARK INTER:                  -8.630
REMARK INTRA:                  -0.525
REMARK UNBOUND:                -0.232
REMARK  Name = 
REMARK  5 active torsions:
REMARK  status: ('A' for Active; 'I' for Inactive)
REMARK    1  A    between atoms: C_2  and  C_4
REMARK    2  A    between atoms: C_7  and  C_8
REMARK    3  A    between atoms: C_8  and  O_9
REMARK    4  A    between atoms: O_9  and  C_10
REMARK    5  A    between atoms: C_14  and  C_15
REMARK                            x       y       z     vdW  Elec       q    Type
REMARK                         _______ _______ _______ _____ _____    ______ ____
ROOT
ATOM      1  C   UNL     1      47.179   4.485  16.265  0.00  0.00    +0.000 C 
ENDROOT
BRANCH   1   5
ATOM      2  C   UNL     1      50.638   2.330  17.283  0.00  0.00    +0.000 A 
ATOM      3  N   UNL     1      50.554   3.606  17.735  0.00  0.00    +0.000 NA
ATOM      4  C   UNL     1      49.434   4.270  17.383  0.00  0.00    +0.000 A 
ATOM      5  C   UNL     1      48.411   3.721  16.633  0.00  0.00    +0.000 A 
ATOM      6  C   UNL     1      48.624   2.420  16.218  0.00  0.00    +0.000 A 
ATOM      7  N   UNL     1      49.715   1.699  16.533  0.00  0.00    +0.000 NA
BRANCH   2   9
ATOM      8  N   UNL     1      51.673   0.255  18.070  0.00  0.00    +0.000 N 
ATOM      9  C   UNL     1      51.879   1.556  17.668  0.00  0.00    +0.000 C 
ATOM     10  O   UNL     1      53.016   2.019  17.635  0.00  0.00    +0.000 OA
ATOM     11  H   UNL     1      52.467  -0.303  18.346  0.00  0.00    +0.000 HD
ATOM     12  H   UNL     1      50.735  -0.125  18.104  0.00  0.00    +0.000 HD
ENDBRANCH   2   9
ENDBRANCH   1   5
BRANCH   1  13
ATOM     13  O   UNL     1      46.665   3.947  15.050  0.00  0.00    +0.000 OA
BRANCH  13  14
ATOM     14  C   UNL     1      46.663   4.769  13.956  0.00  0.00    +0.000 A 
ATOM     15  C   UNL     1      47.479   5.883  13.761  0.00  0.00    +0.000 A 
ATOM     16  C   UNL     1      47.375   6.633  12.585  0.00  0.00    +0.000 A 
ATOM     17  C   UNL     1      46.461   6.272  11.596  0.00  0.00    +0.000 A 
ATOM     18  C   UNL     1      45.635   5.153  11.773  0.00  0.00    +0.000 A 
ATOM     19  C   UNL     1      45.741   4.416  12.964  0.00  0.00    +0.000 A 
BRANCH  18  20
ATOM     20  C   UNL     1      44.655   4.726  10.710  0.00  0.00    +0.000 C 
ATOM     21  F   UNL     1      44.308   3.411  10.785  0.00  0.00    +0.000 F 
ATOM     22  F   UNL     1      43.485   5.422  10.773  0.00  0.00    +0.000 F 
ATOM     23  F   UNL     1      45.134   4.913   9.449  0.00  0.00    +0.000 F 
ENDBRANCH  18  20
ENDBRANCH  13  14
ENDBRANCH   1  13
TORSDOF 5
ENDMDL
MODEL 8
REMARK VINA RESULT:    -6.858      2.136      2.751
REMARK INTER + INTRA:          -9.095
REMARK INTER:                  -8.588
REMARK INTRA:                  -0.507
REMARK UNBOUND:                -0.232
REMARK  Name = 
REMARK  5 active torsions:
REMARK  status: ('A' for Active; 'I' for Inactive)
REMARK    1  A    between atoms: C_2  and  C_4
REMARK    2  A    between atoms: C_7  and  C_8
REMARK    3  A    between atoms: C_8  and  O_9
REMARK    4  A    between atoms: O_9  and  C_10
REMARK    5  A    between atoms: C_14  and  C_15
REMARK                            x       y       z     vdW  Elec       q    Type
REMARK                         _______ _______ _______ _____ _____    ______ ____
ROOT
ATOM      1  C   UNL     1      44.303   5.317  11.160  0.00  0.00    +0.000 C 
ENDROOT
BRANCH   1   5
ATOM      2  C   UNL     1      46.820   7.946  13.258  0.00  0.00    +0.000 A 
ATOM      3  N   UNL     1      47.109   6.624  13.339  0.00  0.00    +0.000 NA
ATOM      4  C   UNL     1      46.276   5.808  12.660  0.00  0.00    +0.000 A 
ATOM      5  C   UNL     1      45.204   6.249  11.907  0.00  0.00    +0.000 A 
ATOM      6  C   UNL     1      45.004   7.616  11.918  0.00  0.00    +0.000 A 
ATOM      7  N   UNL     1      45.796   8.486  12.571  0.00  0.00    +0.000 NA
BRANCH   2   9
ATOM      8  N   UNL     1      47.443   9.091  15.331  0.00  0.00    +0.000 N 
ATOM      9  C   UNL     1      47.741   8.887  14.002  0.00  0.00    +0.000 C 
ATOM     10  O   UNL     1      48.705   9.450  13.492  0.00  0.00    +0.000 OA
ATOM     11  H   UNL     1      48.021   9.718  15.871  0.00  0.00    +0.000 HD
ATOM     12  H   UNL     1      46.643   8.632  15.750  0.00  0.00    +0.000 HD
ENDBRANCH   2   9
ENDBRANCH   1   5
BRANCH   1  13
ATOM     13  O   UNL     1      44.779   5.211   9.822  0.00  0.00    +0.000 OA
BRANCH  13  14
ATOM     14  C   UNL     1      45.024   3.952   9.344  0.00  0.00    +0.000 A 
ATOM     15  C   UNL     1      44.477   2.765   9.831  0.00  0.00    +0.000 A 
ATOM     16  C   UNL     1      44.810   1.543   9.240  0.00  0.00    +0.000 A 
ATOM     17  C   UNL     1      45.687   1.499   8.156  0.00  0.00    +0.000 A 
ATOM     18  C   UNL     1      46.244   2.682   7.650  0.00  0.00    +0.000 A 
ATOM     19  C   UNL     1      45.909   3.902   8.262  0.00  0.00    +0.000 A 
BRANCH  18  20
ATOM     20  C   UNL     1      47.175   2.665   6.465  0.00  0.00    +0.000 C 
ATOM     21  F   UNL     1      46.854   3.580   5.507  0.00  0.00    +0.000 F 
ATOM     22  F   UNL     1      48.465   2.932   6.814  0.00  0.00    +0.000 F 
ATOM     23  F   UNL     1      47.199   1.459   5.833  0.00  0.00    +0.000 F 
ENDBRANCH  18  20
ENDBRANCH  13  14
ENDBRANCH   1  13
TORSDOF 5
ENDMDL
MODEL 9
REMARK VINA RESULT:    -6.684      3.096      3.782
REMARK INTER + INTRA:          -8.869
REMARK INTER:                  -8.189
REMARK INTRA:                  -0.680
REMARK UNBOUND:                -0.232
REMARK  Name = 
REMARK  5 active torsions:
REMARK  status: ('A' for Active; 'I' for Inactive)
REMARK    1  A    between atoms: C_2  and  C_4
REMARK    2  A    between atoms: C_7  and  C_8
REMARK    3  A    between atoms: C_8  and  O_9
REMARK    4  A    between atoms: O_9  and  C_10
REMARK    5  A    between atoms: C_14  and  C_15
REMARK                            x       y       z     vdW  Elec       q    Type
REMARK                         _______ _______ _______ _____ _____    ______ ____
ROOT
ATOM      1  C   UNL     1      45.226   6.638  12.764  0.00  0.00    +0.000 C 
ENDROOT
BRANCH   1   5
ATOM      2  C   UNL     1      49.253   7.747  12.321  0.00  0.00    +0.000 A 
ATOM      3  N   UNL     1      49.008   6.510  12.817  0.00  0.00    +0.000 NA
ATOM      4  C   UNL     1      47.705   6.190  12.953  0.00  0.00    +0.000 A 
ATOM      5  C   UNL     1      46.662   7.027  12.606  0.00  0.00    +0.000 A 
ATOM      6  C   UNL     1      47.041   8.267  12.129  0.00  0.00    +0.000 A 
ATOM      7  N   UNL     1      48.320   8.651  11.966  0.00  0.00    +0.000 NA
BRANCH   2   9
ATOM      8  N   UNL     1      51.442   7.334  11.302  0.00  0.00    +0.000 N 
ATOM      9  C   UNL     1      50.706   8.133  12.149  0.00  0.00    +0.000 C 
ATOM     10  O   UNL     1      51.233   9.091  12.707  0.00  0.00    +0.000 OA
ATOM     11  H   UNL     1      52.418   7.542  11.160  0.00  0.00    +0.000 HD
ATOM     12  H   UNL     1      51.009   6.539  10.847  0.00  0.00    +0.000 HD
ENDBRANCH   2   9
ENDBRANCH   1   5
BRANCH   1  13
ATOM     13  O   UNL     1      44.660   6.478  11.466  0.00  0.00    +0.000 OA
BRANCH  13  14
ATOM     14  C   UNL     1      44.525   5.199  10.998  0.00  0.00    +0.000 A 
ATOM     15  C   UNL     1      43.753   4.189  11.572  0.00  0.00    +0.000 A 
ATOM     16  C   UNL     1      43.700   2.923  10.980  0.00  0.00    +0.000 A 
ATOM     17  C   UNL     1      44.412   2.661   9.810  0.00  0.00    +0.000 A 
ATOM     18  C   UNL     1      45.190   3.664   9.217  0.00  0.00    +0.000 A 
ATOM     19  C   UNL     1      45.244   4.928   9.829  0.00  0.00    +0.000 A 
BRANCH  18  20
ATOM     20  C   UNL     1      45.951   3.415   7.939  0.00  0.00    +0.000 C 
ATOM     21  F   UNL     1      46.679   2.263   7.955  0.00  0.00    +0.000 F 
ATOM     22  F   UNL     1      45.129   3.319   6.856  0.00  0.00    +0.000 F 
ATOM     23  F   UNL     1      46.834   4.410   7.652  0.00  0.00    +0.000 F 
ENDBRANCH  18  20
ENDBRANCH  13  14
ENDBRANCH   1  13
TORSDOF 5
ENDMDL
