MODEL 1
REMARK VINA RESULT:    -7.865      0.000      0.000
REMARK INTER + INTRA:         -10.041
REMARK INTER:                  -9.934
REMARK INTRA:                  -0.108
REMARK UNBOUND:                -0.108
REMARK  Name = 
REMARK  5 active torsions:
REMARK  status: ('A' for Active; 'I' for Inactive)
REMARK    1  A    between atoms: N_1  and  C_2
REMARK    2  A    between atoms: C_2  and  C_3
REMARK    3  A    between atoms: C_6  and  C_7
REMARK    4  A    between atoms: C_7  and  N_8
REMARK    5  A    between atoms: C_13  and  C_14
REMARK                            x       y       z     vdW  Elec       q    Type
REMARK                         _______ _______ _______ _____ _____    ______ ____
ROOT
ATOM      1  N   UNL     1      43.868   4.372  10.437  0.00  0.00    +0.000 N 
ATOM      2  C   UNL     1      43.440   3.295  11.176  0.00  0.00    +0.000 A 
ATOM      3  C   UNL     1      44.019   2.161  10.661  0.00  0.00    +0.000 A 
ATOM      4  C   UNL     1      44.883   2.562   9.611  0.00  0.00    +0.000 A 
ATOM      5  C   UNL     1      45.718   1.855   8.734  0.00  0.00    +0.000 A 
ATOM      6  C   UNL     1      46.459   2.612   7.838  0.00  0.00    +0.000 A 
ATOM      7  N   UNL     1      46.450   3.975   7.786  0.00  0.00    +0.000 NA
ATOM      8  C   UNL     1      45.640   4.658   8.635  0.00  0.00    +0.000 A 
ATOM      9  C   UNL     1      44.826   3.959   9.525  0.00  0.00    +0.000 A 
ENDROOT
BRANCH   6  10
ATOM     10  C   UNL     1      47.316   1.898   6.831  0.00  0.00    +0.000 C 
ATOM     11  N   UNL     1      48.348   2.633   6.308  0.00  0.00    +0.000 N 
ATOM     12  O   UNL     1      47.111   0.745   6.479  0.00  0.00    +0.000 OA
ATOM     13  H   UNL     1      48.471   3.596   6.598  0.00  0.00    +0.000 HD
ATOM     14  H   UNL     1      48.935   2.227   5.599  0.00  0.00    +0.000 HD
ENDBRANCH   6  10
BRANCH   1  15
ATOM     15  C   UNL     1      43.399   5.731  10.677  0.00  0.00    +0.000 C 
BRANCH  15  19
ATOM     16  C   UNL     1      45.846   5.088  12.789  0.00  0.00    +0.000 C 
ATOM     17  C   UNL     1      46.589   6.254  12.140  0.00  0.00    +0.000 C 
ATOM     18  C   UNL     1      45.545   6.945  11.261  0.00  0.00    +0.000 C 
ATOM     19  C   UNL     1      44.154   6.510  11.778  0.00  0.00    +0.000 C 
ATOM     20  C   UNL     1      44.470   5.702  13.051  0.00  0.00    +0.000 C 
BRANCH  16  21
ATOM     21  C   UNL     1      46.568   4.565  14.031  0.00  0.00    +0.000 C 
BRANCH  21  22
ATOM     22  N   UNL     1      47.122   3.235  13.811  0.00  0.00    +0.000 NA
ATOM     23  H   UNL     1      48.027   3.165  14.276  0.00  0.00    +0.000 HD
ATOM     24  H   UNL     1      47.305   3.098  12.818  0.00  0.00    +0.000 HD
ENDBRANCH  21  22
ENDBRANCH  16  21
ENDBRANCH  15  19
ENDBRANCH   1  15
TORSDOF 5
ENDMDL
MODEL 2
REMARK VINA RESULT:    -7.023      2.754      5.992
REMARK INTER + INTRA:          -8.978
REMARK INTER:                  -9.213
REMARK INTRA:                   0.235
REMARK UNBOUND:                -0.108
REMARK  Name = 
REMARK  5 active torsions:
REMARK  status: ('A' for Active; 'I' for Inactive)
REMARK    1  A    between atoms: N_1  and  C_2
REMARK    2  A    between atoms: C_2  and  C_3
REMARK    3  A    between atoms: C_6  and  C_7
REMARK    4  A    between atoms: C_7  and  N_8
REMARK    5  A    between atoms: C_13  and  C_14
REMARK                            x       y       z     vdW  Elec       q    Type
REMARK                         _______ _______ _______ _____ _____    ______ ____
ROOT
ATOM      1  N   UNL     1      44.635   4.259  10.391  0.00  0.00    +0.000 N 
ATOM      2  C   UNL     1      43.780   3.380  11.013  0.00  0.00    +0.000 A 
ATOM      3  C   UNL     1      44.117   3.317  12.342  0.00  0.00    +0.000 A 
ATOM      4  C   UNL     1      45.175   4.235  12.558  0.00  0.00    +0.000 A 
ATOM      5  C   UNL     1      45.918   4.593  13.693  0.00  0.00    +0.000 A 
ATOM      6  C   UNL     1      46.874   5.582  13.521  0.00  0.00    +0.000 A 
ATOM      7  N   UNL     1      47.104   6.240  12.349  0.00  0.00    +0.000 NA
ATOM      8  C   UNL     1      46.386   5.891  11.250  0.00  0.00    +0.000 A 
ATOM      9  C   UNL     1      45.446   4.866  11.337  0.00  0.00    +0.000 A 
ENDROOT
BRANCH   6  10
ATOM     10  C   UNL     1      47.744   5.952  14.690  0.00  0.00    +0.000 C 
ATOM     11  N   UNL     1      47.992   7.292  14.840  0.00  0.00    +0.000 N 
ATOM     12  O   UNL     1      48.219   5.125  15.455  0.00  0.00    +0.000 OA
ATOM     13  H   UNL     1      47.610   7.947  14.170  0.00  0.00    +0.000 HD
ATOM     14  H   UNL     1      48.601   7.603  15.579  0.00  0.00    +0.000 HD
ENDBRANCH   6  10
BRANCH   1  15
ATOM     15  C   UNL     1      44.594   4.521   8.958  0.00  0.00    +0.000 C 
BRANCH  15  19
ATOM     16  C   UNL     1      46.878   2.603   7.555  0.00  0.00    +0.000 C 
ATOM     17  C   UNL     1      46.248   1.446   8.325  0.00  0.00    +0.000 C 
ATOM     18  C   UNL     1      44.943   2.012   8.888  0.00  0.00    +0.000 C 
ATOM     19  C   UNL     1      44.595   3.267   8.054  0.00  0.00    +0.000 C 
ATOM     20  C   UNL     1      45.650   3.269   6.932  0.00  0.00    +0.000 C 
BRANCH  16  21
ATOM     21  C   UNL     1      47.931   2.124   6.554  0.00  0.00    +0.000 C 
BRANCH  21  22
ATOM     22  N   UNL     1      47.902   2.910   5.327  0.00  0.00    +0.000 NA
ATOM     23  H   UNL     1      48.590   2.538   4.672  0.00  0.00    +0.000 HD
ATOM     24  H   UNL     1      48.189   3.867   5.524  0.00  0.00    +0.000 HD
ENDBRANCH  21  22
ENDBRANCH  16  21
ENDBRANCH  15  19
ENDBRANCH   1  15
TORSDOF 5
ENDMDL
MODEL 3
REMARK VINA RESULT:    -6.856      3.174      6.323
REMARK INTER + INTRA:          -8.767
REMARK INTER:                  -8.287
REMARK INTRA:                  -0.480
REMARK UNBOUND:                -0.108
REMARK  Name = 
REMARK  5 active torsions:
REMARK  status: ('A' for Active; 'I' for Inactive)
REMARK    1  A    between atoms: N_1  and  C_2
REMARK    2  A    between atoms: C_2  and  C_3
REMARK    3  A    between atoms: C_6  and  C_7
REMARK    4  A    between atoms: C_7  and  N_8
REMARK    5  A    between atoms: C_13  and  C_14
REMARK                            x       y       z     vdW  Elec       q    Type
REMARK                         _______ _______ _______ _____ _____    ______ ____
ROOT
ATOM      1  N   UNL     1      44.477   4.554  10.912  0.00  0.00    +0.000 N 
ATOM      2  C   UNL     1      43.159   4.939  10.841  0.00  0.00    +0.000 A 
ATOM      3  C   UNL     1      43.055   6.216  11.335  0.00  0.00    +0.000 A 
ATOM      4  C   UNL     1      44.363   6.655  11.662  0.00  0.00    +0.000 A 
ATOM      5  C   UNL     1      44.867   7.847  12.201  0.00  0.00    +0.000 A 
ATOM      6  C   UNL     1      46.244   7.926  12.350  0.00  0.00    +0.000 A 
ATOM      7  N   UNL     1      47.119   6.949  11.978  0.00  0.00    +0.000 NA
ATOM      8  C   UNL     1      46.629   5.794  11.458  0.00  0.00    +0.000 A 
ATOM      9  C   UNL     1      45.251   5.624  11.331  0.00  0.00    +0.000 A 
ENDROOT
BRANCH   6  10
ATOM     10  C   UNL     1      46.828   9.156  12.987  0.00  0.00    +0.000 C 
ATOM     11  N   UNL     1      47.090   9.057  14.329  0.00  0.00    +0.000 N 
ATOM     12  O   UNL     1      47.046  10.188  12.369  0.00  0.00    +0.000 OA
ATOM     13  H   UNL     1      46.868   8.198  14.818  0.00  0.00    +0.000 HD
ATOM     14  H   UNL     1      47.444   9.858  14.824  0.00  0.00    +0.000 HD
ENDBRANCH   6  10
BRANCH   1  15
ATOM     15  C   UNL     1      44.934   3.226  10.522  0.00  0.00    +0.000 C 
BRANCH  15  19
ATOM     16  C   UNL     1      46.783   2.664   7.852  0.00  0.00    +0.000 C 
ATOM     17  C   UNL     1      46.144   1.279   7.814  0.00  0.00    +0.000 C 
ATOM     18  C   UNL     1      44.998   1.346   8.824  0.00  0.00    +0.000 C 
ATOM     19  C   UNL     1      44.675   2.842   9.047  0.00  0.00    +0.000 C 
ATOM     20  C   UNL     1      45.560   3.568   8.017  0.00  0.00    +0.000 C 
BRANCH  16  21
ATOM     21  C   UNL     1      47.630   2.943   6.610  0.00  0.00    +0.000 C 
BRANCH  21  22
ATOM     22  N   UNL     1      48.316   1.742   6.147  0.00  0.00    +0.000 NA
ATOM     23  H   UNL     1      47.961   1.486   5.225  0.00  0.00    +0.000 HD
ATOM     24  H   UNL     1      48.095   0.960   6.760  0.00  0.00    +0.000 HD
ENDBRANCH  21  22
ENDBRANCH  16  21
ENDBRANCH  15  19
ENDBRANCH   1  15
TORSDOF 5
ENDMDL
MODEL 4
REMARK VINA RESULT:    -6.535      1.319      2.279
REMARK INTER + INTRA:          -8.362
REMARK INTER:                  -8.443
REMARK INTRA:                   0.081
REMARK UNBOUND:                -0.108
REMARK  Name = 
REMARK  5 active torsions:
REMARK  status: ('A' for Active; 'I' for Inactive)
REMARK    1  A    between atoms: N_1  and  C_2
REMARK    2  A    between atoms: C_2  and  C_3
REMARK    3  A    between atoms: C_6  and  C_7
REMARK    4  A    between atoms: C_7  and  N_8
REMARK    5  A    between atoms: C_13  and  C_14
REMARK                            x       y       z     vdW  Elec       q    Type
REMARK                         _______ _______ _______ _____ _____    ______ ____
ROOT
ATOM      1  N   UNL     1      44.041   3.401  10.208  0.00  0.00    +0.000 N 
ATOM      2  C   UNL     1      43.805   4.735   9.973  0.00  0.00    +0.000 A 
ATOM      3  C   UNL     1      44.594   5.134   8.923  0.00  0.00    +0.000 A 
ATOM      4  C   UNL     1      45.293   3.994   8.455  0.00  0.00    +0.000 A 
ATOM      5  C   UNL     1      46.228   3.795   7.428  0.00  0.00    +0.000 A 
ATOM      6  C   UNL     1      46.676   2.496   7.241  0.00  0.00    +0.000 A 
ATOM      7  N   UNL     1      46.243   1.419   7.955  0.00  0.00    +0.000 NA
ATOM      8  C   UNL     1      45.339   1.612   8.950  0.00  0.00    +0.000 A 
ATOM      9  C   UNL     1      44.886   2.900   9.231  0.00  0.00    +0.000 A 
ENDROOT
BRANCH   6  10
ATOM     10  C   UNL     1      47.730   2.244   6.200  0.00  0.00    +0.000 C 
ATOM     11  N   UNL     1      47.735   3.116   5.143  0.00  0.00    +0.000 N 
ATOM     12  O   UNL     1      48.526   1.318   6.268  0.00  0.00    +0.000 OA
ATOM     13  H   UNL     1      47.042   3.853   5.101  0.00  0.00    +0.000 HD
ATOM     14  H   UNL     1      48.390   2.978   4.390  0.00  0.00    +0.000 HD
ENDBRANCH   6  10
BRANCH   1  15
ATOM     15  C   UNL     1      43.409   2.667  11.297  0.00  0.00    +0.000 C 
BRANCH  15  19
ATOM     16  C   UNL     1      45.640   4.721  12.587  0.00  0.00    +0.000 C 
ATOM     17  C   UNL     1      44.478   5.363  13.340  0.00  0.00    +0.000 C 
ATOM     18  C   UNL     1      43.299   4.411  13.132  0.00  0.00    +0.000 C 
ATOM     19  C   UNL     1      43.888   3.042  12.717  0.00  0.00    +0.000 C 
ATOM     20  C   UNL     1      45.409   3.235  12.865  0.00  0.00    +0.000 C 
BRANCH  16  21
ATOM     21  C   UNL     1      46.995   5.262  13.047  0.00  0.00    +0.000 C 
BRANCH  21  22
ATOM     22  N   UNL     1      47.573   4.436  14.101  0.00  0.00    +0.000 NA
ATOM     23  H   UNL     1      47.013   4.530  14.948  0.00  0.00    +0.000 HD
ATOM     24  H   UNL     1      48.502   4.779  14.337  0.00  0.00    +0.000 HD
ENDBRANCH  21  22
ENDBRANCH  16  21
ENDBRANCH  15  19
ENDBRANCH   1  15
TORSDOF 5
ENDMDL
MODEL 5
REMARK VINA RESULT:    -6.409      3.660      5.888
REMARK INTER + INTRA:          -8.203
REMARK INTER:                  -7.758
REMARK INTRA:                  -0.445
REMARK UNBOUND:                -0.108
REMARK  Name = 
REMARK  5 active torsions:
REMARK  status: ('A' for Active; 'I' for Inactive)
REMARK    1  A    between atoms: N_1  and  C_2
REMARK    2  A    between atoms: C_2  and  C_3
REMARK    3  A    between atoms: C_6  and  C_7
REMARK    4  A    between atoms: C_7  and  N_8
REMARK    5  A    between atoms: C_13  and  C_14
REMARK                            x       y       z     vdW  Elec       q    Type
REMARK                         _______ _______ _______ _____ _____    ______ ____
ROOT
ATOM      1  N   UNL     1      47.724   6.787  13.876  0.00  0.00    +0.000 N 
ATOM      2  C   UNL     1      47.195   8.023  13.585  0.00  0.00    +0.000 A 
ATOM      3  C   UNL     1      46.003   7.837  12.929  0.00  0.00    +0.000 A 
ATOM      4  C   UNL     1      45.761   6.442  12.869  0.00  0.00    +0.000 A 
ATOM      5  C   UNL     1      44.723   5.671  12.324  0.00  0.00    +0.000 A 
ATOM      6  C   UNL     1      44.816   4.298  12.497  0.00  0.00    +0.000 A 
ATOM      7  N   UNL     1      45.813   3.670  13.182  0.00  0.00    +0.000 NA
ATOM      8  C   UNL     1      46.817   4.417  13.709  0.00  0.00    +0.000 A 
ATOM      9  C   UNL     1      46.818   5.800  13.526  0.00  0.00    +0.000 A 
ENDROOT
BRANCH   6  10
ATOM     10  C   UNL     1      43.765   3.424  11.871  0.00  0.00    +0.000 C 
ATOM     11  N   UNL     1      43.689   2.148  12.366  0.00  0.00    +0.000 N 
ATOM     12  O   UNL     1      43.033   3.804  10.969  0.00  0.00    +0.000 OA
ATOM     13  H   UNL     1      44.332   1.855  13.091  0.00  0.00    +0.000 HD
ATOM     14  H   UNL     1      43.035   1.499  11.962  0.00  0.00    +0.000 HD
ENDBRANCH   6  10
BRANCH   1  15
ATOM     15  C   UNL     1      49.019   6.616  14.523  0.00  0.00    +0.000 C 
BRANCH  15  19
ATOM     16  C   UNL     1      48.777   4.396  16.947  0.00  0.00    +0.000 C 
ATOM     17  C   UNL     1      50.121   4.924  17.441  0.00  0.00    +0.000 C 
ATOM     18  C   UNL     1      50.367   6.196  16.627  0.00  0.00    +0.000 C 
ATOM     19  C   UNL     1      48.999   6.650  16.069  0.00  0.00    +0.000 C 
ATOM     20  C   UNL     1      47.992   5.691  16.731  0.00  0.00    +0.000 C 
BRANCH  16  21
ATOM     21  C   UNL     1      48.145   3.415  17.936  0.00  0.00    +0.000 C 
BRANCH  21  22
ATOM     22  N   UNL     1      46.762   3.113  17.583  0.00  0.00    +0.000 NA
ATOM     23  H   UNL     1      46.740   2.640  16.680  0.00  0.00    +0.000 HD
ATOM     24  H   UNL     1      46.241   3.980  17.460  0.00  0.00    +0.000 HD
ENDBRANCH  21  22
ENDBRANCH  16  21
ENDBRANCH  15  19
ENDBRANCH   1  15
TORSDOF 5
ENDMDL
MODEL 6
REMARK VINA RESULT:    -6.272      4.072      6.657
REMARK INTER + INTRA:          -8.029
REMARK INTER:                  -7.751
REMARK INTRA:                  -0.278
REMARK UNBOUND:                -0.108
REMARK  Name = 
REMARK  5 active torsions:
REMARK  status: ('A' for Active; 'I' for Inactive)
REMARK    1  A    between atoms: N_1  and  C_2
REMARK    2  A    between atoms: C_2  and  C_3
REMARK    3  A    between atoms: C_6  and  C_7
REMARK    4  A    between atoms: C_7  and  N_8
REMARK    5  A    between atoms: C_13  and  C_14
REMARK                            x       y       z     vdW  Elec       q    Type
REMARK                         _______ _______ _______ _____ _____    ______ ____
ROOT
ATOM      1  N   UNL     1      47.388   6.572  12.865  0.00  0.00    +0.000 N 
ATOM      2  C   UNL     1      47.924   7.735  13.367  0.00  0.00    +0.000 A 
ATOM      3  C   UNL     1      48.283   7.515  14.674  0.00  0.00    +0.000 A 
ATOM      4  C   UNL     1      48.018   6.154  14.967  0.00  0.00    +0.000 A 
ATOM      5  C   UNL     1      48.173   5.374  16.122  0.00  0.00    +0.000 A 
ATOM      6  C   UNL     1      47.830   4.035  16.016  0.00  0.00    +0.000 A 
ATOM      7  N   UNL     1      47.394   3.437  14.870  0.00  0.00    +0.000 NA
ATOM      8  C   UNL     1      47.243   4.193  13.753  0.00  0.00    +0.000 A 
ATOM      9  C   UNL     1      47.517   5.560  13.802  0.00  0.00    +0.000 A 
ENDROOT
BRANCH   6  10
ATOM     10  C   UNL     1      47.913   3.172  17.244  0.00  0.00    +0.000 C 
ATOM     11  N   UNL     1      46.712   2.728  17.735  0.00  0.00    +0.000 N 
ATOM     12  O   UNL     1      48.969   2.891  17.791  0.00  0.00    +0.000 OA
ATOM     13  H   UNL     1      45.853   3.006  17.277  0.00  0.00    +0.000 HD
ATOM     14  H   UNL     1      46.694   2.180  18.578  0.00  0.00    +0.000 HD
ENDBRANCH   6  10
BRANCH   1  15
ATOM     15  C   UNL     1      46.849   6.470  11.515  0.00  0.00    +0.000 C 
BRANCH  15  19
ATOM     16  C   UNL     1      44.382   4.304  11.807  0.00  0.00    +0.000 C 
ATOM     17  C   UNL     1      43.845   5.205  12.916  0.00  0.00    +0.000 C 
ATOM     18  C   UNL     1      44.679   6.483  12.824  0.00  0.00    +0.000 C 
ATOM     19  C   UNL     1      45.307   6.515  11.411  0.00  0.00    +0.000 C 
ATOM     20  C   UNL     1      44.664   5.313  10.694  0.00  0.00    +0.000 C 
BRANCH  16  21
ATOM     21  C   UNL     1      43.397   3.193  11.439  0.00  0.00    +0.000 C 
BRANCH  21  22
ATOM     22  N   UNL     1      43.432   2.102  12.405  0.00  0.00    +0.000 NA
ATOM     23  H   UNL     1      43.397   1.211  11.909  0.00  0.00    +0.000 HD
ATOM     24  H   UNL     1      42.598   2.132  12.989  0.00  0.00    +0.000 HD
ENDBRANCH  21  22
ENDBRANCH  16  21
ENDBRANCH  15  19
ENDBRANCH   1  15
TORSDOF 5
ENDMDL
MODEL 7
REMARK VINA RESULT:    -6.260      4.469      8.145
REMARK INTER + INTRA:          -8.014
REMARK INTER:                  -7.627
REMARK INTRA:                  -0.387
REMARK UNBOUND:                -0.108
REMARK  Name = 
REMARK  5 active torsions:
REMARK  status: ('A' for Active; 'I' for Inactive)
REMARK    1  A    between atoms: N_1  and  C_2
REMARK    2  A    between atoms: C_2  and  C_3
REMARK    3  A    between atoms: C_6  and  C_7
REMARK    4  A    between atoms: C_7  and  N_8
REMARK    5  A    between atoms: C_13  and  C_14
REMARK                            x       y       z     vdW  Elec       q    Type
REMARK                         _______ _______ _______ _____ _____    ______ ____
ROOT
ATOM      1  N   UNL     1      47.145   5.012  14.318  0.00  0.00    +0.000 N 
ATOM      2  C   UNL     1      47.799   6.142  13.886  0.00  0.00    +0.000 A 
ATOM      3  C   UNL     1      48.484   6.676  14.950  0.00  0.00    +0.000 A 
ATOM      4  C   UNL     1      48.296   5.811  16.057  0.00  0.00    +0.000 A 
ATOM      5  C   UNL     1      48.742   5.844  17.386  0.00  0.00    +0.000 A 
ATOM      6  C   UNL     1      48.375   4.774  18.189  0.00  0.00    +0.000 A 
ATOM      7  N   UNL     1      47.653   3.699  17.763  0.00  0.00    +0.000 NA
ATOM      8  C   UNL     1      47.221   3.669  16.476  0.00  0.00    +0.000 A 
ATOM      9  C   UNL     1      47.506   4.737  15.627  0.00  0.00    +0.000 A 
ENDROOT
BRANCH   6  10
ATOM     10  C   UNL     1      48.769   4.797  19.640  0.00  0.00    +0.000 C 
ATOM     11  N   UNL     1      48.572   3.625  20.322  0.00  0.00    +0.000 N 
ATOM     12  O   UNL     1      49.220   5.789  20.193  0.00  0.00    +0.000 OA
ATOM     13  H   UNL     1      48.167   2.830  19.843  0.00  0.00    +0.000 HD
ATOM     14  H   UNL     1      48.777   3.585  21.307  0.00  0.00    +0.000 HD
ENDBRANCH   6  10
BRANCH   1  15
ATOM     15  C   UNL     1      46.272   4.226  13.453  0.00  0.00    +0.000 C 
BRANCH  15  19
ATOM     16  C   UNL     1      44.673   4.023  10.579  0.00  0.00    +0.000 C 
ATOM     17  C   UNL     1      43.394   3.909  11.404  0.00  0.00    +0.000 C 
ATOM     18  C   UNL     1      43.815   4.250  12.834  0.00  0.00    +0.000 C 
ATOM     19  C   UNL     1      45.153   5.020  12.742  0.00  0.00    +0.000 C 
ATOM     20  C   UNL     1      45.357   5.226  11.229  0.00  0.00    +0.000 C 
BRANCH  16  21
ATOM     21  C   UNL     1      44.384   4.174   9.085  0.00  0.00    +0.000 C 
BRANCH  21  22
ATOM     22  N   UNL     1      45.475   4.847   8.391  0.00  0.00    +0.000 NA
ATOM     23  H   UNL     1      45.495   5.829   8.667  0.00  0.00    +0.000 HD
ATOM     24  H   UNL     1      45.303   4.840   7.388  0.00  0.00    +0.000 HD
ENDBRANCH  21  22
ENDBRANCH  16  21
ENDBRANCH  15  19
ENDBRANCH   1  15
TORSDOF 5
ENDMDL
MODEL 8
REMARK VINA RESULT:    -6.143      2.109      2.977
REMARK INTER + INTRA:          -7.867
REMARK INTER:                  -7.727
REMARK INTRA:                  -0.139
REMARK UNBOUND:                -0.108
REMARK  Name = 
REMARK  5 active torsions:
REMARK  status: ('A' for Active; 'I' for Inactive)
REMARK    1  A    between atoms: N_1  and  C_2
REMARK    2  A    between atoms: C_2  and  C_3
REMARK    3  A    between atoms: C_6  and  C_7
REMARK    4  A    between atoms: C_7  and  N_8
REMARK    5  A    between atoms: C_13  and  C_14
REMARK                            x       y       z     vdW  Elec       q    Type
REMARK                         _______ _______ _______ _____ _____    ______ ____
ROOT
ATOM      1  N   UNL     1      44.299   4.682  10.598  0.00  0.00    +0.000 N 
ATOM      2  C   UNL     1      43.741   3.560  11.164  0.00  0.00    +0.000 A 
ATOM      3  C   UNL     1      44.114   2.469  10.417  0.00  0.00    +0.000 A 
ATOM      4  C   UNL     1      44.982   2.928   9.395  0.00  0.00    +0.000 A 
ATOM      5  C   UNL     1      45.657   2.282   8.349  0.00  0.00    +0.000 A 
ATOM      6  C   UNL     1      46.466   3.077   7.551  0.00  0.00    +0.000 A 
ATOM      7  N   UNL     1      46.668   4.412   7.741  0.00  0.00    +0.000 NA
ATOM      8  C   UNL     1      46.012   5.036   8.752  0.00  0.00    +0.000 A 
ATOM      9  C   UNL     1      45.139   4.310   9.561  0.00  0.00    +0.000 A 
ENDROOT
BRANCH   6  10
ATOM     10  C   UNL     1      47.157   2.445   6.375  0.00  0.00    +0.000 C 
ATOM     11  N   UNL     1      47.035   3.119   5.188  0.00  0.00    +0.000 N 
ATOM     12  O   UNL     1      47.775   1.393   6.451  0.00  0.00    +0.000 OA
ATOM     13  H   UNL     1      46.489   3.971   5.152  0.00  0.00    +0.000 HD
ATOM     14  H   UNL     1      47.439   2.728   4.353  0.00  0.00    +0.000 HD
ENDBRANCH   6  10
BRANCH   1  15
ATOM     15  C   UNL     1      44.057   6.026  11.107  0.00  0.00    +0.000 C 
BRANCH  15  19
ATOM     16  C   UNL     1      44.675   9.142  11.986  0.00  0.00    +0.000 C 
ATOM     17  C   UNL     1      45.547   8.559  13.095  0.00  0.00    +0.000 C 
ATOM     18  C   UNL     1      45.668   7.071  12.761  0.00  0.00    +0.000 C 
ATOM     19  C   UNL     1      45.314   6.912  11.264  0.00  0.00    +0.000 C 
ATOM     20  C   UNL     1      45.161   8.361  10.764  0.00  0.00    +0.000 C 
BRANCH  16  21
ATOM     21  C   UNL     1      44.816  10.661  11.880  0.00  0.00    +0.000 C 
BRANCH  21  22
ATOM     22  N   UNL     1      43.516  11.319  11.824  0.00  0.00    +0.000 NA
ATOM     23  H   UNL     1      42.785  10.638  12.031  0.00  0.00    +0.000 HD
ATOM     24  H   UNL     1      43.336  11.646  10.876  0.00  0.00    +0.000 HD
ENDBRANCH  21  22
ENDBRANCH  16  21
ENDBRANCH  15  19
ENDBRANCH   1  15
TORSDOF 5
ENDMDL
MODEL 9
REMARK VINA RESULT:    -5.796      3.658      5.365
REMARK INTER + INTRA:          -7.428
REMARK INTER:                  -6.966
REMARK INTRA:                  -0.463
REMARK UNBOUND:                -0.108
REMARK  Name = 
REMARK  5 active torsions:
REMARK  status: ('A' for Active; 'I' for Inactive)
REMARK    1  A    between atoms: N_1  and  C_2
REMARK    2  A    between atoms: C_2  and  C_3
REMARK    3  A    between atoms: C_6  and  C_7
REMARK    4  A    between atoms: C_7  and  N_8
REMARK    5  A    between atoms: C_13  and  C_14
REMARK                            x       y       z     vdW  Elec       q    Type
REMARK                         _______ _______ _______ _____ _____    ______ ____
ROOT
ATOM      1  N   UNL     1      46.215   7.696  12.756  0.00  0.00    +0.000 N 
ATOM      2  C   UNL     1      45.385   8.601  12.139  0.00  0.00    +0.000 A 
ATOM      3  C   UNL     1      44.448   7.904  11.417  0.00  0.00    +0.000 A 
ATOM      4  C   UNL     1      44.670   6.523  11.649  0.00  0.00    +0.000 A 
ATOM      5  C   UNL     1      44.042   5.359  11.183  0.00  0.00    +0.000 A 
ATOM      6  C   UNL     1      44.528   4.155  11.671  0.00  0.00    +0.000 A 
ATOM      7  N   UNL     1      45.535   4.041  12.584  0.00  0.00    +0.000 NA
ATOM      8  C   UNL     1      46.143   5.169  13.032  0.00  0.00    +0.000 A 
ATOM      9  C   UNL     1      45.743   6.411  12.543  0.00  0.00    +0.000 A 
ENDROOT
BRANCH   6  10
ATOM     10  C   UNL     1      43.934   2.877  11.149  0.00  0.00    +0.000 C 
ATOM     11  N   UNL     1      44.577   2.325  10.072  0.00  0.00    +0.000 N 
ATOM     12  O   UNL     1      42.936   2.360  11.631  0.00  0.00    +0.000 OA
ATOM     13  H   UNL     1      45.382   2.795   9.677  0.00  0.00    +0.000 HD
ATOM     14  H   UNL     1      44.207   1.490   9.649  0.00  0.00    +0.000 HD
ENDBRANCH   6  10
BRANCH   1  15
ATOM     15  C   UNL     1      47.362   8.098  13.561  0.00  0.00    +0.000 C 
BRANCH  15  19
ATOM     16  C   UNL     1      50.651   8.293  13.455  0.00  0.00    +0.000 C 
ATOM     17  C   UNL     1      50.524   8.064  11.951  0.00  0.00    +0.000 C 
ATOM     18  C   UNL     1      49.029   8.204  11.656  0.00  0.00    +0.000 C 
ATOM     19  C   UNL     1      48.404   8.981  12.837  0.00  0.00    +0.000 C 
ATOM     20  C   UNL     1      49.617   9.395  13.691  0.00  0.00    +0.000 C 
BRANCH  16  21
ATOM     21  C   UNL     1      52.080   8.649  13.865  0.00  0.00    +0.000 C 
BRANCH  21  22
ATOM     22  N   UNL     1      52.742   7.532  14.529  0.00  0.00    +0.000 NA
ATOM     23  H   UNL     1      52.355   6.655  14.180  0.00  0.00    +0.000 HD
ATOM     24  H   UNL     1      52.537   7.554  15.526  0.00  0.00    +0.000 HD
ENDBRANCH  21  22
ENDBRANCH  16  21
ENDBRANCH  15  19
ENDBRANCH   1  15
TORSDOF 5
ENDMDL
