MODEL 1
REMARK VINA RESULT:    -8.696      0.000      0.000
REMARK INTER + INTRA:         -11.368
REMARK INTER:                 -10.730
REMARK INTRA:                  -0.638
REMARK UNBOUND:                -0.638
REMARK  Name = 
REMARK  4 active torsions:
REMARK  status: ('A' for Active; 'I' for Inactive)
REMARK    1  A    between atoms: C_2  and  C_4
REMARK    2  A    between atoms: C_7  and  N_8
REMARK    3  A    between atoms: N_8  and  C_9
REMARK    4  A    between atoms: C_9  and  C_10
REMARK                            x       y       z     vdW  Elec       q    Type
REMARK                         _______ _______ _______ _____ _____    ______ ____
ROOT
ATOM      1  N   UNL     1      43.889   4.900   9.849  0.00  0.00    +0.000 N 
ATOM      2  H   UNL     1      42.967   4.939   9.426  0.00  0.00    +0.000 HD
ENDROOT
BRANCH   1   6
ATOM      3  C   UNL     1      46.513   2.386   7.680  0.00  0.00    +0.000 A 
ATOM      4  C   UNL     1      46.581   3.779   7.533  0.00  0.00    +0.000 A 
ATOM      5  C   UNL     1      45.721   4.600   8.272  0.00  0.00    +0.000 A 
ATOM      6  C   UNL     1      44.764   4.047   9.137  0.00  0.00    +0.000 A 
ATOM      7  C   UNL     1      44.747   2.655   9.306  0.00  0.00    +0.000 A 
ATOM      8  C   UNL     1      45.590   1.825   8.568  0.00  0.00    +0.000 A 
BRANCH   3  10
ATOM      9  N   UNL     1      48.485   2.013   6.290  0.00  0.00    +0.000 N 
ATOM     10  C   UNL     1      47.383   1.472   6.891  0.00  0.00    +0.000 C 
ATOM     11  O   UNL     1      47.145   0.273   6.804  0.00  0.00    +0.000 OA
ATOM     12  H   UNL     1      49.121   1.358   5.861  0.00  0.00    +0.000 HD
ATOM     13  H   UNL     1      48.851   2.919   6.550  0.00  0.00    +0.000 HD
ENDBRANCH   3  10
ENDBRANCH   1   6
BRANCH   1  14
ATOM     14  C   UNL     1      43.898   4.888  11.337  0.00  0.00    +0.000 C 
ATOM     15  C   UNL     1      42.965   3.885  12.000  0.00  0.00    +0.000 C 
ATOM     16  C   UNL     1      42.664   5.338  12.118  0.00  0.00    +0.000 C 
BRANCH  14  17
ATOM     17  C   UNL     1      45.190   5.408  11.969  0.00  0.00    +0.000 A 
ATOM     18  C   UNL     1      45.742   4.753  13.093  0.00  0.00    +0.000 A 
ATOM     19  C   UNL     1      46.996   5.095  13.610  0.00  0.00    +0.000 A 
ATOM     20  C   UNL     1      47.731   6.112  13.012  0.00  0.00    +0.000 A 
ATOM     21  C   UNL     1      47.188   6.797  11.935  0.00  0.00    +0.000 A 
ATOM     22  F   UNL     1      47.894   7.774  11.352  0.00  0.00    +0.000 F 
ATOM     23  C   UNL     1      45.933   6.468  11.426  0.00  0.00    +0.000 A 
ENDBRANCH  14  17
ENDBRANCH   1  14
TORSDOF 4
ENDMDL
MODEL 2
REMARK VINA RESULT:    -8.538      1.032      1.837
REMARK INTER + INTRA:         -11.173
REMARK INTER:                 -10.620
REMARK INTRA:                  -0.553
REMARK UNBOUND:                -0.638
REMARK  Name = 
REMARK  4 active torsions:
REMARK  status: ('A' for Active; 'I' for Inactive)
REMARK    1  A    between atoms: C_2  and  C_4
REMARK    2  A    between atoms: C_7  and  N_8
REMARK    3  A    between atoms: N_8  and  C_9
REMARK    4  A    between atoms: C_9  and  C_10
REMARK                            x       y       z     vdW  Elec       q    Type
REMARK                         _______ _______ _______ _____ _____    ______ ____
ROOT
ATOM      1  N   UNL     1      43.885   4.869  10.010  0.00  0.00    +0.000 N 
ATOM      2  H   UNL     1      42.932   4.881   9.662  0.00  0.00    +0.000 HD
ENDROOT
BRANCH   1   6
ATOM      3  C   UNL     1      46.370   2.273   7.778  0.00  0.00    +0.000 A 
ATOM      4  C   UNL     1      45.450   1.755   8.701  0.00  0.00    +0.000 A 
ATOM      5  C   UNL     1      44.620   2.624   9.418  0.00  0.00    +0.000 A 
ATOM      6  C   UNL     1      44.717   4.014   9.251  0.00  0.00    +0.000 A 
ATOM      7  C   UNL     1      45.609   4.507   8.287  0.00  0.00    +0.000 A 
ATOM      8  C   UNL     1      46.450   3.654   7.575  0.00  0.00    +0.000 A 
BRANCH   3  10
ATOM      9  N   UNL     1      48.323   1.988   6.339  0.00  0.00    +0.000 N 
ATOM     10  C   UNL     1      47.297   1.390   7.017  0.00  0.00    +0.000 C 
ATOM     11  O   UNL     1      47.172   0.171   7.019  0.00  0.00    +0.000 OA
ATOM     12  H   UNL     1      49.004   1.367   5.930  0.00  0.00    +0.000 HD
ATOM     13  H   UNL     1      48.609   2.940   6.523  0.00  0.00    +0.000 HD
ENDBRANCH   3  10
ENDBRANCH   1   6
BRANCH   1  14
ATOM     14  C   UNL     1      44.012   4.895  11.493  0.00  0.00    +0.000 C 
ATOM     15  C   UNL     1      43.082   3.965  12.257  0.00  0.00    +0.000 C 
ATOM     16  C   UNL     1      42.872   5.435  12.355  0.00  0.00    +0.000 C 
BRANCH  14  17
ATOM     17  C   UNL     1      45.378   5.356  12.006  0.00  0.00    +0.000 A 
ATOM     18  C   UNL     1      46.060   6.409  11.358  0.00  0.00    +0.000 A 
ATOM     19  C   UNL     1      47.233   6.965  11.879  0.00  0.00    +0.000 A 
ATOM     20  C   UNL     1      47.757   6.473  13.068  0.00  0.00    +0.000 A 
ATOM     21  C   UNL     1      47.127   5.409  13.697  0.00  0.00    +0.000 A 
ATOM     22  F   UNL     1      47.626   4.934  14.845  0.00  0.00    +0.000 F 
ATOM     23  C   UNL     1      45.967   4.844  13.174  0.00  0.00    +0.000 A 
ENDBRANCH  14  17
ENDBRANCH   1  14
TORSDOF 4
ENDMDL
MODEL 3
REMARK VINA RESULT:    -7.517      1.616      2.100
REMARK INTER + INTRA:          -9.913
REMARK INTER:                  -9.690
REMARK INTRA:                  -0.223
REMARK UNBOUND:                -0.638
REMARK  Name = 
REMARK  4 active torsions:
REMARK  status: ('A' for Active; 'I' for Inactive)
REMARK    1  A    between atoms: C_2  and  C_4
REMARK    2  A    between atoms: C_7  and  N_8
REMARK    3  A    between atoms: N_8  and  C_9
REMARK    4  A    between atoms: C_9  and  C_10
REMARK                            x       y       z     vdW  Elec       q    Type
REMARK                         _______ _______ _______ _____ _____    ______ ____
ROOT
ATOM      1  N   UNL     1      43.846   4.972  10.118  0.00  0.00    +0.000 N 
ATOM      2  H   UNL     1      42.870   4.950   9.839  0.00  0.00    +0.000 HD
ENDROOT
BRANCH   1   6
ATOM      3  C   UNL     1      46.159   2.100   8.043  0.00  0.00    +0.000 A 
ATOM      4  C   UNL     1      45.134   1.694   8.911  0.00  0.00    +0.000 A 
ATOM      5  C   UNL     1      44.364   2.655   9.576  0.00  0.00    +0.000 A 
ATOM      6  C   UNL     1      44.622   4.024   9.412  0.00  0.00    +0.000 A 
ATOM      7  C   UNL     1      45.618   4.409   8.502  0.00  0.00    +0.000 A 
ATOM      8  C   UNL     1      46.401   3.462   7.842  0.00  0.00    +0.000 A 
BRANCH   3  10
ATOM      9  N   UNL     1      46.860  -0.207   7.653  0.00  0.00    +0.000 N 
ATOM     10  C   UNL     1      47.026   1.114   7.342  0.00  0.00    +0.000 C 
ATOM     11  O   UNL     1      47.840   1.462   6.494  0.00  0.00    +0.000 OA
ATOM     12  H   UNL     1      47.372  -0.863   7.083  0.00  0.00    +0.000 HD
ATOM     13  H   UNL     1      46.041  -0.548   8.138  0.00  0.00    +0.000 HD
ENDBRANCH   3  10
ENDBRANCH   1   6
BRANCH   1  14
ATOM     14  C   UNL     1      44.077   5.176  11.574  0.00  0.00    +0.000 C 
ATOM     15  C   UNL     1      44.191   3.911  12.413  0.00  0.00    +0.000 C 
ATOM     16  C   UNL     1      43.001   4.787  12.587  0.00  0.00    +0.000 C 
BRANCH  14  17
ATOM     17  C   UNL     1      44.739   6.507  11.933  0.00  0.00    +0.000 A 
ATOM     18  C   UNL     1      45.804   6.542  12.860  0.00  0.00    +0.000 A 
ATOM     19  C   UNL     1      46.539   7.707  13.103  0.00  0.00    +0.000 A 
ATOM     20  C   UNL     1      46.219   8.875  12.422  0.00  0.00    +0.000 A 
ATOM     21  C   UNL     1      45.147   8.874  11.541  0.00  0.00    +0.000 A 
ATOM     22  F   UNL     1      44.837   9.996  10.880  0.00  0.00    +0.000 F 
ATOM     23  C   UNL     1      44.405   7.719  11.307  0.00  0.00    +0.000 A 
ENDBRANCH  14  17
ENDBRANCH   1  14
TORSDOF 4
ENDMDL
MODEL 4
REMARK VINA RESULT:    -6.787      3.779      6.408
REMARK INTER + INTRA:          -9.012
REMARK INTER:                  -9.272
REMARK INTRA:                   0.260
REMARK UNBOUND:                -0.638
REMARK  Name = 
REMARK  4 active torsions:
REMARK  status: ('A' for Active; 'I' for Inactive)
REMARK    1  A    between atoms: C_2  and  C_4
REMARK    2  A    between atoms: C_7  and  N_8
REMARK    3  A    between atoms: N_8  and  C_9
REMARK    4  A    between atoms: C_9  and  C_10
REMARK                            x       y       z     vdW  Elec       q    Type
REMARK                         _______ _______ _______ _____ _____    ______ ____
ROOT
ATOM      1  N   UNL     1      44.277   5.442  10.280  0.00  0.00    +0.000 N 
ATOM      2  H   UNL     1      44.173   5.808   9.339  0.00  0.00    +0.000 HD
ENDROOT
BRANCH   1   6
ATOM      3  C   UNL     1      46.706   7.917  12.705  0.00  0.00    +0.000 A 
ATOM      4  C   UNL     1      47.289   6.991  11.827  0.00  0.00    +0.000 A 
ATOM      5  C   UNL     1      46.474   6.193  11.016  0.00  0.00    +0.000 A 
ATOM      6  C   UNL     1      45.076   6.281  11.091  0.00  0.00    +0.000 A 
ATOM      7  C   UNL     1      44.515   7.248  11.940  0.00  0.00    +0.000 A 
ATOM      8  C   UNL     1      45.315   8.041  12.761  0.00  0.00    +0.000 A 
BRANCH   3  10
ATOM      9  N   UNL     1      47.846   8.249  14.839  0.00  0.00    +0.000 N 
ATOM     10  C   UNL     1      47.531   8.762  13.611  0.00  0.00    +0.000 C 
ATOM     11  O   UNL     1      47.942   9.864  13.267  0.00  0.00    +0.000 OA
ATOM     12  H   UNL     1      48.500   8.787  15.388  0.00  0.00    +0.000 HD
ATOM     13  H   UNL     1      47.753   7.266  15.053  0.00  0.00    +0.000 HD
ENDBRANCH   3  10
ENDBRANCH   1   6
BRANCH   1  14
ATOM     14  C   UNL     1      44.439   3.965  10.364  0.00  0.00    +0.000 C 
ATOM     15  C   UNL     1      43.425   3.232  11.230  0.00  0.00    +0.000 C 
ATOM     16  C   UNL     1      44.840   3.308  11.684  0.00  0.00    +0.000 C 
BRANCH  14  17
ATOM     17  C   UNL     1      45.166   3.336   9.174  0.00  0.00    +0.000 A 
ATOM     18  C   UNL     1      45.750   4.159   8.185  0.00  0.00    +0.000 A 
ATOM     19  C   UNL     1      46.552   3.638   7.165  0.00  0.00    +0.000 A 
ATOM     20  C   UNL     1      46.787   2.270   7.108  0.00  0.00    +0.000 A 
ATOM     21  C   UNL     1      46.186   1.439   8.043  0.00  0.00    +0.000 A 
ATOM     22  F   UNL     1      46.413   0.120   7.994  0.00  0.00    +0.000 F 
ATOM     23  C   UNL     1      45.375   1.953   9.052  0.00  0.00    +0.000 A 
ENDBRANCH  14  17
ENDBRANCH   1  14
TORSDOF 4
ENDMDL
MODEL 5
REMARK VINA RESULT:    -6.624      3.874      6.499
REMARK INTER + INTRA:          -8.810
REMARK INTER:                  -8.580
REMARK INTRA:                  -0.230
REMARK UNBOUND:                -0.638
REMARK  Name = 
REMARK  4 active torsions:
REMARK  status: ('A' for Active; 'I' for Inactive)
REMARK    1  A    between atoms: C_2  and  C_4
REMARK    2  A    between atoms: C_7  and  N_8
REMARK    3  A    between atoms: N_8  and  C_9
REMARK    4  A    between atoms: C_9  and  C_10
REMARK                            x       y       z     vdW  Elec       q    Type
REMARK                         _______ _______ _______ _____ _____    ______ ____
ROOT
ATOM      1  N   UNL     1      45.449   4.901  12.078  0.00  0.00    +0.000 N 
ATOM      2  H   UNL     1      45.258   4.504  12.992  0.00  0.00    +0.000 HD
ENDROOT
BRANCH   1   6
ATOM      3  C   UNL     1      47.017   8.822  12.349  0.00  0.00    +0.000 A 
ATOM      4  C   UNL     1      45.759   8.521  12.891  0.00  0.00    +0.000 A 
ATOM      5  C   UNL     1      45.261   7.215  12.813  0.00  0.00    +0.000 A 
ATOM      6  C   UNL     1      45.990   6.205  12.167  0.00  0.00    +0.000 A 
ATOM      7  C   UNL     1      47.266   6.516  11.675  0.00  0.00    +0.000 A 
ATOM      8  C   UNL     1      47.769   7.814  11.737  0.00  0.00    +0.000 A 
BRANCH   3  10
ATOM      9  N   UNL     1      48.012  10.680  13.582  0.00  0.00    +0.000 N 
ATOM     10  C   UNL     1      47.572  10.203  12.378  0.00  0.00    +0.000 C 
ATOM     11  O   UNL     1      47.664  10.882  11.362  0.00  0.00    +0.000 OA
ATOM     12  H   UNL     1      48.490  11.568  13.557  0.00  0.00    +0.000 HD
ATOM     13  H   UNL     1      48.193  10.072  14.369  0.00  0.00    +0.000 HD
ENDBRANCH   3  10
ENDBRANCH   1   6
BRANCH   1  14
ATOM     14  C   UNL     1      44.432   4.595  11.036  0.00  0.00    +0.000 C 
ATOM     15  C   UNL     1      43.176   5.455  11.059  0.00  0.00    +0.000 C 
ATOM     16  C   UNL     1      43.074   4.018  11.431  0.00  0.00    +0.000 C 
BRANCH  14  17
ATOM     17  C   UNL     1      44.990   3.923   9.780  0.00  0.00    +0.000 A 
ATOM     18  C   UNL     1      45.610   4.701   8.776  0.00  0.00    +0.000 A 
ATOM     19  C   UNL     1      46.268   4.120   7.688  0.00  0.00    +0.000 A 
ATOM     20  C   UNL     1      46.318   2.736   7.575  0.00  0.00    +0.000 A 
ATOM     21  C   UNL     1      45.677   1.955   8.526  0.00  0.00    +0.000 A 
ATOM     22  F   UNL     1      45.726   0.620   8.423  0.00  0.00    +0.000 F 
ATOM     23  C   UNL     1      45.009   2.531   9.603  0.00  0.00    +0.000 A 
ENDBRANCH  14  17
ENDBRANCH   1  14
TORSDOF 4
ENDMDL
MODEL 6
REMARK VINA RESULT:    -6.550      3.721      6.443
REMARK INTER + INTRA:          -8.719
REMARK INTER:                  -8.610
REMARK INTRA:                  -0.109
REMARK UNBOUND:                -0.638
REMARK  Name = 
REMARK  4 active torsions:
REMARK  status: ('A' for Active; 'I' for Inactive)
REMARK    1  A    between atoms: C_2  and  C_4
REMARK    2  A    between atoms: C_7  and  N_8
REMARK    3  A    between atoms: N_8  and  C_9
REMARK    4  A    between atoms: C_9  and  C_10
REMARK                            x       y       z     vdW  Elec       q    Type
REMARK                         _______ _______ _______ _____ _____    ______ ____
ROOT
ATOM      1  N   UNL     1      45.449   3.775  12.190  0.00  0.00    +0.000 N 
ATOM      2  H   UNL     1      45.206   3.212  12.999  0.00  0.00    +0.000 HD
ENDROOT
BRANCH   1   6
ATOM      3  C   UNL     1      47.246   7.429  13.340  0.00  0.00    +0.000 A 
ATOM      4  C   UNL     1      47.566   6.239  14.009  0.00  0.00    +0.000 A 
ATOM      5  C   UNL     1      46.980   5.034  13.606  0.00  0.00    +0.000 A 
ATOM      6  C   UNL     1      46.047   5.003  12.558  0.00  0.00    +0.000 A 
ATOM      7  C   UNL     1      45.779   6.196  11.870  0.00  0.00    +0.000 A 
ATOM      8  C   UNL     1      46.347   7.405  12.269  0.00  0.00    +0.000 A 
BRANCH   3  10
ATOM      9  N   UNL     1      47.479   9.212  14.993  0.00  0.00    +0.000 N 
ATOM     10  C   UNL     1      47.818   8.739  13.755  0.00  0.00    +0.000 C 
ATOM     11  O   UNL     1      48.589   9.363  13.035  0.00  0.00    +0.000 OA
ATOM     12  H   UNL     1      47.968  10.039  15.300  0.00  0.00    +0.000 HD
ATOM     13  H   UNL     1      47.069   8.619  15.703  0.00  0.00    +0.000 HD
ENDBRANCH   3  10
ENDBRANCH   1   6
BRANCH   1  14
ATOM     14  C   UNL     1      44.458   3.742  11.081  0.00  0.00    +0.000 C 
ATOM     15  C   UNL     1      43.212   4.595  11.276  0.00  0.00    +0.000 C 
ATOM     16  C   UNL     1      43.082   3.112  11.297  0.00  0.00    +0.000 C 
BRANCH  14  17
ATOM     17  C   UNL     1      45.042   3.374   9.716  0.00  0.00    +0.000 A 
ATOM     18  C   UNL     1      45.409   4.390   8.806  0.00  0.00    +0.000 A 
ATOM     19  C   UNL     1      46.086   4.110   7.614  0.00  0.00    +0.000 A 
ATOM     20  C   UNL     1      46.410   2.795   7.302  0.00  0.00    +0.000 A 
ATOM     21  C   UNL     1      46.019   1.778   8.161  0.00  0.00    +0.000 A 
ATOM     22  F   UNL     1      46.332   0.510   7.865  0.00  0.00    +0.000 F 
ATOM     23  C   UNL     1      45.332   2.053   9.341  0.00  0.00    +0.000 A 
ENDBRANCH  14  17
ENDBRANCH   1  14
TORSDOF 4
ENDMDL
