MODEL 1
REMARK VINA RESULT:    -7.894      0.000      0.000
REMARK INTER + INTRA:         -11.345
REMARK INTER:                 -10.662
REMARK INTRA:                  -0.683
REMARK UNBOUND:                -0.683
REMARK  Name = 
REMARK  6 active torsions:
REMARK  status: ('A' for Active; 'I' for Inactive)
REMARK    1  A    between atoms: C_2  and  C_25
REMARK    2  A    between atoms: N_3  and  C_4
REMARK    3  A    between atoms: C_4  and  C_5
REMARK    4  A    between atoms: C_8  and  C_9
REMARK    5  A    between atoms: C_9  and  N_10
REMARK    6  A    between atoms: C_11  and  C_13
REMARK                            x       y       z     vdW  Elec       q    Type
REMARK                         _______ _______ _______ _____ _____    ______ ____
ROOT
ATOM      1  C   UNL     1      44.588   5.497  11.233  0.00  0.00    +0.000 A 
ATOM      2  C   UNL     1      45.538   4.902  12.066  0.00  0.00    +0.000 A 
ATOM      3  C   UNL     1      46.390   5.698  12.830  0.00  0.00    +0.000 A 
ATOM      4  C   UNL     1      46.276   7.082  12.745  0.00  0.00    +0.000 A 
ATOM      5  N   UNL     1      45.337   7.684  11.969  0.00  0.00    +0.000 NA
ATOM      6  C   UNL     1      44.523   6.885  11.237  0.00  0.00    +0.000 A 
ENDROOT
BRANCH   1   7
ATOM      7  C   UNL     1      43.710   4.665  10.345  0.00  0.00    +0.000 C 
BRANCH   7  10
ATOM      8  O   UNL     1      45.547   5.091   8.350  0.00  0.00    +0.000 OA
ATOM      9  C   UNL     1      45.332   3.923   8.669  0.00  0.00    +0.000 C 
ATOM     10  N   UNL     1      44.419   3.613   9.661  0.00  0.00    +0.000 N 
ATOM     11  H   UNL     1      44.348   2.654   9.976  0.00  0.00    +0.000 HD
BRANCH   9  12
ATOM     12  C   UNL     1      46.016   2.800   8.040  0.00  0.00    +0.000 A 
ATOM     13  C   UNL     1      45.929   1.468   8.409  0.00  0.00    +0.000 A 
ATOM     14  C   UNL     1      46.763   0.624   7.623  0.00  0.00    +0.000 A 
ATOM     15  C   UNL     1      47.462   1.334   6.673  0.00  0.00    +0.000 A 
ATOM     16  S   UNL     1      47.089   3.002   6.717  0.00  0.00    +0.000 S 
ENDBRANCH   9  12
ENDBRANCH   7  10
ENDBRANCH   1   7
BRANCH   4  17
ATOM     17  C   UNL     1      47.211   7.970  13.531  0.00  0.00    +0.000 C 
BRANCH  17  18
ATOM     18  N   UNL     1      47.697   7.337  14.735  0.00  0.00    +0.000 N 
ATOM     19  C   UNL     1      48.997   6.939  14.893  0.00  0.00    +0.000 C 
ATOM     20  O   UNL     1      49.836   7.078  14.007  0.00  0.00    +0.000 OA
ATOM     21  H   UNL     1      46.982   6.986  15.366  0.00  0.00    +0.000 HD
BRANCH  19  22
ATOM     22  C   UNL     1      49.357   6.406  16.214  0.00  0.00    +0.000 A 
ATOM     23  C   UNL     1      50.316   7.053  16.982  0.00  0.00    +0.000 A 
ATOM     24  S   UNL     1      50.587   6.319  18.498  0.00  0.00    +0.000 S 
ATOM     25  C   UNL     1      49.461   5.088  18.164  0.00  0.00    +0.000 A 
ATOM     26  N   UNL     1      49.226   4.090  19.059  0.00  0.00    +0.000 NA
ATOM     27  C   UNL     1      48.369   3.209  18.663  0.00  0.00    +0.000 A 
ATOM     28  N   UNL     1      47.717   3.242  17.458  0.00  0.00    +0.000 N 
ATOM     29  C   UNL     1      47.882   4.253  16.548  0.00  0.00    +0.000 A 
ATOM     30  O   UNL     1      47.211   4.302  15.522  0.00  0.00    +0.000 OA
ATOM     31  C   UNL     1      48.864   5.253  16.926  0.00  0.00    +0.000 A 
ATOM     32  H   UNL     1      47.036   2.536  17.218  0.00  0.00    +0.000 HD
ENDBRANCH  19  22
ENDBRANCH  17  18
ENDBRANCH   4  17
TORSDOF 6
ENDMDL
MODEL 2
REMARK VINA RESULT:    -7.296      1.983      2.204
REMARK INTER + INTRA:         -10.538
REMARK INTER:                  -9.685
REMARK INTRA:                  -0.853
REMARK UNBOUND:                -0.683
REMARK  Name = 
REMARK  6 active torsions:
REMARK  status: ('A' for Active; 'I' for Inactive)
REMARK    1  A    between atoms: C_2  and  C_25
REMARK    2  A    between atoms: N_3  and  C_4
REMARK    3  A    between atoms: C_4  and  C_5
REMARK    4  A    between atoms: C_8  and  C_9
REMARK    5  A    between atoms: C_9  and  N_10
REMARK    6  A    between atoms: C_11  and  C_13
REMARK                            x       y       z     vdW  Elec       q    Type
REMARK                         _______ _______ _______ _____ _____    ______ ____
ROOT
ATOM      1  C   UNL     1      45.354   4.143  12.423  0.00  0.00    +0.000 A 
ATOM      2  C   UNL     1      46.346   3.628  13.261  0.00  0.00    +0.000 A 
ATOM      3  C   UNL     1      47.141   4.493  14.011  0.00  0.00    +0.000 A 
ATOM      4  C   UNL     1      46.929   5.864  13.908  0.00  0.00    +0.000 A 
ATOM      5  N   UNL     1      45.949   6.388  13.127  0.00  0.00    +0.000 NA
ATOM      6  C   UNL     1      45.191   5.523  12.409  0.00  0.00    +0.000 A 
ENDROOT
BRANCH   1   7
ATOM      7  C   UNL     1      44.535   3.239  11.549  0.00  0.00    +0.000 C 
BRANCH   7  10
ATOM      8  O   UNL     1      44.304   4.342   9.046  0.00  0.00    +0.000 OA
ATOM      9  C   UNL     1      45.071   3.388   9.165  0.00  0.00    +0.000 C 
ATOM     10  N   UNL     1      45.247   2.766  10.388  0.00  0.00    +0.000 N 
ATOM     11  H   UNL     1      45.965   2.059  10.476  0.00  0.00    +0.000 HD
BRANCH   9  12
ATOM     12  C   UNL     1      45.840   2.856   8.047  0.00  0.00    +0.000 A 
ATOM     13  C   UNL     1      46.215   3.541   6.903  0.00  0.00    +0.000 A 
ATOM     14  C   UNL     1      46.918   2.720   5.977  0.00  0.00    +0.000 A 
ATOM     15  C   UNL     1      47.062   1.433   6.439  0.00  0.00    +0.000 A 
ATOM     16  S   UNL     1      46.377   1.229   7.993  0.00  0.00    +0.000 S 
ENDBRANCH   9  12
ENDBRANCH   7  10
ENDBRANCH   1   7
BRANCH   4  17
ATOM     17  C   UNL     1      47.800   6.827  14.679  0.00  0.00    +0.000 C 
BRANCH  17  18
ATOM     18  N   UNL     1      48.932   6.177  15.300  0.00  0.00    +0.000 N 
ATOM     19  C   UNL     1      49.148   6.190  16.651  0.00  0.00    +0.000 C 
ATOM     20  O   UNL     1      48.399   6.776  17.428  0.00  0.00    +0.000 OA
ATOM     21  H   UNL     1      49.685   5.912  14.671  0.00  0.00    +0.000 HD
BRANCH  19  22
ATOM     22  C   UNL     1      50.286   5.395  17.133  0.00  0.00    +0.000 A 
ATOM     23  C   UNL     1      51.419   6.036  17.620  0.00  0.00    +0.000 A 
ATOM     24  S   UNL     1      52.627   4.963  18.167  0.00  0.00    +0.000 S 
ATOM     25  C   UNL     1      51.696   3.607  17.736  0.00  0.00    +0.000 A 
ATOM     26  N   UNL     1      52.170   2.344  17.917  0.00  0.00    +0.000 NA
ATOM     27  C   UNL     1      51.370   1.412  17.520  0.00  0.00    +0.000 A 
ATOM     28  N   UNL     1      50.133   1.628  16.968  0.00  0.00    +0.000 N 
ATOM     29  C   UNL     1      49.594   2.878  16.814  0.00  0.00    +0.000 A 
ATOM     30  O   UNL     1      48.446   3.030  16.407  0.00  0.00    +0.000 OA
ATOM     31  C   UNL     1      50.468   3.967  17.211  0.00  0.00    +0.000 A 
ATOM     32  H   UNL     1      49.543   0.853  16.701  0.00  0.00    +0.000 HD
ENDBRANCH  19  22
ENDBRANCH  17  18
ENDBRANCH   4  17
TORSDOF 6
ENDMDL
MODEL 3
REMARK VINA RESULT:    -6.341      4.505      7.719
REMARK INTER + INTRA:          -9.248
REMARK INTER:                  -8.342
REMARK INTRA:                  -0.906
REMARK UNBOUND:                -0.683
REMARK  Name = 
REMARK  6 active torsions:
REMARK  status: ('A' for Active; 'I' for Inactive)
REMARK    1  A    between atoms: C_2  and  C_25
REMARK    2  A    between atoms: N_3  and  C_4
REMARK    3  A    between atoms: C_4  and  C_5
REMARK    4  A    between atoms: C_8  and  C_9
REMARK    5  A    between atoms: C_9  and  N_10
REMARK    6  A    between atoms: C_11  and  C_13
REMARK                            x       y       z     vdW  Elec       q    Type
REMARK                         _______ _______ _______ _____ _____    ______ ____
ROOT
ATOM      1  C   UNL     1      50.501   8.629  11.995  0.00  0.00    +0.000 A 
ATOM      2  C   UNL     1      49.758   7.598  11.416  0.00  0.00    +0.000 A 
ATOM      3  C   UNL     1      48.419   7.426  11.762  0.00  0.00    +0.000 A 
ATOM      4  C   UNL     1      47.845   8.293  12.686  0.00  0.00    +0.000 A 
ATOM      5  N   UNL     1      48.537   9.325  13.238  0.00  0.00    +0.000 NA
ATOM      6  C   UNL     1      49.837   9.467  12.882  0.00  0.00    +0.000 A 
ENDROOT
BRANCH   1   7
ATOM      7  C   UNL     1      51.963   8.790  11.696  0.00  0.00    +0.000 C 
BRANCH   7  10
ATOM      8  O   UNL     1      54.129   7.145  11.330  0.00  0.00    +0.000 OA
ATOM      9  C   UNL     1      53.458   7.412  10.334  0.00  0.00    +0.000 C 
ATOM     10  N   UNL     1      52.352   8.238  10.423  0.00  0.00    +0.000 N 
ATOM     11  H   UNL     1      51.759   8.348   9.610  0.00  0.00    +0.000 HD
BRANCH   9  12
ATOM     12  C   UNL     1      53.772   6.884   9.012  0.00  0.00    +0.000 A 
ATOM     13  C   UNL     1      52.869   6.397   8.082  0.00  0.00    +0.000 A 
ATOM     14  C   UNL     1      53.503   5.906   6.906  0.00  0.00    +0.000 A 
ATOM     15  C   UNL     1      54.872   6.035   6.969  0.00  0.00    +0.000 A 
ATOM     16  S   UNL     1      55.380   6.768   8.428  0.00  0.00    +0.000 S 
ENDBRANCH   9  12
ENDBRANCH   7  10
ENDBRANCH   1   7
BRANCH   4  17
ATOM     17  C   UNL     1      46.407   8.107  13.110  0.00  0.00    +0.000 C 
BRANCH  17  18
ATOM     18  N   UNL     1      45.891   6.803  12.765  0.00  0.00    +0.000 N 
ATOM     19  C   UNL     1      44.850   6.622  11.894  0.00  0.00    +0.000 C 
ATOM     20  O   UNL     1      44.271   7.565  11.361  0.00  0.00    +0.000 OA
ATOM     21  H   UNL     1      46.176   6.042  13.375  0.00  0.00    +0.000 HD
BRANCH  19  22
ATOM     22  C   UNL     1      44.512   5.229  11.568  0.00  0.00    +0.000 A 
ATOM     23  C   UNL     1      43.752   4.478  12.455  0.00  0.00    +0.000 A 
ATOM     24  S   UNL     1      43.426   2.896  11.904  0.00  0.00    +0.000 S 
ATOM     25  C   UNL     1      44.323   3.148  10.481  0.00  0.00    +0.000 A 
ATOM     26  N   UNL     1      44.473   2.156   9.561  0.00  0.00    +0.000 NA
ATOM     27  C   UNL     1      45.201   2.477   8.545  0.00  0.00    +0.000 A 
ATOM     28  N   UNL     1      45.783   3.704   8.358  0.00  0.00    +0.000 N 
ATOM     29  C   UNL     1      45.617   4.748   9.230  0.00  0.00    +0.000 A 
ATOM     30  O   UNL     1      46.073   5.861   8.984  0.00  0.00    +0.000 OA
ATOM     31  C   UNL     1      44.837   4.431  10.413  0.00  0.00    +0.000 A 
ATOM     32  H   UNL     1      46.320   3.902   7.526  0.00  0.00    +0.000 HD
ENDBRANCH  19  22
ENDBRANCH  17  18
ENDBRANCH   4  17
TORSDOF 6
ENDMDL
MODEL 4
REMARK VINA RESULT:    -6.019      3.596      8.772
REMARK INTER + INTRA:          -8.814
REMARK INTER:                  -7.956
REMARK INTRA:                  -0.857
REMARK UNBOUND:                -0.683
REMARK  Name = 
REMARK  6 active torsions:
REMARK  status: ('A' for Active; 'I' for Inactive)
REMARK    1  A    between atoms: C_2  and  C_25
REMARK    2  A    between atoms: N_3  and  C_4
REMARK    3  A    between atoms: C_4  and  C_5
REMARK    4  A    between atoms: C_8  and  C_9
REMARK    5  A    between atoms: C_9  and  N_10
REMARK    6  A    between atoms: C_11  and  C_13
REMARK                            x       y       z     vdW  Elec       q    Type
REMARK                         _______ _______ _______ _____ _____    ______ ____
ROOT
ATOM      1  C   UNL     1      50.342   8.692  12.416  0.00  0.00    +0.000 A 
ATOM      2  C   UNL     1      49.563   9.782  12.024  0.00  0.00    +0.000 A 
ATOM      3  C   UNL     1      48.181   9.642  11.902  0.00  0.00    +0.000 A 
ATOM      4  C   UNL     1      47.602   8.407  12.174  0.00  0.00    +0.000 A 
ATOM      5  N   UNL     1      48.334   7.340  12.590  0.00  0.00    +0.000 NA
ATOM      6  C   UNL     1      49.675   7.506  12.700  0.00  0.00    +0.000 A 
ENDROOT
BRANCH   1   7
ATOM      7  C   UNL     1      51.837   8.795  12.484  0.00  0.00    +0.000 C 
BRANCH   7  10
ATOM      8  O   UNL     1      52.705   9.306  15.037  0.00  0.00    +0.000 OA
ATOM      9  C   UNL     1      52.844   8.157  14.621  0.00  0.00    +0.000 C 
ATOM     10  N   UNL     1      52.441   7.809  13.345  0.00  0.00    +0.000 N 
ATOM     11  H   UNL     1      52.467   6.834  13.074  0.00  0.00    +0.000 HD
BRANCH   9  12
ATOM     12  C   UNL     1      53.431   7.096  15.431  0.00  0.00    +0.000 A 
ATOM     13  C   UNL     1      52.815   6.412  16.466  0.00  0.00    +0.000 A 
ATOM     14  C   UNL     1      53.679   5.468  17.091  0.00  0.00    +0.000 A 
ATOM     15  C   UNL     1      54.928   5.456  16.514  0.00  0.00    +0.000 A 
ATOM     16  S   UNL     1      55.043   6.557  15.211  0.00  0.00    +0.000 S 
ENDBRANCH   9  12
ENDBRANCH   7  10
ENDBRANCH   1   7
BRANCH   4  17
ATOM     17  C   UNL     1      46.113   8.215  12.012  0.00  0.00    +0.000 C 
BRANCH  17  18
ATOM     18  N   UNL     1      45.750   6.832  11.804  0.00  0.00    +0.000 N 
ATOM     19  C   UNL     1      44.484   6.438  11.467  0.00  0.00    +0.000 C 
ATOM     20  O   UNL     1      43.562   7.239  11.337  0.00  0.00    +0.000 OA
ATOM     21  H   UNL     1      46.417   6.147  12.149  0.00  0.00    +0.000 HD
BRANCH  19  22
ATOM     22  C   UNL     1      44.302   5.006  11.189  0.00  0.00    +0.000 A 
ATOM     23  C   UNL     1      43.548   4.225  12.055  0.00  0.00    +0.000 A 
ATOM     24  S   UNL     1      43.414   2.597  11.563  0.00  0.00    +0.000 S 
ATOM     25  C   UNL     1      44.392   2.871  10.199  0.00  0.00    +0.000 A 
ATOM     26  N   UNL     1      44.705   1.858   9.345  0.00  0.00    +0.000 NA
ATOM     27  C   UNL     1      45.478   2.202   8.370  0.00  0.00    +0.000 A 
ATOM     28  N   UNL     1      45.957   3.470   8.164  0.00  0.00    +0.000 N 
ATOM     29  C   UNL     1      45.627   4.531   8.967  0.00  0.00    +0.000 A 
ATOM     30  O   UNL     1      45.996   5.670   8.698  0.00  0.00    +0.000 OA
ATOM     31  C   UNL     1      44.790   4.193  10.103  0.00  0.00    +0.000 A 
ATOM     32  H   UNL     1      46.537   3.682   7.365  0.00  0.00    +0.000 HD
ENDBRANCH  19  22
ENDBRANCH  17  18
ENDBRANCH   4  17
TORSDOF 6
ENDMDL
MODEL 5
REMARK VINA RESULT:    -5.376     10.290     12.441
REMARK INTER + INTRA:          -7.945
REMARK INTER:                  -6.939
REMARK INTRA:                  -1.006
REMARK UNBOUND:                -0.683
REMARK  Name = 
REMARK  6 active torsions:
REMARK  status: ('A' for Active; 'I' for Inactive)
REMARK    1  A    between atoms: C_2  and  C_25
REMARK    2  A    between atoms: N_3  and  C_4
REMARK    3  A    between atoms: C_4  and  C_5
REMARK    4  A    between atoms: C_8  and  C_9
REMARK    5  A    between atoms: C_9  and  N_10
REMARK    6  A    between atoms: C_11  and  C_13
REMARK                            x       y       z     vdW  Elec       q    Type
REMARK                         _______ _______ _______ _____ _____    ______ ____
ROOT
ATOM      1  C   UNL     1      36.763   1.222  14.520  0.00  0.00    +0.000 A 
ATOM      2  C   UNL     1      36.453   1.401  13.170  0.00  0.00    +0.000 A 
ATOM      3  C   UNL     1      36.813   0.428  12.239  0.00  0.00    +0.000 A 
ATOM      4  C   UNL     1      37.480  -0.711  12.678  0.00  0.00    +0.000 A 
ATOM      5  N   UNL     1      37.762  -0.925  13.990  0.00  0.00    +0.000 NA
ATOM      6  C   UNL     1      37.400   0.039  14.872  0.00  0.00    +0.000 A 
ENDROOT
BRANCH   1   7
ATOM      7  C   UNL     1      36.454   2.286  15.532  0.00  0.00    +0.000 C 
BRANCH   7  10
ATOM      8  O   UNL     1      38.556   3.665  16.634  0.00  0.00    +0.000 OA
ATOM      9  C   UNL     1      38.063   2.765  17.312  0.00  0.00    +0.000 C 
ATOM     10  N   UNL     1      37.004   2.014  16.836  0.00  0.00    +0.000 N 
ATOM     11  H   UNL     1      36.551   1.359  17.460  0.00  0.00    +0.000 HD
BRANCH   9  12
ATOM     12  C   UNL     1      38.548   2.435  18.646  0.00  0.00    +0.000 A 
ATOM     13  C   UNL     1      39.178   3.293  19.532  0.00  0.00    +0.000 A 
ATOM     14  C   UNL     1      39.575   2.646  20.736  0.00  0.00    +0.000 A 
ATOM     15  C   UNL     1      39.236   1.313  20.738  0.00  0.00    +0.000 A 
ATOM     16  S   UNL     1      38.419   0.857  19.306  0.00  0.00    +0.000 S 
ENDBRANCH   9  12
ENDBRANCH   7  10
ENDBRANCH   1   7
BRANCH   4  17
ATOM     17  C   UNL     1      37.917  -1.764  11.687  0.00  0.00    +0.000 C 
BRANCH  17  18
ATOM     18  N   UNL     1      38.702  -2.811  12.299  0.00  0.00    +0.000 N 
ATOM     19  C   UNL     1      40.069  -2.846  12.243  0.00  0.00    +0.000 C 
ATOM     20  O   UNL     1      40.721  -1.992  11.647  0.00  0.00    +0.000 OA
ATOM     21  H   UNL     1      38.187  -3.644  12.569  0.00  0.00    +0.000 HD
BRANCH  19  22
ATOM     22  C   UNL     1      40.723  -3.919  13.003  0.00  0.00    +0.000 A 
ATOM     23  C   UNL     1      41.017  -5.126  12.381  0.00  0.00    +0.000 A 
ATOM     24  S   UNL     1      41.803  -6.246  13.400  0.00  0.00    +0.000 S 
ATOM     25  C   UNL     1      41.742  -5.172  14.718  0.00  0.00    +0.000 A 
ATOM     26  N   UNL     1      42.231  -5.529  15.937  0.00  0.00    +0.000 NA
ATOM     27  C   UNL     1      42.093  -4.628  16.852  0.00  0.00    +0.000 A 
ATOM     28  N   UNL     1      41.520  -3.398  16.656  0.00  0.00    +0.000 N 
ATOM     29  C   UNL     1      41.062  -2.976  15.435  0.00  0.00    +0.000 A 
ATOM     30  O   UNL     1      40.643  -1.834  15.274  0.00  0.00    +0.000 OA
ATOM     31  C   UNL     1      41.158  -3.965  14.377  0.00  0.00    +0.000 A 
ATOM     32  H   UNL     1      41.466  -2.726  17.407  0.00  0.00    +0.000 HD
ENDBRANCH  19  22
ENDBRANCH  17  18
ENDBRANCH   4  17
TORSDOF 6
ENDMDL
MODEL 6
REMARK VINA RESULT:    -5.025     10.313     13.826
REMARK INTER + INTRA:          -7.470
REMARK INTER:                  -6.752
REMARK INTRA:                  -0.718
REMARK UNBOUND:                -0.683
REMARK  Name = 
REMARK  6 active torsions:
REMARK  status: ('A' for Active; 'I' for Inactive)
REMARK    1  A    between atoms: C_2  and  C_25
REMARK    2  A    between atoms: N_3  and  C_4
REMARK    3  A    between atoms: C_4  and  C_5
REMARK    4  A    between atoms: C_8  and  C_9
REMARK    5  A    between atoms: C_9  and  N_10
REMARK    6  A    between atoms: C_11  and  C_13
REMARK                            x       y       z     vdW  Elec       q    Type
REMARK                         _______ _______ _______ _____ _____    ______ ____
ROOT
ATOM      1  C   UNL     1      39.932  -2.044  17.220  0.00  0.00    +0.000 A 
ATOM      2  C   UNL     1      40.810  -3.130  17.208  0.00  0.00    +0.000 A 
ATOM      3  C   UNL     1      41.281  -3.631  15.995  0.00  0.00    +0.000 A 
ATOM      4  C   UNL     1      40.861  -3.034  14.811  0.00  0.00    +0.000 A 
ATOM      5  N   UNL     1      40.035  -1.955  14.798  0.00  0.00    +0.000 NA
ATOM      6  C   UNL     1      39.593  -1.490  15.992  0.00  0.00    +0.000 A 
ENDROOT
BRANCH   1   7
ATOM      7  C   UNL     1      39.352  -1.533  18.506  0.00  0.00    +0.000 C 
BRANCH   7  10
ATOM      8  O   UNL     1      39.403   0.315  20.535  0.00  0.00    +0.000 OA
ATOM      9  C   UNL     1      38.884   0.664  19.476  0.00  0.00    +0.000 C 
ATOM     10  N   UNL     1      38.809  -0.202  18.401  0.00  0.00    +0.000 N 
ATOM     11  H   UNL     1      38.478   0.151  17.513  0.00  0.00    +0.000 HD
BRANCH   9  12
ATOM     12  C   UNL     1      38.324   1.996  19.280  0.00  0.00    +0.000 A 
ATOM     13  C   UNL     1      38.592   2.857  18.229  0.00  0.00    +0.000 A 
ATOM     14  C   UNL     1      37.922   4.107  18.358  0.00  0.00    +0.000 A 
ATOM     15  C   UNL     1      37.160   4.164  19.501  0.00  0.00    +0.000 A 
ATOM     16  S   UNL     1      37.234   2.708  20.395  0.00  0.00    +0.000 S 
ENDBRANCH   9  12
ENDBRANCH   7  10
ENDBRANCH   1   7
BRANCH   4  17
ATOM     17  C   UNL     1      41.324  -3.579  13.481  0.00  0.00    +0.000 C 
BRANCH  17  18
ATOM     18  N   UNL     1      40.302  -3.500  12.463  0.00  0.00    +0.000 N 
ATOM     19  C   UNL     1      40.305  -2.551  11.477  0.00  0.00    +0.000 C 
ATOM     20  O   UNL     1      41.174  -1.686  11.404  0.00  0.00    +0.000 OA
ATOM     21  H   UNL     1      39.456  -4.031  12.649  0.00  0.00    +0.000 HD
BRANCH  19  22
ATOM     22  C   UNL     1      39.254  -2.671  10.457  0.00  0.00    +0.000 A 
ATOM     23  C   UNL     1      39.253  -3.756   9.591  0.00  0.00    +0.000 A 
ATOM     24  S   UNL     1      37.945  -3.753   8.495  0.00  0.00    +0.000 S 
ATOM     25  C   UNL     1      37.358  -2.281   9.114  0.00  0.00    +0.000 A 
ATOM     26  N   UNL     1      36.251  -1.690   8.589  0.00  0.00    +0.000 NA
ATOM     27  C   UNL     1      35.936  -0.565   9.136  0.00  0.00    +0.000 A 
ATOM     28  N   UNL     1      36.622   0.020  10.169  0.00  0.00    +0.000 N 
ATOM     29  C   UNL     1      37.711  -0.563  10.764  0.00  0.00    +0.000 A 
ATOM     30  O   UNL     1      38.242  -0.059  11.749  0.00  0.00    +0.000 OA
ATOM     31  C   UNL     1      38.132  -1.815  10.163  0.00  0.00    +0.000 A 
ATOM     32  H   UNL     1      36.308   0.890  10.573  0.00  0.00    +0.000 HD
ENDBRANCH  19  22
ENDBRANCH  17  18
ENDBRANCH   4  17
TORSDOF 6
ENDMDL
MODEL 7
REMARK VINA RESULT:    -4.920     10.100     11.166
REMARK INTER + INTRA:          -7.328
REMARK INTER:                  -6.407
REMARK INTRA:                  -0.921
REMARK UNBOUND:                -0.683
REMARK  Name = 
REMARK  6 active torsions:
REMARK  status: ('A' for Active; 'I' for Inactive)
REMARK    1  A    between atoms: C_2  and  C_25
REMARK    2  A    between atoms: N_3  and  C_4
REMARK    3  A    between atoms: C_4  and  C_5
REMARK    4  A    between atoms: C_8  and  C_9
REMARK    5  A    between atoms: C_9  and  N_10
REMARK    6  A    between atoms: C_11  and  C_13
REMARK                            x       y       z     vdW  Elec       q    Type
REMARK                         _______ _______ _______ _____ _____    ______ ____
ROOT
ATOM      1  C   UNL     1      41.203  -3.732  14.564  0.00  0.00    +0.000 A 
ATOM      2  C   UNL     1      41.716  -4.514  15.601  0.00  0.00    +0.000 A 
ATOM      3  C   UNL     1      41.435  -4.185  16.926  0.00  0.00    +0.000 A 
ATOM      4  C   UNL     1      40.642  -3.073  17.191  0.00  0.00    +0.000 A 
ATOM      5  N   UNL     1      40.102  -2.316  16.200  0.00  0.00    +0.000 NA
ATOM      6  C   UNL     1      40.393  -2.660  14.921  0.00  0.00    +0.000 A 
ENDROOT
BRANCH   1   7
ATOM      7  C   UNL     1      41.551  -4.019  13.134  0.00  0.00    +0.000 C 
BRANCH   7  10
ATOM      8  O   UNL     1      41.219  -1.805  11.546  0.00  0.00    +0.000 OA
ATOM      9  C   UNL     1      40.363  -2.684  11.461  0.00  0.00    +0.000 C 
ATOM     10  N   UNL     1      40.446  -3.833  12.227  0.00  0.00    +0.000 N 
ATOM     11  H   UNL     1      39.790  -4.583  12.052  0.00  0.00    +0.000 HD
BRANCH   9  12
ATOM     12  C   UNL     1      39.223  -2.583  10.559  0.00  0.00    +0.000 A 
ATOM     13  C   UNL     1      38.959  -3.394   9.468  0.00  0.00    +0.000 A 
ATOM     14  C   UNL     1      37.788  -3.000   8.760  0.00  0.00    +0.000 A 
ATOM     15  C   UNL     1      37.189  -1.901   9.332  0.00  0.00    +0.000 A 
ATOM     16  S   UNL     1      38.022  -1.371  10.728  0.00  0.00    +0.000 S 
ENDBRANCH   9  12
ENDBRANCH   7  10
ENDBRANCH   1   7
BRANCH   4  17
ATOM     17  C   UNL     1      40.352  -2.670  18.617  0.00  0.00    +0.000 C 
BRANCH  17  18
ATOM     18  N   UNL     1      40.033  -1.267  18.744  0.00  0.00    +0.000 N 
ATOM     19  C   UNL     1      39.027  -0.802  19.547  0.00  0.00    +0.000 C 
ATOM     20  O   UNL     1      38.313  -1.556  20.203  0.00  0.00    +0.000 OA
ATOM     21  H   UNL     1      40.430  -0.660  18.032  0.00  0.00    +0.000 HD
BRANCH  19  22
ATOM     22  C   UNL     1      38.897   0.658  19.646  0.00  0.00    +0.000 A 
ATOM     23  C   UNL     1      39.157   1.294  20.854  0.00  0.00    +0.000 A 
ATOM     24  S   UNL     1      38.990   2.991  20.781  0.00  0.00    +0.000 S 
ATOM     25  C   UNL     1      38.526   2.930  19.145  0.00  0.00    +0.000 A 
ATOM     26  N   UNL     1      38.204   4.063  18.464  0.00  0.00    +0.000 NA
ATOM     27  C   UNL     1      37.844   3.867  17.241  0.00  0.00    +0.000 A 
ATOM     28  N   UNL     1      37.786   2.639  16.632  0.00  0.00    +0.000 N 
ATOM     29  C   UNL     1      38.150   1.478  17.261  0.00  0.00    +0.000 A 
ATOM     30  O   UNL     1      38.179   0.410  16.657  0.00  0.00    +0.000 OA
ATOM     31  C   UNL     1      38.529   1.636  18.653  0.00  0.00    +0.000 A 
ATOM     32  H   UNL     1      37.522   2.554  15.661  0.00  0.00    +0.000 HD
ENDBRANCH  19  22
ENDBRANCH  17  18
ENDBRANCH   4  17
TORSDOF 6
ENDMDL
MODEL 8
REMARK VINA RESULT:    -4.911     10.965     13.867
REMARK INTER + INTRA:          -7.317
REMARK INTER:                  -6.341
REMARK INTRA:                  -0.976
REMARK UNBOUND:                -0.683
REMARK  Name = 
REMARK  6 active torsions:
REMARK  status: ('A' for Active; 'I' for Inactive)
REMARK    1  A    between atoms: C_2  and  C_25
REMARK    2  A    between atoms: N_3  and  C_4
REMARK    3  A    between atoms: C_4  and  C_5
REMARK    4  A    between atoms: C_8  and  C_9
REMARK    5  A    between atoms: C_9  and  N_10
REMARK    6  A    between atoms: C_11  and  C_13
REMARK                            x       y       z     vdW  Elec       q    Type
REMARK                         _______ _______ _______ _____ _____    ______ ____
ROOT
ATOM      1  C   UNL     1      36.997   0.088   9.442  0.00  0.00    +0.000 A 
ATOM      2  C   UNL     1      36.984  -1.089   8.692  0.00  0.00    +0.000 A 
ATOM      3  C   UNL     1      36.775  -1.036   7.314  0.00  0.00    +0.000 A 
ATOM      4  C   UNL     1      36.581   0.202   6.710  0.00  0.00    +0.000 A 
ATOM      5  N   UNL     1      36.624   1.365   7.412  0.00  0.00    +0.000 NA
ATOM      6  C   UNL     1      36.829   1.281   8.750  0.00  0.00    +0.000 A 
ENDROOT
BRANCH   1   7
ATOM      7  C   UNL     1      37.145   0.052  10.934  0.00  0.00    +0.000 C 
BRANCH   7  10
ATOM      8  O   UNL     1      36.945  -1.782  12.966  0.00  0.00    +0.000 OA
ATOM      9  C   UNL     1      38.038  -1.681  12.412  0.00  0.00    +0.000 C 
ATOM     10  N   UNL     1      38.234  -0.780  11.382  0.00  0.00    +0.000 N 
ATOM     11  H   UNL     1      39.109  -0.801  10.875  0.00  0.00    +0.000 HD
BRANCH   9  12
ATOM     12  C   UNL     1      39.187  -2.495  12.792  0.00  0.00    +0.000 A 
ATOM     13  C   UNL     1      40.346  -2.680  12.058  0.00  0.00    +0.000 A 
ATOM     14  C   UNL     1      41.257  -3.577  12.686  0.00  0.00    +0.000 A 
ATOM     15  C   UNL     1      40.768  -4.050  13.882  0.00  0.00    +0.000 A 
ATOM     16  S   UNL     1      39.235  -3.391  14.253  0.00  0.00    +0.000 S 
ENDBRANCH   9  12
ENDBRANCH   7  10
ENDBRANCH   1   7
BRANCH   4  17
ATOM     17  C   UNL     1      36.314   0.289   5.226  0.00  0.00    +0.000 C 
BRANCH  17  18
ATOM     18  N   UNL     1      37.175   1.239   4.561  0.00  0.00    +0.000 N 
ATOM     19  C   UNL     1      38.464   0.951   4.202  0.00  0.00    +0.000 C 
ATOM     20  O   UNL     1      38.982  -0.137   4.442  0.00  0.00    +0.000 OA
ATOM     21  H   UNL     1      36.862   2.205   4.583  0.00  0.00    +0.000 HD
BRANCH  19  22
ATOM     22  C   UNL     1      39.173   1.988   3.441  0.00  0.00    +0.000 A 
ATOM     23  C   UNL     1      39.696   1.690   2.189  0.00  0.00    +0.000 A 
ATOM     24  S   UNL     1      40.457   3.017   1.433  0.00  0.00    +0.000 S 
ATOM     25  C   UNL     1      40.150   4.024   2.770  0.00  0.00    +0.000 A 
ATOM     26  N   UNL     1      40.574   5.317   2.786  0.00  0.00    +0.000 NA
ATOM     27  C   UNL     1      40.298   5.955   3.874  0.00  0.00    +0.000 A 
ATOM     28  N   UNL     1      39.626   5.422   4.943  0.00  0.00    +0.000 N 
ATOM     29  C   UNL     1      39.134   4.142   4.950  0.00  0.00    +0.000 A 
ATOM     30  O   UNL     1      38.453   3.728   5.883  0.00  0.00    +0.000 OA
ATOM     31  C   UNL     1      39.449   3.366   3.765  0.00  0.00    +0.000 A 
ATOM     32  H   UNL     1      39.416   5.982   5.755  0.00  0.00    +0.000 HD
ENDBRANCH  19  22
ENDBRANCH  17  18
ENDBRANCH   4  17
TORSDOF 6
ENDMDL
