MODEL 1
REMARK VINA RESULT:    -7.397      0.000      0.000
REMARK INTER + INTRA:         -12.404
REMARK INTER:                 -10.857
REMARK INTRA:                  -1.547
REMARK UNBOUND:                -1.547
REMARK  Name = 
REMARK  9 active torsions:
REMARK  status: ('A' for Active; 'I' for Inactive)
REMARK    1  A    between atoms: C_1  and  C_2
REMARK    2  A    between atoms: C_2  and  O_3
REMARK    3  A    between atoms: O_3  and  C_4
REMARK    4  A    between atoms: C_4  and  C_6
REMARK    5  A    between atoms: N_13  and  C_14
REMARK    6  A    between atoms: C_14  and  C_15
REMARK    7  A    between atoms: C_18  and  C_19
REMARK    8  A    between atoms: C_19  and  N_20
REMARK    9  A    between atoms: C_21  and  C_23
REMARK                            x       y       z     vdW  Elec       q    Type
REMARK                         _______ _______ _______ _____ _____    ______ ____
ROOT
ATOM      1  C   UNL     1      49.614   6.978  17.337  0.00  0.00    +0.000 A 
ATOM      2  C   UNL     1      49.575   6.326  16.097  0.00  0.00    +0.000 A 
ATOM      3  C   UNL     1      48.962   6.930  14.992  0.00  0.00    +0.000 A 
ATOM      4  C   UNL     1      48.398   8.208  15.099  0.00  0.00    +0.000 A 
ATOM      5  C   UNL     1      48.404   8.842  16.348  0.00  0.00    +0.000 A 
ATOM      6  C   UNL     1      49.014   8.239  17.453  0.00  0.00    +0.000 A 
ENDROOT
BRANCH   1   7
ATOM      7  C   UNL     1      50.302   6.353  18.523  0.00  0.00    +0.000 C 
BRANCH   7  15
ATOM      8  C   UNL     1      50.980   2.096  17.412  0.00  0.00    +0.000 A 
ATOM      9  C   UNL     1      51.648   0.903  17.671  0.00  0.00    +0.000 A 
ATOM     10  C   UNL     1      52.976   1.200  18.024  0.00  0.00    +0.000 A 
ATOM     11  C   UNL     1      53.108   2.563  17.943  0.00  0.00    +0.000 A 
ATOM     12  N   UNL     1      51.874   3.140  17.668  0.00  0.00    +0.000 N 
ATOM     13  C   UNL     1      51.689   4.542  17.674  0.00  0.00    +0.000 C 
ATOM     14  O   UNL     1      52.591   5.265  17.274  0.00  0.00    +0.000 OA
ATOM     15  N   UNL     1      50.550   4.943  18.326  0.00  0.00    +0.000 N 
ATOM     16  H   UNL     1      49.812   4.288  18.555  0.00  0.00    +0.000 HD
BRANCH   8  17
ATOM     17  C   UNL     1      49.628   2.258  16.932  0.00  0.00    +0.000 C 
ATOM     18  O   UNL     1      49.238   2.052  15.791  0.00  0.00    +0.000 OA
BRANCH  17  19
ATOM     19  O   UNL     1      48.854   2.778  17.928  0.00  0.00    +0.000 OA
BRANCH  19  21
ATOM     20  C   UNL     1      47.092   4.328  17.516  0.00  0.00    +0.000 C 
ATOM     21  C   UNL     1      47.453   2.859  17.638  0.00  0.00    +0.000 C 
ENDBRANCH  19  21
ENDBRANCH  17  19
ENDBRANCH   8  17
ENDBRANCH   7  15
ENDBRANCH   1   7
BRANCH   4  22
ATOM     22  C   UNL     1      47.777   8.884  13.904  0.00  0.00    +0.000 C 
BRANCH  22  23
ATOM     23  N   UNL     1      46.584   8.206  13.473  0.00  0.00    +0.000 N 
ATOM     24  C   UNL     1      46.605   7.346  12.403  0.00  0.00    +0.000 C 
ATOM     25  O   UNL     1      47.596   7.211  11.694  0.00  0.00    +0.000 OA
ATOM     26  H   UNL     1      45.828   8.142  14.147  0.00  0.00    +0.000 HD
BRANCH  24  27
ATOM     27  C   UNL     1      45.370   6.604  12.138  0.00  0.00    +0.000 A 
ATOM     28  C   UNL     1      44.282   7.246  11.562  0.00  0.00    +0.000 A 
ATOM     29  S   UNL     1      42.943   6.220  11.296  0.00  0.00    +0.000 S 
ATOM     30  C   UNL     1      43.798   4.866  11.873  0.00  0.00    +0.000 A 
ATOM     31  N   UNL     1      43.249   3.623  11.841  0.00  0.00    +0.000 NA
ATOM     32  C   UNL     1      44.027   2.682  12.268  0.00  0.00    +0.000 A 
ATOM     33  N   UNL     1      45.294   2.879  12.751  0.00  0.00    +0.000 N 
ATOM     34  C   UNL     1      45.867   4.123  12.857  0.00  0.00    +0.000 A 
ATOM     35  O   UNL     1      46.968   4.273  13.378  0.00  0.00    +0.000 OA
ATOM     36  C   UNL     1      45.059   5.202  12.327  0.00  0.00    +0.000 A 
ATOM     37  H   UNL     1      45.836   2.107  13.109  0.00  0.00    +0.000 HD
ENDBRANCH  24  27
ENDBRANCH  22  23
ENDBRANCH   4  22
TORSDOF 8
ENDMDL
MODEL 2
REMARK VINA RESULT:    -6.980      3.221      8.620
REMARK INTER + INTRA:         -11.791
REMARK INTER:                 -10.518
REMARK INTRA:                  -1.273
REMARK UNBOUND:                -1.547
REMARK  Name = 
REMARK  9 active torsions:
REMARK  status: ('A' for Active; 'I' for Inactive)
REMARK    1  A    between atoms: C_1  and  C_2
REMARK    2  A    between atoms: C_2  and  O_3
REMARK    3  A    between atoms: O_3  and  C_4
REMARK    4  A    between atoms: C_4  and  C_6
REMARK    5  A    between atoms: N_13  and  C_14
REMARK    6  A    between atoms: C_14  and  C_15
REMARK    7  A    between atoms: C_18  and  C_19
REMARK    8  A    between atoms: C_19  and  N_20
REMARK    9  A    between atoms: C_21  and  C_23
REMARK                            x       y       z     vdW  Elec       q    Type
REMARK                         _______ _______ _______ _____ _____    ______ ____
ROOT
ATOM      1  C   UNL     1      47.756   6.270  14.117  0.00  0.00    +0.000 A 
ATOM      2  C   UNL     1      48.447   7.158  14.953  0.00  0.00    +0.000 A 
ATOM      3  C   UNL     1      48.693   6.834  16.293  0.00  0.00    +0.000 A 
ATOM      4  C   UNL     1      48.274   5.604  16.817  0.00  0.00    +0.000 A 
ATOM      5  C   UNL     1      47.550   4.734  15.991  0.00  0.00    +0.000 A 
ATOM      6  C   UNL     1      47.303   5.058  14.653  0.00  0.00    +0.000 A 
ENDROOT
BRANCH   1   7
ATOM      7  C   UNL     1      47.518   6.595  12.665  0.00  0.00    +0.000 C 
BRANCH   7  15
ATOM      8  C   UNL     1      44.858   3.546  10.811  0.00  0.00    +0.000 A 
ATOM      9  C   UNL     1      44.582   2.733   9.715  0.00  0.00    +0.000 A 
ATOM     10  C   UNL     1      44.859   3.454   8.541  0.00  0.00    +0.000 A 
ATOM     11  C   UNL     1      45.266   4.703   8.934  0.00  0.00    +0.000 A 
ATOM     12  N   UNL     1      45.369   4.750  10.319  0.00  0.00    +0.000 N 
ATOM     13  C   UNL     1      45.908   5.874  10.989  0.00  0.00    +0.000 C 
ATOM     14  O   UNL     1      45.696   6.993  10.544  0.00  0.00    +0.000 OA
ATOM     15  N   UNL     1      46.792   5.546  11.986  0.00  0.00    +0.000 N 
ATOM     16  H   UNL     1      46.853   4.604  12.352  0.00  0.00    +0.000 HD
BRANCH   8  17
ATOM     17  C   UNL     1      44.635   3.244  12.205  0.00  0.00    +0.000 C 
ATOM     18  O   UNL     1      45.452   2.764  12.979  0.00  0.00    +0.000 OA
BRANCH  17  19
ATOM     19  O   UNL     1      43.328   3.483  12.515  0.00  0.00    +0.000 OA
BRANCH  19  21
ATOM     20  C   UNL     1      42.295   5.540  11.902  0.00  0.00    +0.000 C 
ATOM     21  C   UNL     1      43.043   4.801  12.997  0.00  0.00    +0.000 C 
ENDBRANCH  19  21
ENDBRANCH  17  19
ENDBRANCH   8  17
ENDBRANCH   7  15
ENDBRANCH   1   7
BRANCH   4  22
ATOM     22  C   UNL     1      48.573   5.227  18.245  0.00  0.00    +0.000 C 
BRANCH  22  23
ATOM     23  N   UNL     1      49.762   4.421  18.342  0.00  0.00    +0.000 N 
ATOM     24  C   UNL     1      50.993   4.996  18.528  0.00  0.00    +0.000 C 
ATOM     25  O   UNL     1      51.159   6.211  18.493  0.00  0.00    +0.000 OA
ATOM     26  H   UNL     1      49.629   3.443  18.576  0.00  0.00    +0.000 HD
BRANCH  24  27
ATOM     27  C   UNL     1      52.114   4.080  18.753  0.00  0.00    +0.000 A 
ATOM     28  C   UNL     1      53.152   4.443  19.601  0.00  0.00    +0.000 A 
ATOM     29  S   UNL     1      54.352   3.240  19.769  0.00  0.00    +0.000 S 
ATOM     30  C   UNL     1      53.489   2.163  18.772  0.00  0.00    +0.000 A 
ATOM     31  N   UNL     1      53.929   0.894  18.563  0.00  0.00    +0.000 NA
ATOM     32  C   UNL     1      53.151   0.173  17.823  0.00  0.00    +0.000 A 
ATOM     33  N   UNL     1      51.989   0.618  17.249  0.00  0.00    +0.000 N 
ATOM     34  C   UNL     1      51.537   1.908  17.385  0.00  0.00    +0.000 A 
ATOM     35  O   UNL     1      50.541   2.299  16.784  0.00  0.00    +0.000 OA
ATOM     36  C   UNL     1      52.339   2.736  18.262  0.00  0.00    +0.000 A 
ATOM     37  H   UNL     1      51.447   0.017  16.646  0.00  0.00    +0.000 HD
ENDBRANCH  24  27
ENDBRANCH  22  23
ENDBRANCH   4  22
TORSDOF 8
ENDMDL
MODEL 3
REMARK VINA RESULT:    -6.443      3.906      5.733
REMARK INTER + INTRA:         -11.003
REMARK INTER:                 -10.094
REMARK INTRA:                  -0.909
REMARK UNBOUND:                -1.547
REMARK  Name = 
REMARK  9 active torsions:
REMARK  status: ('A' for Active; 'I' for Inactive)
REMARK    1  A    between atoms: C_1  and  C_2
REMARK    2  A    between atoms: C_2  and  O_3
REMARK    3  A    between atoms: O_3  and  C_4
REMARK    4  A    between atoms: C_4  and  C_6
REMARK    5  A    between atoms: N_13  and  C_14
REMARK    6  A    between atoms: C_14  and  C_15
REMARK    7  A    between atoms: C_18  and  C_19
REMARK    8  A    between atoms: C_19  and  N_20
REMARK    9  A    between atoms: C_21  and  C_23
REMARK                            x       y       z     vdW  Elec       q    Type
REMARK                         _______ _______ _______ _____ _____    ______ ____
ROOT
ATOM      1  C   UNL     1      46.886   7.589  13.188  0.00  0.00    +0.000 A 
ATOM      2  C   UNL     1      47.299   6.316  12.771  0.00  0.00    +0.000 A 
ATOM      3  C   UNL     1      46.494   5.546  11.923  0.00  0.00    +0.000 A 
ATOM      4  C   UNL     1      45.271   6.045  11.454  0.00  0.00    +0.000 A 
ATOM      5  C   UNL     1      44.842   7.302  11.902  0.00  0.00    +0.000 A 
ATOM      6  C   UNL     1      45.645   8.069  12.751  0.00  0.00    +0.000 A 
ENDROOT
BRANCH   1   7
ATOM      7  C   UNL     1      47.762   8.439  14.072  0.00  0.00    +0.000 C 
BRANCH   7  15
ATOM      8  C   UNL     1      48.877   6.467  17.903  0.00  0.00    +0.000 A 
ATOM      9  C   UNL     1      48.737   6.417  19.287  0.00  0.00    +0.000 A 
ATOM     10  C   UNL     1      48.689   7.732  19.781  0.00  0.00    +0.000 A 
ATOM     11  C   UNL     1      48.834   8.563  18.699  0.00  0.00    +0.000 A 
ATOM     12  N   UNL     1      48.850   7.813  17.529  0.00  0.00    +0.000 N 
ATOM     13  C   UNL     1      48.842   8.423  16.253  0.00  0.00    +0.000 C 
ATOM     14  O   UNL     1      49.448   9.473  16.089  0.00  0.00    +0.000 OA
ATOM     15  N   UNL     1      47.969   7.839  15.370  0.00  0.00    +0.000 N 
ATOM     16  H   UNL     1      47.567   6.926  15.548  0.00  0.00    +0.000 HD
BRANCH   8  17
ATOM     17  C   UNL     1      49.055   5.355  16.999  0.00  0.00    +0.000 C 
ATOM     18  O   UNL     1      50.102   4.758  16.788  0.00  0.00    +0.000 OA
BRANCH  17  19
ATOM     19  O   UNL     1      47.890   5.127  16.327  0.00  0.00    +0.000 OA
BRANCH  19  21
ATOM     20  C   UNL     1      47.480   3.098  17.506  0.00  0.00    +0.000 C 
ATOM     21  C   UNL     1      47.551   3.749  16.136  0.00  0.00    +0.000 C 
ENDBRANCH  19  21
ENDBRANCH  17  19
ENDBRANCH   8  17
ENDBRANCH   7  15
ENDBRANCH   1   7
BRANCH   4  22
ATOM     22  C   UNL     1      44.419   5.243  10.505  0.00  0.00    +0.000 C 
BRANCH  22  23
ATOM     23  N   UNL     1      45.202   4.282   9.773  0.00  0.00    +0.000 N 
ATOM     24  C   UNL     1      44.735   3.011   9.550  0.00  0.00    +0.000 C 
ATOM     25  O   UNL     1      43.701   2.596  10.062  0.00  0.00    +0.000 OA
ATOM     26  H   UNL     1      45.939   4.652   9.182  0.00  0.00    +0.000 HD
BRANCH  24  27
ATOM     27  C   UNL     1      45.548   2.162   8.677  0.00  0.00    +0.000 A 
ATOM     28  C   UNL     1      45.457   0.779   8.768  0.00  0.00    +0.000 A 
ATOM     29  S   UNL     1      46.451  -0.048   7.653  0.00  0.00    +0.000 S 
ATOM     30  C   UNL     1      46.983   1.414   6.960  0.00  0.00    +0.000 A 
ATOM     31  N   UNL     1      47.804   1.419   5.877  0.00  0.00    +0.000 NA
ATOM     32  C   UNL     1      48.090   2.597   5.428  0.00  0.00    +0.000 A 
ATOM     33  N   UNL     1      47.652   3.771   5.984  0.00  0.00    +0.000 N 
ATOM     34  C   UNL     1      46.869   3.814   7.113  0.00  0.00    +0.000 A 
ATOM     35  O   UNL     1      46.570   4.883   7.638  0.00  0.00    +0.000 OA
ATOM     36  C   UNL     1      46.466   2.516   7.613  0.00  0.00    +0.000 A 
ATOM     37  H   UNL     1      47.945   4.661   5.612  0.00  0.00    +0.000 HD
ENDBRANCH  24  27
ENDBRANCH  22  23
ENDBRANCH   4  22
TORSDOF 8
ENDMDL
MODEL 4
REMARK VINA RESULT:    -6.433      2.394      3.246
REMARK INTER + INTRA:         -10.988
REMARK INTER:                  -9.189
REMARK INTRA:                  -1.799
REMARK UNBOUND:                -1.547
REMARK  Name = 
REMARK  9 active torsions:
REMARK  status: ('A' for Active; 'I' for Inactive)
REMARK    1  A    between atoms: C_1  and  C_2
REMARK    2  A    between atoms: C_2  and  O_3
REMARK    3  A    between atoms: O_3  and  C_4
REMARK    4  A    between atoms: C_4  and  C_6
REMARK    5  A    between atoms: N_13  and  C_14
REMARK    6  A    between atoms: C_14  and  C_15
REMARK    7  A    between atoms: C_18  and  C_19
REMARK    8  A    between atoms: C_19  and  N_20
REMARK    9  A    between atoms: C_21  and  C_23
REMARK                            x       y       z     vdW  Elec       q    Type
REMARK                         _______ _______ _______ _____ _____    ______ ____
ROOT
ATOM      1  C   UNL     1      50.469   7.964  14.785  0.00  0.00    +0.000 A 
ATOM      2  C   UNL     1      50.726   8.376  13.470  0.00  0.00    +0.000 A 
ATOM      3  C   UNL     1      49.720   8.332  12.497  0.00  0.00    +0.000 A 
ATOM      4  C   UNL     1      48.429   7.896  12.827  0.00  0.00    +0.000 A 
ATOM      5  C   UNL     1      48.184   7.448  14.131  0.00  0.00    +0.000 A 
ATOM      6  C   UNL     1      49.189   7.491  15.102  0.00  0.00    +0.000 A 
ENDROOT
BRANCH   1   7
ATOM      7  C   UNL     1      51.535   8.041  15.846  0.00  0.00    +0.000 C 
BRANCH   7  15
ATOM      8  C   UNL     1      50.134   5.544  19.254  0.00  0.00    +0.000 A 
ATOM      9  C   UNL     1      50.355   5.090  20.551  0.00  0.00    +0.000 A 
ATOM     10  C   UNL     1      51.728   4.841  20.711  0.00  0.00    +0.000 A 
ATOM     11  C   UNL     1      52.320   5.113  19.504  0.00  0.00    +0.000 A 
ATOM     12  N   UNL     1      51.380   5.639  18.627  0.00  0.00    +0.000 N 
ATOM     13  C   UNL     1      51.745   6.145  17.358  0.00  0.00    +0.000 C 
ATOM     14  O   UNL     1      52.644   5.599  16.733  0.00  0.00    +0.000 OA
ATOM     15  N   UNL     1      51.152   7.345  17.053  0.00  0.00    +0.000 N 
ATOM     16  H   UNL     1      50.359   7.692  17.578  0.00  0.00    +0.000 HD
BRANCH   8  17
ATOM     17  C   UNL     1      48.865   5.835  18.631  0.00  0.00    +0.000 C 
ATOM     18  O   UNL     1      48.373   6.945  18.479  0.00  0.00    +0.000 OA
BRANCH  17  19
ATOM     19  O   UNL     1      48.235   4.666  18.319  0.00  0.00    +0.000 OA
BRANCH  19  21
ATOM     20  C   UNL     1      48.799   2.738  17.038  0.00  0.00    +0.000 C 
ATOM     21  C   UNL     1      48.422   4.207  16.975  0.00  0.00    +0.000 C 
ENDBRANCH  19  21
ENDBRANCH  17  19
ENDBRANCH   8  17
ENDBRANCH   7  15
ENDBRANCH   1   7
BRANCH   4  22
ATOM     22  C   UNL     1      47.328   7.887  11.798  0.00  0.00    +0.000 C 
BRANCH  22  23
ATOM     23  N   UNL     1      46.709   6.592  11.696  0.00  0.00    +0.000 N 
ATOM     24  C   UNL     1      45.344   6.462  11.651  0.00  0.00    +0.000 C 
ATOM     25  O   UNL     1      44.591   7.414  11.823  0.00  0.00    +0.000 OA
ATOM     26  H   UNL     1      47.291   5.835  11.354  0.00  0.00    +0.000 HD
BRANCH  24  27
ATOM     27  C   UNL     1      44.824   5.114  11.406  0.00  0.00    +0.000 A 
ATOM     28  C   UNL     1      44.065   4.472  12.375  0.00  0.00    +0.000 A 
ATOM     29  S   UNL     1      43.519   2.925  11.904  0.00  0.00    +0.000 S 
ATOM     30  C   UNL     1      44.216   3.089  10.360  0.00  0.00    +0.000 A 
ATOM     31  N   UNL     1      44.047   2.134   9.408  0.00  0.00    +0.000 NA
ATOM     32  C   UNL     1      44.592   2.411   8.269  0.00  0.00    +0.000 A 
ATOM     33  N   UNL     1      45.317   3.544   8.007  0.00  0.00    +0.000 N 
ATOM     34  C   UNL     1      45.563   4.507   8.956  0.00  0.00    +0.000 A 
ATOM     35  O   UNL     1      46.292   5.465   8.714  0.00  0.00    +0.000 OA
ATOM     36  C   UNL     1      44.915   4.274  10.229  0.00  0.00    +0.000 A 
ATOM     37  H   UNL     1      45.754   3.683   7.108  0.00  0.00    +0.000 HD
ENDBRANCH  24  27
ENDBRANCH  22  23
ENDBRANCH   4  22
TORSDOF 8
ENDMDL
MODEL 5
REMARK VINA RESULT:    -6.331      3.482      8.215
REMARK INTER + INTRA:         -10.839
REMARK INTER:                  -9.890
REMARK INTRA:                  -0.950
REMARK UNBOUND:                -1.547
REMARK  Name = 
REMARK  9 active torsions:
REMARK  status: ('A' for Active; 'I' for Inactive)
REMARK    1  A    between atoms: C_1  and  C_2
REMARK    2  A    between atoms: C_2  and  O_3
REMARK    3  A    between atoms: O_3  and  C_4
REMARK    4  A    between atoms: C_4  and  C_6
REMARK    5  A    between atoms: N_13  and  C_14
REMARK    6  A    between atoms: C_14  and  C_15
REMARK    7  A    between atoms: C_18  and  C_19
REMARK    8  A    between atoms: C_19  and  N_20
REMARK    9  A    between atoms: C_21  and  C_23
REMARK                            x       y       z     vdW  Elec       q    Type
REMARK                         _______ _______ _______ _____ _____    ______ ____
ROOT
ATOM      1  C   UNL     1      46.688   8.150  12.133  0.00  0.00    +0.000 A 
ATOM      2  C   UNL     1      47.055   8.898  13.260  0.00  0.00    +0.000 A 
ATOM      3  C   UNL     1      48.399   9.010  13.637  0.00  0.00    +0.000 A 
ATOM      4  C   UNL     1      49.405   8.396  12.879  0.00  0.00    +0.000 A 
ATOM      5  C   UNL     1      49.034   7.617  11.775  0.00  0.00    +0.000 A 
ATOM      6  C   UNL     1      47.691   7.504  11.400  0.00  0.00    +0.000 A 
ENDROOT
BRANCH   1   7
ATOM      7  C   UNL     1      45.248   8.053  11.700  0.00  0.00    +0.000 C 
BRANCH   7  15
ATOM      8  C   UNL     1      44.699   3.857  10.321  0.00  0.00    +0.000 A 
ATOM      9  C   UNL     1      43.896   2.720  10.300  0.00  0.00    +0.000 A 
ATOM     10  C   UNL     1      43.308   2.561  11.566  0.00  0.00    +0.000 A 
ATOM     11  C   UNL     1      43.784   3.581  12.350  0.00  0.00    +0.000 A 
ATOM     12  N   UNL     1      44.558   4.442  11.583  0.00  0.00    +0.000 N 
ATOM     13  C   UNL     1      45.055   5.661  12.103  0.00  0.00    +0.000 C 
ATOM     14  O   UNL     1      45.403   5.712  13.274  0.00  0.00    +0.000 OA
ATOM     15  N   UNL     1      44.905   6.724  11.248  0.00  0.00    +0.000 N 
ATOM     16  H   UNL     1      44.688   6.590  10.268  0.00  0.00    +0.000 HD
BRANCH   8  17
ATOM     17  C   UNL     1      45.556   4.346   9.268  0.00  0.00    +0.000 C 
ATOM     18  O   UNL     1      45.868   5.513   9.075  0.00  0.00    +0.000 OA
BRANCH  17  19
ATOM     19  O   UNL     1      45.893   3.313   8.444  0.00  0.00    +0.000 OA
BRANCH  19  21
ATOM     20  C   UNL     1      47.442   2.498   6.827  0.00  0.00    +0.000 C 
ATOM     21  C   UNL     1      46.593   3.683   7.250  0.00  0.00    +0.000 C 
ENDBRANCH  19  21
ENDBRANCH  17  19
ENDBRANCH   8  17
ENDBRANCH   7  15
ENDBRANCH   1   7
BRANCH   4  22
ATOM     22  C   UNL     1      50.857   8.548  13.250  0.00  0.00    +0.000 C 
BRANCH  22  23
ATOM     23  N   UNL     1      51.227   7.659  14.320  0.00  0.00    +0.000 N 
ATOM     24  C   UNL     1      51.354   8.116  15.608  0.00  0.00    +0.000 C 
ATOM     25  O   UNL     1      51.285   9.307  15.888  0.00  0.00    +0.000 OA
ATOM     26  H   UNL     1      51.089   6.668  14.156  0.00  0.00    +0.000 HD
BRANCH  24  27
ATOM     27  C   UNL     1      51.595   7.103  16.638  0.00  0.00    +0.000 A 
ATOM     28  C   UNL     1      52.756   7.146  17.399  0.00  0.00    +0.000 A 
ATOM     29  S   UNL     1      52.853   5.909  18.571  0.00  0.00    +0.000 S 
ATOM     30  C   UNL     1      51.313   5.316  18.152  0.00  0.00    +0.000 A 
ATOM     31  N   UNL     1      50.743   4.292  18.841  0.00  0.00    +0.000 NA
ATOM     32  C   UNL     1      49.554   3.976  18.443  0.00  0.00    +0.000 A 
ATOM     33  N   UNL     1      48.897   4.572  17.399  0.00  0.00    +0.000 N 
ATOM     34  C   UNL     1      49.458   5.569  16.638  0.00  0.00    +0.000 A 
ATOM     35  O   UNL     1      48.879   6.019  15.653  0.00  0.00    +0.000 OA
ATOM     36  C   UNL     1      50.764   6.005  17.088  0.00  0.00    +0.000 A 
ATOM     37  H   UNL     1      47.985   4.251  17.110  0.00  0.00    +0.000 HD
ENDBRANCH  24  27
ENDBRANCH  22  23
ENDBRANCH   4  22
TORSDOF 8
ENDMDL
MODEL 6
REMARK VINA RESULT:    -6.260      3.146      8.201
REMARK INTER + INTRA:         -10.735
REMARK INTER:                  -9.174
REMARK INTRA:                  -1.561
REMARK UNBOUND:                -1.547
REMARK  Name = 
REMARK  9 active torsions:
REMARK  status: ('A' for Active; 'I' for Inactive)
REMARK    1  A    between atoms: C_1  and  C_2
REMARK    2  A    between atoms: C_2  and  O_3
REMARK    3  A    between atoms: O_3  and  C_4
REMARK    4  A    between atoms: C_4  and  C_6
REMARK    5  A    between atoms: N_13  and  C_14
REMARK    6  A    between atoms: C_14  and  C_15
REMARK    7  A    between atoms: C_18  and  C_19
REMARK    8  A    between atoms: C_19  and  N_20
REMARK    9  A    between atoms: C_21  and  C_23
REMARK                            x       y       z     vdW  Elec       q    Type
REMARK                         _______ _______ _______ _____ _____    ______ ____
ROOT
ATOM      1  C   UNL     1      47.330   7.217  12.192  0.00  0.00    +0.000 A 
ATOM      2  C   UNL     1      46.862   8.321  12.917  0.00  0.00    +0.000 A 
ATOM      3  C   UNL     1      47.328   8.576  14.213  0.00  0.00    +0.000 A 
ATOM      4  C   UNL     1      48.290   7.743  14.801  0.00  0.00    +0.000 A 
ATOM      5  C   UNL     1      48.728   6.618  14.091  0.00  0.00    +0.000 A 
ATOM      6  C   UNL     1      48.262   6.363  12.797  0.00  0.00    +0.000 A 
ENDROOT
BRANCH   1   7
ATOM      7  C   UNL     1      46.862   6.955  10.785  0.00  0.00    +0.000 C 
BRANCH   7  15
ATOM      8  C   UNL     1      44.106   3.499  10.261  0.00  0.00    +0.000 A 
ATOM      9  C   UNL     1      43.959   2.133  10.038  0.00  0.00    +0.000 A 
ATOM     10  C   UNL     1      44.923   1.725   9.100  0.00  0.00    +0.000 A 
ATOM     11  C   UNL     1      45.621   2.850   8.741  0.00  0.00    +0.000 A 
ATOM     12  N   UNL     1      45.205   3.928   9.511  0.00  0.00    +0.000 N 
ATOM     13  C   UNL     1      45.859   5.182   9.453  0.00  0.00    +0.000 C 
ATOM     14  O   UNL     1      46.303   5.575   8.384  0.00  0.00    +0.000 OA
ATOM     15  N   UNL     1      46.087   5.739  10.686  0.00  0.00    +0.000 N 
ATOM     16  H   UNL     1      45.618   5.400  11.517  0.00  0.00    +0.000 HD
BRANCH   8  17
ATOM     17  C   UNL     1      43.274   4.349  11.079  0.00  0.00    +0.000 C 
ATOM     18  O   UNL     1      42.712   5.374  10.716  0.00  0.00    +0.000 OA
BRANCH  17  19
ATOM     19  O   UNL     1      43.285   3.891  12.364  0.00  0.00    +0.000 OA
BRANCH  19  21
ATOM     20  C   UNL     1      45.179   4.552  13.649  0.00  0.00    +0.000 C 
ATOM     21  C   UNL     1      43.719   4.837  13.348  0.00  0.00    +0.000 C 
ENDBRANCH  19  21
ENDBRANCH  17  19
ENDBRANCH   8  17
ENDBRANCH   7  15
ENDBRANCH   1   7
BRANCH   4  22
ATOM     22  C   UNL     1      48.830   8.034  16.177  0.00  0.00    +0.000 C 
BRANCH  22  23
ATOM     23  N   UNL     1      49.922   7.159  16.514  0.00  0.00    +0.000 N 
ATOM     24  C   UNL     1      49.814   6.257  17.541  0.00  0.00    +0.000 C 
ATOM     25  O   UNL     1      48.847   6.237  18.295  0.00  0.00    +0.000 OA
ATOM     26  H   UNL     1      50.627   7.017  15.799  0.00  0.00    +0.000 HD
BRANCH  24  27
ATOM     27  C   UNL     1      50.930   5.322  17.708  0.00  0.00    +0.000 A 
ATOM     28  C   UNL     1      52.156   5.776  18.176  0.00  0.00    +0.000 A 
ATOM     29  S   UNL     1      53.326   4.544  18.337  0.00  0.00    +0.000 S 
ATOM     30  C   UNL     1      52.213   3.348  17.858  0.00  0.00    +0.000 A 
ATOM     31  N   UNL     1      52.552   2.032  17.859  0.00  0.00    +0.000 NA
ATOM     32  C   UNL     1      51.596   1.232  17.516  0.00  0.00    +0.000 A 
ATOM     33  N   UNL     1      50.340   1.635  17.144  0.00  0.00    +0.000 N 
ATOM     34  C   UNL     1      49.971   2.957  17.071  0.00  0.00    +0.000 A 
ATOM     35  O   UNL     1      48.868   3.286  16.647  0.00  0.00    +0.000 OA
ATOM     36  C   UNL     1      50.989   3.888  17.512  0.00  0.00    +0.000 A 
ATOM     37  H   UNL     1      49.648   0.963  16.846  0.00  0.00    +0.000 HD
ENDBRANCH  24  27
ENDBRANCH  22  23
ENDBRANCH   4  22
TORSDOF 8
ENDMDL
MODEL 7
REMARK VINA RESULT:    -6.005      3.126      8.626
REMARK INTER + INTRA:         -10.360
REMARK INTER:                  -9.014
REMARK INTRA:                  -1.346
REMARK UNBOUND:                -1.547
REMARK  Name = 
REMARK  9 active torsions:
REMARK  status: ('A' for Active; 'I' for Inactive)
REMARK    1  A    between atoms: C_1  and  C_2
REMARK    2  A    between atoms: C_2  and  O_3
REMARK    3  A    between atoms: O_3  and  C_4
REMARK    4  A    between atoms: C_4  and  C_6
REMARK    5  A    between atoms: N_13  and  C_14
REMARK    6  A    between atoms: C_14  and  C_15
REMARK    7  A    between atoms: C_18  and  C_19
REMARK    8  A    between atoms: C_19  and  N_20
REMARK    9  A    between atoms: C_21  and  C_23
REMARK                            x       y       z     vdW  Elec       q    Type
REMARK                         _______ _______ _______ _____ _____    ______ ____
ROOT
ATOM      1  C   UNL     1      47.322   6.799  12.318  0.00  0.00    +0.000 A 
ATOM      2  C   UNL     1      47.172   5.699  13.175  0.00  0.00    +0.000 A 
ATOM      3  C   UNL     1      47.690   5.730  14.475  0.00  0.00    +0.000 A 
ATOM      4  C   UNL     1      48.349   6.871  14.953  0.00  0.00    +0.000 A 
ATOM      5  C   UNL     1      48.532   7.954  14.083  0.00  0.00    +0.000 A 
ATOM      6  C   UNL     1      48.015   7.923  12.784  0.00  0.00    +0.000 A 
ENDROOT
BRANCH   1   7
ATOM      7  C   UNL     1      46.737   6.788  10.930  0.00  0.00    +0.000 C 
BRANCH   7  15
ATOM      8  C   UNL     1      44.285   3.255   9.784  0.00  0.00    +0.000 A 
ATOM      9  C   UNL     1      44.251   1.910   9.429  0.00  0.00    +0.000 A 
ATOM     10  C   UNL     1      45.342   1.640   8.585  0.00  0.00    +0.000 A 
ATOM     11  C   UNL     1      46.005   2.828   8.409  0.00  0.00    +0.000 A 
ATOM     12  N   UNL     1      45.435   3.808   9.212  0.00  0.00    +0.000 N 
ATOM     13  C   UNL     1      46.010   5.095   9.341  0.00  0.00    +0.000 C 
ATOM     14  O   UNL     1      46.550   5.607   8.371  0.00  0.00    +0.000 OA
ATOM     15  N   UNL     1      46.057   5.548  10.636  0.00  0.00    +0.000 N 
ATOM     16  H   UNL     1      45.517   5.109  11.371  0.00  0.00    +0.000 HD
BRANCH   8  17
ATOM     17  C   UNL     1      43.311   3.982  10.563  0.00  0.00    +0.000 C 
ATOM     18  O   UNL     1      42.964   5.141  10.385  0.00  0.00    +0.000 OA
BRANCH  17  19
ATOM     19  O   UNL     1      42.899   3.207  11.607  0.00  0.00    +0.000 OA
BRANCH  19  21
ATOM     20  C   UNL     1      43.637   4.676  13.331  0.00  0.00    +0.000 C 
ATOM     21  C   UNL     1      43.723   3.265  12.777  0.00  0.00    +0.000 C 
ENDBRANCH  19  21
ENDBRANCH  17  19
ENDBRANCH   8  17
ENDBRANCH   7  15
ENDBRANCH   1   7
BRANCH   4  22
ATOM     22  C   UNL     1      48.870   6.931  16.365  0.00  0.00    +0.000 C 
BRANCH  22  23
ATOM     23  N   UNL     1      49.806   5.870  16.630  0.00  0.00    +0.000 N 
ATOM     24  C   UNL     1      49.498   4.855  17.500  0.00  0.00    +0.000 C 
ATOM     25  O   UNL     1      48.479   4.866  18.182  0.00  0.00    +0.000 OA
ATOM     26  H   UNL     1      50.542   5.731  15.945  0.00  0.00    +0.000 HD
BRANCH  24  27
ATOM     27  C   UNL     1      50.463   3.756  17.588  0.00  0.00    +0.000 A 
ATOM     28  C   UNL     1      50.069   2.456  17.300  0.00  0.00    +0.000 A 
ATOM     29  S   UNL     1      51.331   1.314  17.424  0.00  0.00    +0.000 S 
ATOM     30  C   UNL     1      52.466   2.527  17.796  0.00  0.00    +0.000 A 
ATOM     31  N   UNL     1      53.784   2.233  17.945  0.00  0.00    +0.000 NA
ATOM     32  C   UNL     1      54.538   3.257  18.180  0.00  0.00    +0.000 A 
ATOM     33  N   UNL     1      54.086   4.544  18.308  0.00  0.00    +0.000 N 
ATOM     34  C   UNL     1      52.756   4.879  18.224  0.00  0.00    +0.000 A 
ATOM     35  O   UNL     1      52.375   6.027  18.435  0.00  0.00    +0.000 OA
ATOM     36  C   UNL     1      51.879   3.774  17.894  0.00  0.00    +0.000 A 
ATOM     37  H   UNL     1      54.720   5.295  18.534  0.00  0.00    +0.000 HD
ENDBRANCH  24  27
ENDBRANCH  22  23
ENDBRANCH   4  22
TORSDOF 8
ENDMDL
MODEL 8
REMARK VINA RESULT:    -5.496      2.151      2.596
REMARK INTER + INTRA:          -9.613
REMARK INTER:                  -8.967
REMARK INTRA:                  -0.647
REMARK UNBOUND:                -1.547
REMARK  Name = 
REMARK  9 active torsions:
REMARK  status: ('A' for Active; 'I' for Inactive)
REMARK    1  A    between atoms: C_1  and  C_2
REMARK    2  A    between atoms: C_2  and  O_3
REMARK    3  A    between atoms: O_3  and  C_4
REMARK    4  A    between atoms: C_4  and  C_6
REMARK    5  A    between atoms: N_13  and  C_14
REMARK    6  A    between atoms: C_14  and  C_15
REMARK    7  A    between atoms: C_18  and  C_19
REMARK    8  A    between atoms: C_19  and  N_20
REMARK    9  A    between atoms: C_21  and  C_23
REMARK                            x       y       z     vdW  Elec       q    Type
REMARK                         _______ _______ _______ _____ _____    ______ ____
ROOT
ATOM      1  C   UNL     1      49.866   7.664  14.712  0.00  0.00    +0.000 A 
ATOM      2  C   UNL     1      49.724   8.855  13.987  0.00  0.00    +0.000 A 
ATOM      3  C   UNL     1      48.500   9.189  13.395  0.00  0.00    +0.000 A 
ATOM      4  C   UNL     1      47.387   8.349  13.536  0.00  0.00    +0.000 A 
ATOM      5  C   UNL     1      47.541   7.141  14.227  0.00  0.00    +0.000 A 
ATOM      6  C   UNL     1      48.764   6.806  14.818  0.00  0.00    +0.000 A 
ENDROOT
BRANCH   1   7
ATOM      7  C   UNL     1      51.169   7.313  15.383  0.00  0.00    +0.000 C 
BRANCH   7  15
ATOM      8  C   UNL     1      50.564   4.782  18.994  0.00  0.00    +0.000 A 
ATOM      9  C   UNL     1      50.759   4.616  20.362  0.00  0.00    +0.000 A 
ATOM     10  C   UNL     1      52.046   5.077  20.691  0.00  0.00    +0.000 A 
ATOM     11  C   UNL     1      52.628   5.486  19.518  0.00  0.00    +0.000 A 
ATOM     12  N   UNL     1      51.705   5.408  18.483  0.00  0.00    +0.000 N 
ATOM     13  C   UNL     1      51.991   5.906  17.190  0.00  0.00    +0.000 C 
ATOM     14  O   UNL     1      53.128   5.805  16.750  0.00  0.00    +0.000 OA
ATOM     15  N   UNL     1      50.966   6.635  16.643  0.00  0.00    +0.000 N 
ATOM     16  H   UNL     1      50.029   6.604  17.027  0.00  0.00    +0.000 HD
BRANCH   8  17
ATOM     17  C   UNL     1      49.424   4.364  18.213  0.00  0.00    +0.000 C 
ATOM     18  O   UNL     1      49.437   4.038  17.034  0.00  0.00    +0.000 OA
BRANCH  17  19
ATOM     19  O   UNL     1      48.293   4.484  18.966  0.00  0.00    +0.000 OA
BRANCH  19  21
ATOM     20  C   UNL     1      47.846   6.805  18.673  0.00  0.00    +0.000 C 
ATOM     21  C   UNL     1      47.314   5.400  18.462  0.00  0.00    +0.000 C 
ENDBRANCH  19  21
ENDBRANCH  17  19
ENDBRANCH   8  17
ENDBRANCH   7  15
ENDBRANCH   1   7
BRANCH   4  22
ATOM     22  C   UNL     1      46.054   8.722  12.940  0.00  0.00    +0.000 C 
BRANCH  22  23
ATOM     23  N   UNL     1      45.476   7.627  12.206  0.00  0.00    +0.000 N 
ATOM     24  C   UNL     1      46.225   6.895  11.320  0.00  0.00    +0.000 C 
ATOM     25  O   UNL     1      47.371   7.211  11.016  0.00  0.00    +0.000 OA
ATOM     26  H   UNL     1      44.622   7.230  12.581  0.00  0.00    +0.000 HD
BRANCH  24  27
ATOM     27  C   UNL     1      45.578   5.719  10.734  0.00  0.00    +0.000 A 
ATOM     28  C   UNL     1      45.780   5.405   9.397  0.00  0.00    +0.000 A 
ATOM     29  S   UNL     1      44.975   3.985   8.897  0.00  0.00    +0.000 S 
ATOM     30  C   UNL     1      44.387   3.700  10.469  0.00  0.00    +0.000 A 
ATOM     31  N   UNL     1      43.676   2.579  10.760  0.00  0.00    +0.000 NA
ATOM     32  C   UNL     1      43.333   2.470  12.001  0.00  0.00    +0.000 A 
ATOM     33  N   UNL     1      43.611   3.397  12.971  0.00  0.00    +0.000 N 
ATOM     34  C   UNL     1      44.274   4.572  12.710  0.00  0.00    +0.000 A 
ATOM     35  O   UNL     1      44.426   5.422  13.582  0.00  0.00    +0.000 OA
ATOM     36  C   UNL     1      44.739   4.708  11.345  0.00  0.00    +0.000 A 
ATOM     37  H   UNL     1      43.278   3.274  13.916  0.00  0.00    +0.000 HD
ENDBRANCH  24  27
ENDBRANCH  22  23
ENDBRANCH   4  22
TORSDOF 8
ENDMDL
MODEL 9
REMARK VINA RESULT:    -5.407      3.263      8.010
REMARK INTER + INTRA:          -9.482
REMARK INTER:                  -7.856
REMARK INTRA:                  -1.626
REMARK UNBOUND:                -1.547
REMARK  Name = 
REMARK  9 active torsions:
REMARK  status: ('A' for Active; 'I' for Inactive)
REMARK    1  A    between atoms: C_1  and  C_2
REMARK    2  A    between atoms: C_2  and  O_3
REMARK    3  A    between atoms: O_3  and  C_4
REMARK    4  A    between atoms: C_4  and  C_6
REMARK    5  A    between atoms: N_13  and  C_14
REMARK    6  A    between atoms: C_14  and  C_15
REMARK    7  A    between atoms: C_18  and  C_19
REMARK    8  A    between atoms: C_19  and  N_20
REMARK    9  A    between atoms: C_21  and  C_23
REMARK                            x       y       z     vdW  Elec       q    Type
REMARK                         _______ _______ _______ _____ _____    ______ ____
ROOT
ATOM      1  C   UNL     1      47.323   8.244  13.083  0.00  0.00    +0.000 A 
ATOM      2  C   UNL     1      48.222   7.169  13.054  0.00  0.00    +0.000 A 
ATOM      3  C   UNL     1      49.590   7.375  13.269  0.00  0.00    +0.000 A 
ATOM      4  C   UNL     1      50.083   8.658  13.543  0.00  0.00    +0.000 A 
ATOM      5  C   UNL     1      49.190   9.737  13.534  0.00  0.00    +0.000 A 
ATOM      6  C   UNL     1      47.824   9.532  13.317  0.00  0.00    +0.000 A 
ENDROOT
BRANCH   1   7
ATOM      7  C   UNL     1      45.845   8.028  12.887  0.00  0.00    +0.000 C 
BRANCH   7  15
ATOM      8  C   UNL     1      44.473   3.986  11.626  0.00  0.00    +0.000 A 
ATOM      9  C   UNL     1      44.516   2.971  10.675  0.00  0.00    +0.000 A 
ATOM     10  C   UNL     1      44.526   3.554   9.396  0.00  0.00    +0.000 A 
ATOM     11  C   UNL     1      44.454   4.911   9.583  0.00  0.00    +0.000 A 
ATOM     12  N   UNL     1      44.521   5.203  10.939  0.00  0.00    +0.000 N 
ATOM     13  C   UNL     1      44.616   6.533  11.412  0.00  0.00    +0.000 C 
ATOM     14  O   UNL     1      44.019   7.421  10.818  0.00  0.00    +0.000 OA
ATOM     15  N   UNL     1      45.550   6.699  12.403  0.00  0.00    +0.000 N 
ATOM     16  H   UNL     1      45.941   5.908  12.900  0.00  0.00    +0.000 HD
BRANCH   8  17
ATOM     17  C   UNL     1      44.360   3.843  13.058  0.00  0.00    +0.000 C 
ATOM     18  O   UNL     1      43.387   3.419  13.666  0.00  0.00    +0.000 OA
BRANCH  17  19
ATOM     19  O   UNL     1      45.478   4.351  13.652  0.00  0.00    +0.000 OA
BRANCH  19  21
ATOM     20  C   UNL     1      47.427   3.743  14.880  0.00  0.00    +0.000 C 
ATOM     21  C   UNL     1      46.634   3.505  13.608  0.00  0.00    +0.000 C 
ENDBRANCH  19  21
ENDBRANCH  17  19
ENDBRANCH   8  17
ENDBRANCH   7  15
ENDBRANCH   1   7
BRANCH   4  22
ATOM     22  C   UNL     1      51.547   8.883  13.821  0.00  0.00    +0.000 C 
BRANCH  22  23
ATOM     23  N   UNL     1      52.126   7.776  14.536  0.00  0.00    +0.000 N 
ATOM     24  C   UNL     1      52.470   7.890  15.859  0.00  0.00    +0.000 C 
ATOM     25  O   UNL     1      52.421   8.960  16.457  0.00  0.00    +0.000 OA
ATOM     26  H   UNL     1      51.988   6.854  14.136  0.00  0.00    +0.000 HD
BRANCH  24  27
ATOM     27  C   UNL     1      52.921   6.665  16.524  0.00  0.00    +0.000 A 
ATOM     28  C   UNL     1      54.265   6.488  16.823  0.00  0.00    +0.000 A 
ATOM     29  S   UNL     1      54.601   5.019  17.626  0.00  0.00    +0.000 S 
ATOM     30  C   UNL     1      52.951   4.602  17.667  0.00  0.00    +0.000 A 
ATOM     31  N   UNL     1      52.527   3.477  18.302  0.00  0.00    +0.000 NA
ATOM     32  C   UNL     1      51.245   3.309  18.294  0.00  0.00    +0.000 A 
ATOM     33  N   UNL     1      50.352   4.150  17.682  0.00  0.00    +0.000 N 
ATOM     34  C   UNL     1      50.741   5.265  16.979  0.00  0.00    +0.000 A 
ATOM     35  O   UNL     1      49.923   5.946  16.366  0.00  0.00    +0.000 OA
ATOM     36  C   UNL     1      52.164   5.533  17.017  0.00  0.00    +0.000 A 
ATOM     37  H   UNL     1      49.365   3.941  17.675  0.00  0.00    +0.000 HD
ENDBRANCH  24  27
ENDBRANCH  22  23
ENDBRANCH   4  22
TORSDOF 8
ENDMDL
