MODEL 1
REMARK VINA RESULT:    -8.808      0.000      0.000
REMARK INTER + INTRA:         -11.518
REMARK INTER:                 -10.868
REMARK INTRA:                  -0.650
REMARK UNBOUND:                -0.650
REMARK  Name = 
REMARK  4 active torsions:
REMARK  status: ('A' for Active; 'I' for Inactive)
REMARK    1  A    between atoms: C_2  and  C_5
REMARK    2  A    between atoms: C_7  and  C_8
REMARK    3  A    between atoms: N_13  and  C_14
REMARK    4  A    between atoms: C_14  and  C_15
REMARK                            x       y       z     vdW  Elec       q    Type
REMARK                         _______ _______ _______ _____ _____    ______ ____
ROOT
ATOM      1  C   UNL     1      45.882   5.077  13.044  0.00  0.00    +0.000 A 
ATOM      2  C   UNL     1      45.200   6.188  12.539  0.00  0.00    +0.000 A 
ATOM      3  C   UNL     1      44.429   6.042  11.398  0.00  0.00    +0.000 A 
ATOM      4  N   UNL     1      44.292   4.883  10.719  0.00  0.00    +0.000 NA
ATOM      5  C   UNL     1      44.922   3.802  11.206  0.00  0.00    +0.000 A 
ATOM      6  N   UNL     1      44.919   2.599  10.518  0.00  0.00    +0.000 N 
ATOM      7  C   UNL     1      45.695   3.866  12.364  0.00  0.00    +0.000 A 
ATOM      8  H   UNL     1      44.623   1.810  11.077  0.00  0.00    +0.000 HD
ENDROOT
BRANCH   1  11
ATOM      9  C   UNL     1      47.875   4.213  16.161  0.00  0.00    +0.000 A 
ATOM     10  C   UNL     1      46.922   4.143  15.140  0.00  0.00    +0.000 A 
ATOM     11  C   UNL     1      46.819   5.170  14.186  0.00  0.00    +0.000 A 
ATOM     12  C   UNL     1      47.692   6.255  14.328  0.00  0.00    +0.000 A 
ATOM     13  C   UNL     1      48.600   6.268  15.373  0.00  0.00    +0.000 A 
ATOM     14  N   UNL     1      48.712   5.281  16.283  0.00  0.00    +0.000 NA
BRANCH   9  16
ATOM     15  F   UNL     1      48.729   3.385  18.263  0.00  0.00    +0.000 F 
ATOM     16  C   UNL     1      48.010   3.058  17.146  0.00  0.00    +0.000 C 
ATOM     17  F   UNL     1      48.644   1.975  16.614  0.00  0.00    +0.000 F 
ATOM     18  F   UNL     1      46.811   2.605  17.613  0.00  0.00    +0.000 F 
ENDBRANCH   9  16
ENDBRANCH   1  11
BRANCH   6  19
ATOM     19  C   UNL     1      44.491   2.569   9.138  0.00  0.00    +0.000 C 
BRANCH  19  20
ATOM     20  C   UNL     1      45.721   2.259   8.319  0.00  0.00    +0.000 A 
ATOM     21  C   UNL     1      46.416   3.260   7.635  0.00  0.00    +0.000 A 
ATOM     22  C   UNL     1      47.486   2.890   6.835  0.00  0.00    +0.000 A 
ATOM     23  N   UNL     1      47.902   1.616   6.668  0.00  0.00    +0.000 NA
ATOM     24  C   UNL     1      47.206   0.663   7.324  0.00  0.00    +0.000 A 
ATOM     25  C   UNL     1      46.126   0.930   8.146  0.00  0.00    +0.000 A 
ENDBRANCH  19  20
ENDBRANCH   6  19
TORSDOF 4
ENDMDL
MODEL 2
REMARK VINA RESULT:    -7.851      2.170      2.886
REMARK INTER + INTRA:         -10.337
REMARK INTER:                  -9.660
REMARK INTRA:                  -0.677
REMARK UNBOUND:                -0.650
REMARK  Name = 
REMARK  4 active torsions:
REMARK  status: ('A' for Active; 'I' for Inactive)
REMARK    1  A    between atoms: C_2  and  C_5
REMARK    2  A    between atoms: C_7  and  C_8
REMARK    3  A    between atoms: N_13  and  C_14
REMARK    4  A    between atoms: C_14  and  C_15
REMARK                            x       y       z     vdW  Elec       q    Type
REMARK                         _______ _______ _______ _____ _____    ______ ____
ROOT
ATOM      1  C   UNL     1      45.880   5.024  13.112  0.00  0.00    +0.000 A 
ATOM      2  C   UNL     1      45.031   6.062  12.717  0.00  0.00    +0.000 A 
ATOM      3  C   UNL     1      44.162   5.853  11.659  0.00  0.00    +0.000 A 
ATOM      4  N   UNL     1      44.080   4.700  10.962  0.00  0.00    +0.000 NA
ATOM      5  C   UNL     1      44.872   3.686  11.346  0.00  0.00    +0.000 A 
ATOM      6  N   UNL     1      44.926   2.504  10.624  0.00  0.00    +0.000 N 
ATOM      7  C   UNL     1      45.754   3.813  12.418  0.00  0.00    +0.000 A 
ATOM      8  H   UNL     1      44.780   1.676  11.186  0.00  0.00    +0.000 HD
ENDROOT
BRANCH   1  11
ATOM      9  C   UNL     1      48.761   6.448  15.139  0.00  0.00    +0.000 A 
ATOM     10  C   UNL     1      47.845   6.253  14.100  0.00  0.00    +0.000 A 
ATOM     11  C   UNL     1      46.918   5.198  14.153  0.00  0.00    +0.000 A 
ATOM     12  C   UNL     1      46.979   4.357  15.271  0.00  0.00    +0.000 A 
ATOM     13  C   UNL     1      47.923   4.598  16.255  0.00  0.00    +0.000 A 
ATOM     14  N   UNL     1      48.806   5.616  16.216  0.00  0.00    +0.000 NA
BRANCH   9  16
ATOM     15  F   UNL     1      49.079   8.841  15.231  0.00  0.00    +0.000 F 
ATOM     16  C   UNL     1      49.714   7.637  15.090  0.00  0.00    +0.000 C 
ATOM     17  F   UNL     1      50.397   7.725  13.914  0.00  0.00    +0.000 F 
ATOM     18  F   UNL     1      50.656   7.612  16.076  0.00  0.00    +0.000 F 
ENDBRANCH   9  16
ENDBRANCH   1  11
BRANCH   6  19
ATOM     19  C   UNL     1      44.358   2.454   9.296  0.00  0.00    +0.000 C 
BRANCH  19  20
ATOM     20  C   UNL     1      45.524   2.455   8.336  0.00  0.00    +0.000 A 
ATOM     21  C   UNL     1      46.266   1.298   8.086  0.00  0.00    +0.000 A 
ATOM     22  C   UNL     1      47.375   1.393   7.258  0.00  0.00    +0.000 A 
ATOM     23  N   UNL     1      47.790   2.540   6.677  0.00  0.00    +0.000 NA
ATOM     24  C   UNL     1      47.068   3.649   6.946  0.00  0.00    +0.000 A 
ATOM     25  C   UNL     1      45.947   3.657   7.757  0.00  0.00    +0.000 A 
ENDBRANCH  19  20
ENDBRANCH   6  19
TORSDOF 4
ENDMDL
MODEL 3
REMARK VINA RESULT:    -7.409      3.814      7.904
REMARK INTER + INTRA:          -9.792
REMARK INTER:                  -9.260
REMARK INTRA:                  -0.532
REMARK UNBOUND:                -0.650
REMARK  Name = 
REMARK  4 active torsions:
REMARK  status: ('A' for Active; 'I' for Inactive)
REMARK    1  A    between atoms: C_2  and  C_5
REMARK    2  A    between atoms: C_7  and  C_8
REMARK    3  A    between atoms: N_13  and  C_14
REMARK    4  A    between atoms: C_14  and  C_15
REMARK                            x       y       z     vdW  Elec       q    Type
REMARK                         _______ _______ _______ _____ _____    ______ ____
ROOT
ATOM      1  C   UNL     1      46.411   5.316  12.971  0.00  0.00    +0.000 A 
ATOM      2  C   UNL     1      47.283   6.407  12.990  0.00  0.00    +0.000 A 
ATOM      3  C   UNL     1      48.127   6.575  14.076  0.00  0.00    +0.000 A 
ATOM      4  N   UNL     1      48.163   5.749  15.142  0.00  0.00    +0.000 NA
ATOM      5  C   UNL     1      47.347   4.682  15.127  0.00  0.00    +0.000 A 
ATOM      6  N   UNL     1      47.245   3.841  16.224  0.00  0.00    +0.000 N 
ATOM      7  C   UNL     1      46.488   4.434  14.058  0.00  0.00    +0.000 A 
ATOM      8  H   UNL     1      47.376   2.863  16.001  0.00  0.00    +0.000 HD
ENDROOT
BRANCH   1  11
ATOM      9  C   UNL     1      44.587   3.996   9.911  0.00  0.00    +0.000 A 
ATOM     10  C   UNL     1      45.595   4.223  10.853  0.00  0.00    +0.000 A 
ATOM     11  C   UNL     1      45.396   5.126  11.911  0.00  0.00    +0.000 A 
ATOM     12  C   UNL     1      44.163   5.789  11.953  0.00  0.00    +0.000 A 
ATOM     13  C   UNL     1      43.215   5.530  10.977  0.00  0.00    +0.000 A 
ATOM     14  N   UNL     1      43.396   4.655   9.968  0.00  0.00    +0.000 NA
BRANCH   9  16
ATOM     15  F   UNL     1      44.416   3.407   7.575  0.00  0.00    +0.000 F 
ATOM     16  C   UNL     1      44.802   2.964   8.810  0.00  0.00    +0.000 C 
ATOM     17  F   UNL     1      44.103   1.812   9.015  0.00  0.00    +0.000 F 
ATOM     18  F   UNL     1      46.108   2.596   8.665  0.00  0.00    +0.000 F 
ENDBRANCH   9  16
ENDBRANCH   1  11
BRANCH   6  19
ATOM     19  C   UNL     1      47.789   4.260  17.496  0.00  0.00    +0.000 C 
BRANCH  19  20
ATOM     20  C   UNL     1      49.166   3.647  17.591  0.00  0.00    +0.000 A 
ATOM     21  C   UNL     1      50.257   4.372  18.076  0.00  0.00    +0.000 A 
ATOM     22  C   UNL     1      51.508   3.772  18.056  0.00  0.00    +0.000 A 
ATOM     23  N   UNL     1      51.743   2.526  17.589  0.00  0.00    +0.000 NA
ATOM     24  C   UNL     1      50.677   1.850  17.110  0.00  0.00    +0.000 A 
ATOM     25  C   UNL     1      49.390   2.360  17.088  0.00  0.00    +0.000 A 
ENDBRANCH  19  20
ENDBRANCH   6  19
TORSDOF 4
ENDMDL
MODEL 4
REMARK VINA RESULT:    -7.230      1.938      2.652
REMARK INTER + INTRA:          -9.571
REMARK INTER:                  -8.917
REMARK INTRA:                  -0.654
REMARK UNBOUND:                -0.650
REMARK  Name = 
REMARK  4 active torsions:
REMARK  status: ('A' for Active; 'I' for Inactive)
REMARK    1  A    between atoms: C_2  and  C_5
REMARK    2  A    between atoms: C_7  and  C_8
REMARK    3  A    between atoms: N_13  and  C_14
REMARK    4  A    between atoms: C_14  and  C_15
REMARK                            x       y       z     vdW  Elec       q    Type
REMARK                         _______ _______ _______ _____ _____    ______ ____
ROOT
ATOM      1  C   UNL     1      45.180   5.987  12.165  0.00  0.00    +0.000 A 
ATOM      2  C   UNL     1      43.914   6.420  11.764  0.00  0.00    +0.000 A 
ATOM      3  C   UNL     1      43.130   5.579  10.989  0.00  0.00    +0.000 A 
ATOM      4  N   UNL     1      43.513   4.352  10.579  0.00  0.00    +0.000 NA
ATOM      5  C   UNL     1      44.718   3.913  10.978  0.00  0.00    +0.000 A 
ATOM      6  N   UNL     1      45.231   2.710  10.520  0.00  0.00    +0.000 N 
ATOM      7  C   UNL     1      45.551   4.691  11.779  0.00  0.00    +0.000 A 
ATOM      8  H   UNL     1      45.541   2.092  11.257  0.00  0.00    +0.000 HD
ENDROOT
BRANCH   1  11
ATOM      9  C   UNL     1      47.893   7.193  14.536  0.00  0.00    +0.000 A 
ATOM     10  C   UNL     1      46.944   6.369  13.923  0.00  0.00    +0.000 A 
ATOM     11  C   UNL     1      46.127   6.862  12.892  0.00  0.00    +0.000 A 
ATOM     12  C   UNL     1      46.299   8.206  12.537  0.00  0.00    +0.000 A 
ATOM     13  C   UNL     1      47.245   8.971  13.197  0.00  0.00    +0.000 A 
ATOM     14  N   UNL     1      48.040   8.499  14.178  0.00  0.00    +0.000 NA
BRANCH   9  16
ATOM     15  F   UNL     1      50.132   6.637  15.252  0.00  0.00    +0.000 F 
ATOM     16  C   UNL     1      48.811   6.618  15.608  0.00  0.00    +0.000 C 
ATOM     17  F   UNL     1      48.536   5.316  15.903  0.00  0.00    +0.000 F 
ATOM     18  F   UNL     1      48.750   7.297  16.790  0.00  0.00    +0.000 F 
ENDBRANCH   9  16
ENDBRANCH   1  11
BRANCH   6  19
ATOM     19  C   UNL     1      44.612   2.056   9.389  0.00  0.00    +0.000 C 
BRANCH  19  20
ATOM     20  C   UNL     1      45.594   2.163   8.247  0.00  0.00    +0.000 A 
ATOM     21  C   UNL     1      46.504   1.141   7.966  0.00  0.00    +0.000 A 
ATOM     22  C   UNL     1      47.432   1.345   6.956  0.00  0.00    +0.000 A 
ATOM     23  N   UNL     1      47.519   2.477   6.224  0.00  0.00    +0.000 NA
ATOM     24  C   UNL     1      46.641   3.458   6.523  0.00  0.00    +0.000 A 
ATOM     25  C   UNL     1      45.677   3.351   7.511  0.00  0.00    +0.000 A 
ENDBRANCH  19  20
ENDBRANCH   6  19
TORSDOF 4
ENDMDL
MODEL 5
REMARK VINA RESULT:    -6.770      3.987      8.046
REMARK INTER + INTRA:          -9.004
REMARK INTER:                  -8.396
REMARK INTRA:                  -0.608
REMARK UNBOUND:                -0.650
REMARK  Name = 
REMARK  4 active torsions:
REMARK  status: ('A' for Active; 'I' for Inactive)
REMARK    1  A    between atoms: C_2  and  C_5
REMARK    2  A    between atoms: C_7  and  C_8
REMARK    3  A    between atoms: N_13  and  C_14
REMARK    4  A    between atoms: C_14  and  C_15
REMARK                            x       y       z     vdW  Elec       q    Type
REMARK                         _______ _______ _______ _____ _____    ______ ____
ROOT
ATOM      1  C   UNL     1      45.904   6.787  11.890  0.00  0.00    +0.000 A 
ATOM      2  C   UNL     1      45.295   7.986  12.268  0.00  0.00    +0.000 A 
ATOM      3  C   UNL     1      46.012   8.894  13.031  0.00  0.00    +0.000 A 
ATOM      4  N   UNL     1      47.279   8.696  13.451  0.00  0.00    +0.000 NA
ATOM      5  C   UNL     1      47.886   7.560  13.074  0.00  0.00    +0.000 A 
ATOM      6  N   UNL     1      49.148   7.230  13.544  0.00  0.00    +0.000 N 
ATOM      7  C   UNL     1      47.238   6.611  12.286  0.00  0.00    +0.000 A 
ATOM      8  H   UNL     1      49.807   6.998  12.813  0.00  0.00    +0.000 HD
ENDROOT
BRANCH   1  11
ATOM      9  C   UNL     1      44.997   4.096   9.367  0.00  0.00    +0.000 A 
ATOM     10  C   UNL     1      45.656   5.168   9.976  0.00  0.00    +0.000 A 
ATOM     11  C   UNL     1      45.176   5.714  11.178  0.00  0.00    +0.000 A 
ATOM     12  C   UNL     1      44.010   5.147  11.709  0.00  0.00    +0.000 A 
ATOM     13  C   UNL     1      43.398   4.097  11.044  0.00  0.00    +0.000 A 
ATOM     14  N   UNL     1      43.862   3.562   9.898  0.00  0.00    +0.000 NA
BRANCH   9  16
ATOM     15  F   UNL     1      46.096   2.231   8.295  0.00  0.00    +0.000 F 
ATOM     16  C   UNL     1      45.574   3.480   8.098  0.00  0.00    +0.000 C 
ATOM     17  F   UNL     1      46.589   4.214   7.562  0.00  0.00    +0.000 F 
ATOM     18  F   UNL     1      44.650   3.328   7.105  0.00  0.00    +0.000 F 
ENDBRANCH   9  16
ENDBRANCH   1  11
BRANCH   6  19
ATOM     19  C   UNL     1      49.702   7.955  14.665  0.00  0.00    +0.000 C 
BRANCH  19  20
ATOM     20  C   UNL     1      49.922   6.939  15.760  0.00  0.00    +0.000 A 
ATOM     21  C   UNL     1      51.199   6.659  16.253  0.00  0.00    +0.000 A 
ATOM     22  C   UNL     1      51.334   5.654  17.198  0.00  0.00    +0.000 A 
ATOM     23  N   UNL     1      50.306   4.918  17.674  0.00  0.00    +0.000 NA
ATOM     24  C   UNL     1      49.084   5.194  17.172  0.00  0.00    +0.000 A 
ATOM     25  C   UNL     1      48.845   6.177  16.228  0.00  0.00    +0.000 A 
ENDBRANCH  19  20
ENDBRANCH   6  19
TORSDOF 4
ENDMDL
MODEL 6
REMARK VINA RESULT:    -6.739      3.526      4.104
REMARK INTER + INTRA:          -8.966
REMARK INTER:                  -8.305
REMARK INTRA:                  -0.661
REMARK UNBOUND:                -0.650
REMARK  Name = 
REMARK  4 active torsions:
REMARK  status: ('A' for Active; 'I' for Inactive)
REMARK    1  A    between atoms: C_2  and  C_5
REMARK    2  A    between atoms: C_7  and  C_8
REMARK    3  A    between atoms: N_13  and  C_14
REMARK    4  A    between atoms: C_14  and  C_15
REMARK                            x       y       z     vdW  Elec       q    Type
REMARK                         _______ _______ _______ _____ _____    ______ ____
ROOT
ATOM      1  C   UNL     1      45.687   6.120  12.444  0.00  0.00    +0.000 A 
ATOM      2  C   UNL     1      44.529   6.778  12.023  0.00  0.00    +0.000 A 
ATOM      3  C   UNL     1      43.601   6.086  11.261  0.00  0.00    +0.000 A 
ATOM      4  N   UNL     1      43.742   4.798  10.882  0.00  0.00    +0.000 NA
ATOM      5  C   UNL     1      44.838   4.146  11.300  0.00  0.00    +0.000 A 
ATOM      6  N   UNL     1      45.112   2.856  10.874  0.00  0.00    +0.000 N 
ATOM      7  C   UNL     1      45.803   4.768  12.090  0.00  0.00    +0.000 A 
ATOM      8  H   UNL     1      45.295   2.207  11.627  0.00  0.00    +0.000 HD
ENDROOT
BRANCH   1  11
ATOM      9  C   UNL     1      48.079   8.817  13.642  0.00  0.00    +0.000 A 
ATOM     10  C   UNL     1      47.099   8.157  12.894  0.00  0.00    +0.000 A 
ATOM     11  C   UNL     1      46.782   6.814  13.158  0.00  0.00    +0.000 A 
ATOM     12  C   UNL     1      47.506   6.181  14.176  0.00  0.00    +0.000 A 
ATOM     13  C   UNL     1      48.476   6.889  14.865  0.00  0.00    +0.000 A 
ATOM     14  N   UNL     1      48.774   8.181  14.626  0.00  0.00    +0.000 NA
BRANCH   9  16
ATOM     15  F   UNL     1      49.494  10.502  12.646  0.00  0.00    +0.000 F 
ATOM     16  C   UNL     1      48.360  10.293  13.381  0.00  0.00    +0.000 C 
ATOM     17  F   UNL     1      48.534  11.013  14.525  0.00  0.00    +0.000 F 
ATOM     18  F   UNL     1      47.364  10.916  12.687  0.00  0.00    +0.000 F 
ENDBRANCH   9  16
ENDBRANCH   1  11
BRANCH   6  19
ATOM     19  C   UNL     1      44.382   2.306   9.753  0.00  0.00    +0.000 C 
BRANCH  19  20
ATOM     20  C   UNL     1      45.330   2.327   8.578  0.00  0.00    +0.000 A 
ATOM     21  C   UNL     1      45.327   3.376   7.655  0.00  0.00    +0.000 A 
ATOM     22  C   UNL     1      46.166   3.287   6.554  0.00  0.00    +0.000 A 
ATOM     23  N   UNL     1      46.988   2.243   6.311  0.00  0.00    +0.000 NA
ATOM     24  C   UNL     1      46.963   1.234   7.207  0.00  0.00    +0.000 A 
ATOM     25  C   UNL     1      46.163   1.228   8.336  0.00  0.00    +0.000 A 
ENDBRANCH  19  20
ENDBRANCH   6  19
TORSDOF 4
ENDMDL
MODEL 7
REMARK VINA RESULT:    -6.599      4.766      8.331
REMARK INTER + INTRA:          -8.792
REMARK INTER:                  -8.187
REMARK INTRA:                  -0.606
REMARK UNBOUND:                -0.650
REMARK  Name = 
REMARK  4 active torsions:
REMARK  status: ('A' for Active; 'I' for Inactive)
REMARK    1  A    between atoms: C_2  and  C_5
REMARK    2  A    between atoms: C_7  and  C_8
REMARK    3  A    between atoms: N_13  and  C_14
REMARK    4  A    between atoms: C_14  and  C_15
REMARK                            x       y       z     vdW  Elec       q    Type
REMARK                         _______ _______ _______ _____ _____    ______ ____
ROOT
ATOM      1  C   UNL     1      44.811   3.123   9.571  0.00  0.00    +0.000 A 
ATOM      2  C   UNL     1      43.972   2.510  10.504  0.00  0.00    +0.000 A 
ATOM      3  C   UNL     1      43.427   3.274  11.524  0.00  0.00    +0.000 A 
ATOM      4  N   UNL     1      43.660   4.593  11.689  0.00  0.00    +0.000 NA
ATOM      5  C   UNL     1      44.445   5.201  10.785  0.00  0.00    +0.000 A 
ATOM      6  N   UNL     1      44.818   6.527  10.936  0.00  0.00    +0.000 N 
ATOM      7  C   UNL     1      45.008   4.503   9.718  0.00  0.00    +0.000 A 
ATOM      8  H   UNL     1      44.635   7.098  10.122  0.00  0.00    +0.000 HD
ENDROOT
BRANCH   1  11
ATOM      9  C   UNL     1      46.669   2.248   6.375  0.00  0.00    +0.000 A 
ATOM     10  C   UNL     1      45.917   2.962   7.314  0.00  0.00    +0.000 A 
ATOM     11  C   UNL     1      45.527   2.362   8.523  0.00  0.00    +0.000 A 
ATOM     12  C   UNL     1      45.907   1.029   8.720  0.00  0.00    +0.000 A 
ATOM     13  C   UNL     1      46.636   0.376   7.741  0.00  0.00    +0.000 A 
ATOM     14  N   UNL     1      47.024   0.949   6.585  0.00  0.00    +0.000 NA
BRANCH   9  16
ATOM     15  F   UNL     1      48.412   2.602   4.741  0.00  0.00    +0.000 F 
ATOM     16  C   UNL     1      47.135   2.939   5.099  0.00  0.00    +0.000 C 
ATOM     17  F   UNL     1      47.135   4.298   5.198  0.00  0.00    +0.000 F 
ATOM     18  F   UNL     1      46.367   2.637   4.012  0.00  0.00    +0.000 F 
ENDBRANCH   9  16
ENDBRANCH   1  11
BRANCH   6  19
ATOM     19  C   UNL     1      44.612   7.186  12.207  0.00  0.00    +0.000 C 
BRANCH  19  20
ATOM     20  C   UNL     1      45.969   7.276  12.863  0.00  0.00    +0.000 A 
ATOM     21  C   UNL     1      46.652   6.135  13.290  0.00  0.00    +0.000 A 
ATOM     22  C   UNL     1      47.855   6.300  13.961  0.00  0.00    +0.000 A 
ATOM     23  N   UNL     1      48.411   7.501  14.235  0.00  0.00    +0.000 NA
ATOM     24  C   UNL     1      47.725   8.590  13.828  0.00  0.00    +0.000 A 
ATOM     25  C   UNL     1      46.519   8.531  13.152  0.00  0.00    +0.000 A 
ENDBRANCH  19  20
ENDBRANCH   6  19
TORSDOF 4
ENDMDL
MODEL 8
REMARK VINA RESULT:    -6.577      4.886      7.366
REMARK INTER + INTRA:          -8.765
REMARK INTER:                  -8.205
REMARK INTRA:                  -0.561
REMARK UNBOUND:                -0.650
REMARK  Name = 
REMARK  4 active torsions:
REMARK  status: ('A' for Active; 'I' for Inactive)
REMARK    1  A    between atoms: C_2  and  C_5
REMARK    2  A    between atoms: C_7  and  C_8
REMARK    3  A    between atoms: N_13  and  C_14
REMARK    4  A    between atoms: C_14  and  C_15
REMARK                            x       y       z     vdW  Elec       q    Type
REMARK                         _______ _______ _______ _____ _____    ______ ____
ROOT
ATOM      1  C   UNL     1      45.582   6.473  11.833  0.00  0.00    +0.000 A 
ATOM      2  C   UNL     1      44.997   7.583  12.449  0.00  0.00    +0.000 A 
ATOM      3  C   UNL     1      45.800   8.654  12.807  0.00  0.00    +0.000 A 
ATOM      4  N   UNL     1      47.134   8.701  12.607  0.00  0.00    +0.000 NA
ATOM      5  C   UNL     1      47.705   7.652  11.993  0.00  0.00    +0.000 A 
ATOM      6  N   UNL     1      49.081   7.573  11.839  0.00  0.00    +0.000 N 
ATOM      7  C   UNL     1      46.959   6.550  11.581  0.00  0.00    +0.000 A 
ATOM      8  H   UNL     1      49.375   7.394  10.889  0.00  0.00    +0.000 HD
ENDROOT
BRANCH   1  11
ATOM      9  C   UNL     1      44.441   3.252  10.174  0.00  0.00    +0.000 A 
ATOM     10  C   UNL     1      45.114   4.457  10.397  0.00  0.00    +0.000 A 
ATOM     11  C   UNL     1      44.821   5.241  11.526  0.00  0.00    +0.000 A 
ATOM     12  C   UNL     1      43.822   4.767  12.384  0.00  0.00    +0.000 A 
ATOM     13  C   UNL     1      43.184   3.573  12.094  0.00  0.00    +0.000 A 
ATOM     14  N   UNL     1      43.469   2.811  11.020  0.00  0.00    +0.000 NA
BRANCH   9  16
ATOM     15  F   UNL     1      46.165   2.158   8.884  0.00  0.00    +0.000 F 
ATOM     16  C   UNL     1      44.820   2.387   8.977  0.00  0.00    +0.000 C 
ATOM     17  F   UNL     1      44.465   2.943   7.784  0.00  0.00    +0.000 F 
ATOM     18  F   UNL     1      44.248   1.149   9.005  0.00  0.00    +0.000 F 
ENDBRANCH   9  16
ENDBRANCH   1  11
BRANCH   6  19
ATOM     19  C   UNL     1      49.934   8.467  12.590  0.00  0.00    +0.000 C 
BRANCH  19  20
ATOM     20  C   UNL     1      51.317   8.329  11.998  0.00  0.00    +0.000 A 
ATOM     21  C   UNL     1      52.438   8.877  12.624  0.00  0.00    +0.000 A 
ATOM     22  C   UNL     1      53.663   8.786  11.980  0.00  0.00    +0.000 A 
ATOM     23  N   UNL     1      53.843   8.201  10.775  0.00  0.00    +0.000 NA
ATOM     24  C   UNL     1      52.743   7.693  10.180  0.00  0.00    +0.000 A 
ATOM     25  C   UNL     1      51.479   7.734  10.741  0.00  0.00    +0.000 A 
ENDBRANCH  19  20
ENDBRANCH   6  19
TORSDOF 4
ENDMDL
MODEL 9
REMARK VINA RESULT:    -6.568      4.669      8.175
REMARK INTER + INTRA:          -8.755
REMARK INTER:                  -8.173
REMARK INTRA:                  -0.582
REMARK UNBOUND:                -0.650
REMARK  Name = 
REMARK  4 active torsions:
REMARK  status: ('A' for Active; 'I' for Inactive)
REMARK    1  A    between atoms: C_2  and  C_5
REMARK    2  A    between atoms: C_7  and  C_8
REMARK    3  A    between atoms: N_13  and  C_14
REMARK    4  A    between atoms: C_14  and  C_15
REMARK                            x       y       z     vdW  Elec       q    Type
REMARK                         _______ _______ _______ _____ _____    ______ ____
ROOT
ATOM      1  C   UNL     1      44.780   4.988  10.172  0.00  0.00    +0.000 A 
ATOM      2  C   UNL     1      43.496   5.319  10.611  0.00  0.00    +0.000 A 
ATOM      3  C   UNL     1      43.331   6.412  11.447  0.00  0.00    +0.000 A 
ATOM      4  N   UNL     1      44.344   7.191  11.883  0.00  0.00    +0.000 NA
ATOM      5  C   UNL     1      45.580   6.900  11.449  0.00  0.00    +0.000 A 
ATOM      6  N   UNL     1      46.688   7.584  11.927  0.00  0.00    +0.000 N 
ATOM      7  C   UNL     1      45.820   5.832  10.587  0.00  0.00    +0.000 A 
ATOM      8  H   UNL     1      47.280   7.960  11.199  0.00  0.00    +0.000 HD
ENDROOT
BRANCH   1  11
ATOM      9  C   UNL     1      46.246   2.621   7.587  0.00  0.00    +0.000 A 
ATOM     10  C   UNL     1      45.928   3.799   8.271  0.00  0.00    +0.000 A 
ATOM     11  C   UNL     1      45.061   3.773   9.376  0.00  0.00    +0.000 A 
ATOM     12  C   UNL     1      44.527   2.528   9.732  0.00  0.00    +0.000 A 
ATOM     13  C   UNL     1      44.871   1.404   9.001  0.00  0.00    +0.000 A 
ATOM     14  N   UNL     1      45.712   1.421   7.948  0.00  0.00    +0.000 NA
BRANCH   9  16
ATOM     15  F   UNL     1      48.518   2.940   6.831  0.00  0.00    +0.000 F 
ATOM     16  C   UNL     1      47.239   2.666   6.431  0.00  0.00    +0.000 C 
ATOM     17  F   UNL     1      46.938   3.620   5.506  0.00  0.00    +0.000 F 
ATOM     18  F   UNL     1      47.323   1.487   5.749  0.00  0.00    +0.000 F 
ENDBRANCH   9  16
ENDBRANCH   1  11
BRANCH   6  19
ATOM     19  C   UNL     1      46.560   8.412  13.104  0.00  0.00    +0.000 C 
BRANCH  19  20
ATOM     20  C   UNL     1      47.923   8.438  13.754  0.00  0.00    +0.000 A 
ATOM     21  C   UNL     1      48.137   9.069  14.982  0.00  0.00    +0.000 A 
ATOM     22  C   UNL     1      49.431   9.126  15.477  0.00  0.00    +0.000 A 
ATOM     23  N   UNL     1      50.508   8.614  14.843  0.00  0.00    +0.000 NA
ATOM     24  C   UNL     1      50.281   8.024  13.650  0.00  0.00    +0.000 A 
ATOM     25  C   UNL     1      49.029   7.915  13.072  0.00  0.00    +0.000 A 
ENDBRANCH  19  20
ENDBRANCH   6  19
TORSDOF 4
ENDMDL
