MODEL 1
REMARK VINA RESULT:    -6.760      0.000      0.000
REMARK INTER + INTRA:          -8.844
REMARK INTER:                  -8.143
REMARK INTRA:                  -0.700
REMARK UNBOUND:                -0.700
REMARK  Name = 
REMARK  4 active torsions:
REMARK  status: ('A' for Active; 'I' for Inactive)
REMARK    1  A    between atoms: N_1  and  C_2
REMARK    2  A    between atoms: C_2  and  C_3
REMARK    3  A    between atoms: C_6  and  C_7
REMARK    4  A    between atoms: C_7  and  N_8
REMARK                            x       y       z     vdW  Elec       q    Type
REMARK                         _______ _______ _______ _____ _____    ______ ____
ROOT
ATOM      1  C   UNL     1      44.519   6.610  11.422  0.00  0.00    +0.000 C 
ENDROOT
BRANCH   1   2
ATOM      2  N   UNL     1      44.259   5.206  11.123  0.00  0.00    +0.000 N 
ATOM      3  C   UNL     1      43.421   4.407  11.863  0.00  0.00    +0.000 A 
ATOM      4  C   UNL     1      43.455   3.140  11.329  0.00  0.00    +0.000 A 
ATOM      5  C   UNL     1      44.293   3.176  10.183  0.00  0.00    +0.000 A 
ATOM      6  C   UNL     1      44.671   2.208   9.231  0.00  0.00    +0.000 A 
ATOM      7  C   UNL     1      45.514   2.572   8.176  0.00  0.00    +0.000 A 
ATOM      8  C   UNL     1      45.980   3.876   8.081  0.00  0.00    +0.000 A 
ATOM      9  F   UNL     1      46.782   4.206   7.059  0.00  0.00    +0.000 F 
ATOM     10  C   UNL     1      45.635   4.854   9.012  0.00  0.00    +0.000 A 
ATOM     11  C   UNL     1      44.780   4.486  10.065  0.00  0.00    +0.000 A 
ENDBRANCH   1   2
BRANCH   1  15
ATOM     12  C   UNL     1      48.063   7.759  12.413  0.00  0.00    +0.000 C 
ATOM     13  C   UNL     1      47.623   6.306  12.167  0.00  0.00    +0.000 C 
ATOM     14  C   UNL     1      46.412   5.920  13.016  0.00  0.00    +0.000 C 
ATOM     15  C   UNL     1      45.208   6.848  12.786  0.00  0.00    +0.000 C 
ATOM     16  C   UNL     1      45.621   8.323  12.951  0.00  0.00    +0.000 C 
ATOM     17  C   UNL     1      46.875   8.705  12.161  0.00  0.00    +0.000 C 
BRANCH  12  18
ATOM     18  C   UNL     1      48.664   7.978  13.819  0.00  0.00    +0.000 C 
BRANCH  18  19
ATOM     19  N   UNL     1      49.744   7.037  14.096  0.00  0.00    +0.000 NA
ATOM     20  H   UNL     1      50.547   7.254  13.508  0.00  0.00    +0.000 HD
ATOM     21  H   UNL     1      49.452   6.093  13.853  0.00  0.00    +0.000 HD
ENDBRANCH  18  19
ENDBRANCH  12  18
ENDBRANCH   1  15
TORSDOF 4
ENDMDL
MODEL 2
REMARK VINA RESULT:    -6.446      2.492      5.847
REMARK INTER + INTRA:          -8.466
REMARK INTER:                  -7.816
REMARK INTRA:                  -0.649
REMARK UNBOUND:                -0.700
REMARK  Name = 
REMARK  4 active torsions:
REMARK  status: ('A' for Active; 'I' for Inactive)
REMARK    1  A    between atoms: N_1  and  C_2
REMARK    2  A    between atoms: C_2  and  C_3
REMARK    3  A    between atoms: C_6  and  C_7
REMARK    4  A    between atoms: C_7  and  N_8
REMARK                            x       y       z     vdW  Elec       q    Type
REMARK                         _______ _______ _______ _____ _____    ______ ____
ROOT
ATOM      1  C   UNL     1      44.891   2.919  10.401  0.00  0.00    +0.000 C 
ENDROOT
BRANCH   1   2
ATOM      2  N   UNL     1      44.293   4.121  10.969  0.00  0.00    +0.000 N 
ATOM      3  C   UNL     1      42.964   4.235  11.300  0.00  0.00    +0.000 A 
ATOM      4  C   UNL     1      42.743   5.513  11.757  0.00  0.00    +0.000 A 
ATOM      5  C   UNL     1      43.991   6.189  11.768  0.00  0.00    +0.000 A 
ATOM      6  C   UNL     1      44.386   7.485  12.162  0.00  0.00    +0.000 A 
ATOM      7  C   UNL     1      45.733   7.851  12.072  0.00  0.00    +0.000 A 
ATOM      8  C   UNL     1      46.666   6.946  11.587  0.00  0.00    +0.000 A 
ATOM      9  F   UNL     1      47.952   7.315  11.515  0.00  0.00    +0.000 F 
ATOM     10  C   UNL     1      46.307   5.662  11.179  0.00  0.00    +0.000 A 
ATOM     11  C   UNL     1      44.955   5.295  11.280  0.00  0.00    +0.000 A 
ENDBRANCH   1   2
BRANCH   1  15
ATOM     12  C   UNL     1      47.072   3.041   7.225  0.00  0.00    +0.000 C 
ATOM     13  C   UNL     1      46.344   4.235   7.863  0.00  0.00    +0.000 C 
ATOM     14  C   UNL     1      44.853   3.965   8.054  0.00  0.00    +0.000 C 
ATOM     15  C   UNL     1      44.582   2.709   8.900  0.00  0.00    +0.000 C 
ATOM     16  C   UNL     1      45.353   1.499   8.337  0.00  0.00    +0.000 C 
ATOM     17  C   UNL     1      46.835   1.780   8.074  0.00  0.00    +0.000 C 
BRANCH  12  18
ATOM     18  C   UNL     1      46.671   2.807   5.751  0.00  0.00    +0.000 C 
BRANCH  18  19
ATOM     19  N   UNL     1      47.838   2.592   4.902  0.00  0.00    +0.000 NA
ATOM     20  H   UNL     1      47.754   3.153   4.056  0.00  0.00    +0.000 HD
ATOM     21  H   UNL     1      47.875   1.619   4.603  0.00  0.00    +0.000 HD
ENDBRANCH  18  19
ENDBRANCH  12  18
ENDBRANCH   1  15
TORSDOF 4
ENDMDL
MODEL 3
REMARK VINA RESULT:    -5.840      1.163      1.983
REMARK INTER + INTRA:          -7.735
REMARK INTER:                  -7.188
REMARK INTRA:                  -0.548
REMARK UNBOUND:                -0.700
REMARK  Name = 
REMARK  4 active torsions:
REMARK  status: ('A' for Active; 'I' for Inactive)
REMARK    1  A    between atoms: N_1  and  C_2
REMARK    2  A    between atoms: C_2  and  C_3
REMARK    3  A    between atoms: C_6  and  C_7
REMARK    4  A    between atoms: C_7  and  N_8
REMARK                            x       y       z     vdW  Elec       q    Type
REMARK                         _______ _______ _______ _____ _____    ______ ____
ROOT
ATOM      1  C   UNL     1      45.989   7.182  11.771  0.00  0.00    +0.000 C 
ENDROOT
BRANCH   1   2
ATOM      2  N   UNL     1      45.266   5.916  11.800  0.00  0.00    +0.000 N 
ATOM      3  C   UNL     1      44.580   5.449  12.895  0.00  0.00    +0.000 A 
ATOM      4  C   UNL     1      44.067   4.211  12.584  0.00  0.00    +0.000 A 
ATOM      5  C   UNL     1      44.395   3.935  11.231  0.00  0.00    +0.000 A 
ATOM      6  C   UNL     1      44.114   2.855  10.368  0.00  0.00    +0.000 A 
ATOM      7  C   UNL     1      44.569   2.893   9.047  0.00  0.00    +0.000 A 
ATOM      8  C   UNL     1      45.301   3.983   8.598  0.00  0.00    +0.000 A 
ATOM      9  F   UNL     1      45.723   4.002   7.326  0.00  0.00    +0.000 F 
ATOM     10  C   UNL     1      45.607   5.060   9.428  0.00  0.00    +0.000 A 
ATOM     11  C   UNL     1      45.139   5.023  10.752  0.00  0.00    +0.000 A 
ENDBRANCH   1   2
BRANCH   1  15
ATOM     12  C   UNL     1      48.762   8.184  14.255  0.00  0.00    +0.000 C 
ATOM     13  C   UNL     1      48.197   9.069  13.131  0.00  0.00    +0.000 C 
ATOM     14  C   UNL     1      48.262   8.381  11.769  0.00  0.00    +0.000 C 
ATOM     15  C   UNL     1      47.528   7.029  11.752  0.00  0.00    +0.000 C 
ATOM     16  C   UNL     1      48.013   6.135  12.910  0.00  0.00    +0.000 C 
ATOM     17  C   UNL     1      48.020   6.836  14.271  0.00  0.00    +0.000 C 
BRANCH  12  18
ATOM     18  C   UNL     1      50.290   7.980  14.152  0.00  0.00    +0.000 C 
BRANCH  18  19
ATOM     19  N   UNL     1      50.762   6.964  15.086  0.00  0.00    +0.000 NA
ATOM     20  H   UNL     1      50.003   6.320  15.305  0.00  0.00    +0.000 HD
ATOM     21  H   UNL     1      51.036   7.400  15.964  0.00  0.00    +0.000 HD
ENDBRANCH  18  19
ENDBRANCH  12  18
ENDBRANCH   1  15
TORSDOF 4
ENDMDL
MODEL 4
REMARK VINA RESULT:    -5.747      3.811      7.070
REMARK INTER + INTRA:          -7.624
REMARK INTER:                  -7.229
REMARK INTRA:                  -0.395
REMARK UNBOUND:                -0.700
REMARK  Name = 
REMARK  4 active torsions:
REMARK  status: ('A' for Active; 'I' for Inactive)
REMARK    1  A    between atoms: N_1  and  C_2
REMARK    2  A    between atoms: C_2  and  C_3
REMARK    3  A    between atoms: C_6  and  C_7
REMARK    4  A    between atoms: C_7  and  N_8
REMARK                            x       y       z     vdW  Elec       q    Type
REMARK                         _______ _______ _______ _____ _____    ______ ____
ROOT
ATOM      1  C   UNL     1      47.547   5.673  13.421  0.00  0.00    +0.000 C 
ENDROOT
BRANCH   1   2
ATOM      2  N   UNL     1      48.078   6.031  14.731  0.00  0.00    +0.000 N 
ATOM      3  C   UNL     1      48.728   7.212  14.999  0.00  0.00    +0.000 A 
ATOM      4  C   UNL     1      49.135   7.189  16.312  0.00  0.00    +0.000 A 
ATOM      5  C   UNL     1      48.664   5.981  16.890  0.00  0.00    +0.000 A 
ATOM      6  C   UNL     1      48.744   5.433  18.187  0.00  0.00    +0.000 A 
ATOM      7  C   UNL     1      48.141   4.199  18.452  0.00  0.00    +0.000 A 
ATOM      8  C   UNL     1      47.482   3.519  17.438  0.00  0.00    +0.000 A 
ATOM      9  F   UNL     1      46.905   2.341  17.714  0.00  0.00    +0.000 F 
ATOM     10  C   UNL     1      47.396   4.027  16.142  0.00  0.00    +0.000 A 
ATOM     11  C   UNL     1      47.994   5.271  15.883  0.00  0.00    +0.000 A 
ENDBRANCH   1   2
BRANCH   1  15
ATOM     12  C   UNL     1      44.955   4.567  10.790  0.00  0.00    +0.000 C 
ATOM     13  C   UNL     1      45.817   5.840  10.726  0.00  0.00    +0.000 C 
ATOM     14  C   UNL     1      45.676   6.693  11.985  0.00  0.00    +0.000 C 
ATOM     15  C   UNL     1      46.028   5.920  13.267  0.00  0.00    +0.000 C 
ATOM     16  C   UNL     1      45.239   4.598  13.337  0.00  0.00    +0.000 C 
ATOM     17  C   UNL     1      45.314   3.766  12.054  0.00  0.00    +0.000 C 
BRANCH  12  18
ATOM     18  C   UNL     1      43.440   4.861  10.724  0.00  0.00    +0.000 C 
BRANCH  18  19
ATOM     19  N   UNL     1      42.661   3.824  11.392  0.00  0.00    +0.000 NA
ATOM     20  H   UNL     1      42.128   4.235  12.157  0.00  0.00    +0.000 HD
ATOM     21  H   UNL     1      43.285   3.137  11.811  0.00  0.00    +0.000 HD
ENDBRANCH  18  19
ENDBRANCH  12  18
ENDBRANCH   1  15
TORSDOF 4
ENDMDL
MODEL 5
REMARK VINA RESULT:    -5.577      2.757      6.187
REMARK INTER + INTRA:          -7.419
REMARK INTER:                  -6.928
REMARK INTRA:                  -0.491
REMARK UNBOUND:                -0.700
REMARK  Name = 
REMARK  4 active torsions:
REMARK  status: ('A' for Active; 'I' for Inactive)
REMARK    1  A    between atoms: N_1  and  C_2
REMARK    2  A    between atoms: C_2  and  C_3
REMARK    3  A    between atoms: C_6  and  C_7
REMARK    4  A    between atoms: C_7  and  N_8
REMARK                            x       y       z     vdW  Elec       q    Type
REMARK                         _______ _______ _______ _____ _____    ______ ____
ROOT
ATOM      1  C   UNL     1      45.081   7.525  12.706  0.00  0.00    +0.000 C 
ENDROOT
BRANCH   1   2
ATOM      2  N   UNL     1      45.770   8.749  12.313  0.00  0.00    +0.000 N 
ATOM      3  C   UNL     1      45.147   9.964  12.160  0.00  0.00    +0.000 A 
ATOM      4  C   UNL     1      46.085  10.875  11.735  0.00  0.00    +0.000 A 
ATOM      5  C   UNL     1      47.340  10.214  11.685  0.00  0.00    +0.000 A 
ATOM      6  C   UNL     1      48.645  10.638  11.361  0.00  0.00    +0.000 A 
ATOM      7  C   UNL     1      49.703   9.726  11.434  0.00  0.00    +0.000 A 
ATOM      8  C   UNL     1      49.461   8.413  11.812  0.00  0.00    +0.000 A 
ATOM      9  F   UNL     1      50.490   7.557  11.882  0.00  0.00    +0.000 F 
ATOM     10  C   UNL     1      48.181   7.959  12.127  0.00  0.00    +0.000 A 
ATOM     11  C   UNL     1      47.123   8.881  12.062  0.00  0.00    +0.000 A 
ENDBRANCH   1   2
BRANCH   1  15
ATOM     12  C   UNL     1      43.698   3.929  12.551  0.00  0.00    +0.000 C 
ATOM     13  C   UNL     1      45.174   4.319  12.738  0.00  0.00    +0.000 C 
ATOM     14  C   UNL     1      45.664   5.261  11.639  0.00  0.00    +0.000 C 
ATOM     15  C   UNL     1      44.821   6.544  11.539  0.00  0.00    +0.000 C 
ATOM     16  C   UNL     1      43.324   6.200  11.423  0.00  0.00    +0.000 C 
ATOM     17  C   UNL     1      42.836   5.202  12.476  0.00  0.00    +0.000 C 
BRANCH  12  18
ATOM     18  C   UNL     1      43.464   3.022  11.323  0.00  0.00    +0.000 C 
BRANCH  18  19
ATOM     19  N   UNL     1      43.095   1.667  11.717  0.00  0.00    +0.000 NA
ATOM     20  H   UNL     1      42.186   1.679  12.177  0.00  0.00    +0.000 HD
ATOM     21  H   UNL     1      43.761   1.310  12.399  0.00  0.00    +0.000 HD
ENDBRANCH  18  19
ENDBRANCH  12  18
ENDBRANCH   1  15
TORSDOF 4
ENDMDL
MODEL 6
REMARK VINA RESULT:    -5.085      3.046      6.892
REMARK INTER + INTRA:          -6.826
REMARK INTER:                  -6.315
REMARK INTRA:                  -0.511
REMARK UNBOUND:                -0.700
REMARK  Name = 
REMARK  4 active torsions:
REMARK  status: ('A' for Active; 'I' for Inactive)
REMARK    1  A    between atoms: N_1  and  C_2
REMARK    2  A    between atoms: C_2  and  C_3
REMARK    3  A    between atoms: C_6  and  C_7
REMARK    4  A    between atoms: C_7  and  N_8
REMARK                            x       y       z     vdW  Elec       q    Type
REMARK                         _______ _______ _______ _____ _____    ______ ____
ROOT
ATOM      1  C   UNL     1      46.350   6.968  12.926  0.00  0.00    +0.000 C 
ENDROOT
BRANCH   1   2
ATOM      2  N   UNL     1      47.660   7.606  12.986  0.00  0.00    +0.000 N 
ATOM      3  C   UNL     1      48.104   8.533  12.074  0.00  0.00    +0.000 A 
ATOM      4  C   UNL     1      49.392   8.879  12.407  0.00  0.00    +0.000 A 
ATOM      5  C   UNL     1      49.730   8.191  13.602  0.00  0.00    +0.000 A 
ATOM      6  C   UNL     1      50.879   8.176  14.419  0.00  0.00    +0.000 A 
ATOM      7  C   UNL     1      50.893   7.390  15.575  0.00  0.00    +0.000 A 
ATOM      8  C   UNL     1      49.785   6.622  15.903  0.00  0.00    +0.000 A 
ATOM      9  F   UNL     1      49.816   5.879  17.018  0.00  0.00    +0.000 F 
ATOM     10  C   UNL     1      48.638   6.604  15.110  0.00  0.00    +0.000 A 
ATOM     11  C   UNL     1      48.625   7.403  13.956  0.00  0.00    +0.000 A 
ENDBRANCH   1   2
BRANCH   1  15
ATOM     12  C   UNL     1      43.507   4.608  11.828  0.00  0.00    +0.000 C 
ATOM     13  C   UNL     1      44.284   4.525  13.152  0.00  0.00    +0.000 C 
ATOM     14  C   UNL     1      45.794   4.459  12.929  0.00  0.00    +0.000 C 
ATOM     15  C   UNL     1      46.326   5.651  12.116  0.00  0.00    +0.000 C 
ATOM     16  C   UNL     1      45.525   5.816  10.810  0.00  0.00    +0.000 C 
ATOM     17  C   UNL     1      44.007   5.812  11.011  0.00  0.00    +0.000 C 
BRANCH  12  18
ATOM     18  C   UNL     1      43.580   3.304  11.002  0.00  0.00    +0.000 C 
BRANCH  18  19
ATOM     19  N   UNL     1      43.004   2.175  11.726  0.00  0.00    +0.000 NA
ATOM     20  H   UNL     1      43.544   1.999  12.572  0.00  0.00    +0.000 HD
ATOM     21  H   UNL     1      43.069   1.331  11.160  0.00  0.00    +0.000 HD
ENDBRANCH  18  19
ENDBRANCH  12  18
ENDBRANCH   1  15
TORSDOF 4
ENDMDL
MODEL 7
REMARK VINA RESULT:    -5.042      2.576      6.465
REMARK INTER + INTRA:          -6.774
REMARK INTER:                  -6.288
REMARK INTRA:                  -0.486
REMARK UNBOUND:                -0.700
REMARK  Name = 
REMARK  4 active torsions:
REMARK  status: ('A' for Active; 'I' for Inactive)
REMARK    1  A    between atoms: N_1  and  C_2
REMARK    2  A    between atoms: C_2  and  C_3
REMARK    3  A    between atoms: C_6  and  C_7
REMARK    4  A    between atoms: C_7  and  N_8
REMARK                            x       y       z     vdW  Elec       q    Type
REMARK                         _______ _______ _______ _____ _____    ______ ____
ROOT
ATOM      1  C   UNL     1      46.271   6.863  13.026  0.00  0.00    +0.000 C 
ENDROOT
BRANCH   1   2
ATOM      2  N   UNL     1      47.603   7.288  13.440  0.00  0.00    +0.000 N 
ATOM      3  C   UNL     1      48.311   6.706  14.464  0.00  0.00    +0.000 A 
ATOM      4  C   UNL     1      49.495   7.389  14.609  0.00  0.00    +0.000 A 
ATOM      5  C   UNL     1      49.547   8.385  13.598  0.00  0.00    +0.000 A 
ATOM      6  C   UNL     1      50.512   9.347  13.236  0.00  0.00    +0.000 A 
ATOM      7  C   UNL     1      50.270  10.189  12.146  0.00  0.00    +0.000 A 
ATOM      8  C   UNL     1      49.081  10.081  11.438  0.00  0.00    +0.000 A 
ATOM      9  F   UNL     1      48.871  10.893  10.393  0.00  0.00    +0.000 F 
ATOM     10  C   UNL     1      48.101   9.149  11.778  0.00  0.00    +0.000 A 
ATOM     11  C   UNL     1      48.353   8.298  12.867  0.00  0.00    +0.000 A 
ENDBRANCH   1   2
BRANCH   1  15
ATOM     12  C   UNL     1      43.434   4.551  11.815  0.00  0.00    +0.000 C 
ATOM     13  C   UNL     1      44.178   4.437  13.156  0.00  0.00    +0.000 C 
ATOM     14  C   UNL     1      45.692   4.360  12.969  0.00  0.00    +0.000 C 
ATOM     15  C   UNL     1      46.254   5.562  12.191  0.00  0.00    +0.000 C 
ATOM     16  C   UNL     1      45.487   5.758  10.869  0.00  0.00    +0.000 C 
ATOM     17  C   UNL     1      43.965   5.766  11.034  0.00  0.00    +0.000 C 
BRANCH  12  18
ATOM     18  C   UNL     1      43.515   3.262  10.968  0.00  0.00    +0.000 C 
BRANCH  18  19
ATOM     19  N   UNL     1      43.058   2.096  11.715  0.00  0.00    +0.000 NA
ATOM     20  H   UNL     1      42.469   2.395  12.491  0.00  0.00    +0.000 HD
ATOM     21  H   UNL     1      43.855   1.612  12.125  0.00  0.00    +0.000 HD
ENDBRANCH  18  19
ENDBRANCH  12  18
ENDBRANCH   1  15
TORSDOF 4
ENDMDL
MODEL 8
REMARK VINA RESULT:    -5.041      2.800      6.144
REMARK INTER + INTRA:          -6.773
REMARK INTER:                  -6.156
REMARK INTRA:                  -0.616
REMARK UNBOUND:                -0.700
REMARK  Name = 
REMARK  4 active torsions:
REMARK  status: ('A' for Active; 'I' for Inactive)
REMARK    1  A    between atoms: N_1  and  C_2
REMARK    2  A    between atoms: C_2  and  C_3
REMARK    3  A    between atoms: C_6  and  C_7
REMARK    4  A    between atoms: C_7  and  N_8
REMARK                            x       y       z     vdW  Elec       q    Type
REMARK                         _______ _______ _______ _____ _____    ______ ____
ROOT
ATOM      1  C   UNL     1      44.635   6.416  12.512  0.00  0.00    +0.000 C 
ENDROOT
BRANCH   1   2
ATOM      2  N   UNL     1      45.345   7.688  12.457  0.00  0.00    +0.000 N 
ATOM      3  C   UNL     1      46.532   7.934  13.104  0.00  0.00    +0.000 A 
ATOM      4  C   UNL     1      46.883   9.243  12.875  0.00  0.00    +0.000 A 
ATOM      5  C   UNL     1      45.912   9.805  12.005  0.00  0.00    +0.000 A 
ATOM      6  C   UNL     1      45.765  11.075  11.408  0.00  0.00    +0.000 A 
ATOM      7  C   UNL     1      44.682  11.315  10.557  0.00  0.00    +0.000 A 
ATOM      8  C   UNL     1      43.755  10.311  10.316  0.00  0.00    +0.000 A 
ATOM      9  F   UNL     1      42.728  10.560   9.492  0.00  0.00    +0.000 F 
ATOM     10  C   UNL     1      43.863   9.050  10.900  0.00  0.00    +0.000 A 
ATOM     11  C   UNL     1      44.959   8.809  11.746  0.00  0.00    +0.000 A 
ENDBRANCH   1   2
BRANCH   1  15
ATOM     12  C   UNL     1      44.258   3.808   9.698  0.00  0.00    +0.000 C 
ATOM     13  C   UNL     1      43.664   3.699  11.113  0.00  0.00    +0.000 C 
ATOM     14  C   UNL     1      44.726   3.867  12.198  0.00  0.00    +0.000 C 
ATOM     15  C   UNL     1      45.486   5.199  12.081  0.00  0.00    +0.000 C 
ATOM     16  C   UNL     1      46.039   5.384  10.655  0.00  0.00    +0.000 C 
ATOM     17  C   UNL     1      45.001   5.148   9.554  0.00  0.00    +0.000 C 
BRANCH  12  18
ATOM     18  C   UNL     1      45.175   2.619   9.336  0.00  0.00    +0.000 C 
BRANCH  18  19
ATOM     19  N   UNL     1      44.417   1.383   9.177  0.00  0.00    +0.000 NA
ATOM     20  H   UNL     1      44.799   0.844   8.400  0.00  0.00    +0.000 HD
ATOM     21  H   UNL     1      43.452   1.596   8.934  0.00  0.00    +0.000 HD
ENDBRANCH  18  19
ENDBRANCH  12  18
ENDBRANCH   1  15
TORSDOF 4
ENDMDL
MODEL 9
REMARK VINA RESULT:    -4.557      4.088      5.717
REMARK INTER + INTRA:          -6.190
REMARK INTER:                  -5.554
REMARK INTRA:                  -0.636
REMARK UNBOUND:                -0.700
REMARK  Name = 
REMARK  4 active torsions:
REMARK  status: ('A' for Active; 'I' for Inactive)
REMARK    1  A    between atoms: N_1  and  C_2
REMARK    2  A    between atoms: C_2  and  C_3
REMARK    3  A    between atoms: C_6  and  C_7
REMARK    4  A    between atoms: C_7  and  N_8
REMARK                            x       y       z     vdW  Elec       q    Type
REMARK                         _______ _______ _______ _____ _____    ______ ____
ROOT
ATOM      1  C   UNL     1      47.462   3.875  14.897  0.00  0.00    +0.000 C 
ENDROOT
BRANCH   1   2
ATOM      2  N   UNL     1      46.814   4.841  14.016  0.00  0.00    +0.000 N 
ATOM      3  C   UNL     1      45.471   4.836  13.727  0.00  0.00    +0.000 A 
ATOM      4  C   UNL     1      45.221   5.848  12.830  0.00  0.00    +0.000 A 
ATOM      5  C   UNL     1      46.441   6.540  12.608  0.00  0.00    +0.000 A 
ATOM      6  C   UNL     1      46.788   7.663  11.831  0.00  0.00    +0.000 A 
ATOM      7  C   UNL     1      48.107   8.129  11.843  0.00  0.00    +0.000 A 
ATOM      8  C   UNL     1      49.064   7.477  12.608  0.00  0.00    +0.000 A 
ATOM      9  F   UNL     1      50.321   7.942  12.610  0.00  0.00    +0.000 F 
ATOM     10  C   UNL     1      48.756   6.356  13.378  0.00  0.00    +0.000 A 
ATOM     11  C   UNL     1      47.428   5.898  13.370  0.00  0.00    +0.000 A 
ENDBRANCH   1   2
BRANCH   1  15
ATOM     12  C   UNL     1      49.871   4.092  17.898  0.00  0.00    +0.000 C 
ATOM     13  C   UNL     1      49.187   2.815  17.383  0.00  0.00    +0.000 C 
ATOM     14  C   UNL     1      47.670   2.971  17.293  0.00  0.00    +0.000 C 
ATOM     15  C   UNL     1      47.248   4.153  16.403  0.00  0.00    +0.000 C 
ATOM     16  C   UNL     1      47.968   5.444  16.839  0.00  0.00    +0.000 C 
ATOM     17  C   UNL     1      49.482   5.281  17.002  0.00  0.00    +0.000 C 
BRANCH  12  18
ATOM     18  C   UNL     1      49.562   4.386  19.383  0.00  0.00    +0.000 C 
BRANCH  18  19
ATOM     19  N   UNL     1      50.167   5.639  19.821  0.00  0.00    +0.000 NA
ATOM     20  H   UNL     1      49.816   5.884  20.746  0.00  0.00    +0.000 HD
ATOM     21  H   UNL     1      49.891   6.394  19.197  0.00  0.00    +0.000 HD
ENDBRANCH  18  19
ENDBRANCH  12  18
ENDBRANCH   1  15
TORSDOF 4
ENDMDL
