MODEL 1
REMARK VINA RESULT:    -8.639      0.000      0.000
REMARK INTER + INTRA:         -11.884
REMARK INTER:                 -11.165
REMARK INTRA:                  -0.719
REMARK UNBOUND:                -0.719
REMARK  Name = 
REMARK  5 active torsions:
REMARK  status: ('A' for Active; 'I' for Inactive)
REMARK    1  A    between atoms: C_2  and  C_4
REMARK    2  A    between atoms: C_7  and  N_8
REMARK    3  A    between atoms: N_8  and  C_9
REMARK    4  A    between atoms: C_9  and  C_10
REMARK    5  A    between atoms: C_14  and  C_15
REMARK                            x       y       z     vdW  Elec       q    Type
REMARK                         _______ _______ _______ _____ _____    ______ ____
ROOT
ATOM      1  C   UNL     1      43.587   4.609  11.348  0.00  0.00    +0.000 C 
ENDROOT
BRANCH   1   2
ATOM      2  C   UNL     1      44.856   4.817  12.129  0.00  0.00    +0.000 A 
ATOM      3  C   UNL     1      45.498   3.721  12.712  0.00  0.00    +0.000 A 
ATOM      4  C   UNL     1      46.652   3.902  13.460  0.00  0.00    +0.000 A 
ATOM      5  C   UNL     1      47.188   5.179  13.618  0.00  0.00    +0.000 A 
ATOM      6  C   UNL     1      46.601   6.297  13.010  0.00  0.00    +0.000 A 
ATOM      7  C   UNL     1      45.399   6.100  12.305  0.00  0.00    +0.000 A 
BRANCH   6   8
ATOM      8  C   UNL     1      47.221   7.693  13.057  0.00  0.00    +0.000 C 
ATOM      9  C   UNL     1      48.107   7.958  11.821  0.00  0.00    +0.000 C 
ATOM     10  C   UNL     1      49.467   7.266  11.918  0.00  0.00    +0.000 C 
ATOM     11  N   UNL     1      50.193   7.631  13.135  0.00  0.00    +0.000 NA
ATOM     12  C   UNL     1      49.418   7.380  14.345  0.00  0.00    +0.000 C 
ATOM     13  C   UNL     1      48.034   8.038  14.320  0.00  0.00    +0.000 C 
ATOM     14  H   UNL     1      50.441   8.623  13.094  0.00  0.00    +0.000 HD
ENDBRANCH   6   8
ENDBRANCH   1   2
BRANCH   1  15
ATOM     15  N   UNL     1      43.799   4.873   9.930  0.00  0.00    +0.000 N 
ATOM     16  H   UNL     1      42.943   5.099   9.426  0.00  0.00    +0.000 HD
BRANCH  15  20
ATOM     17  C   UNL     1      46.399   2.350   7.771  0.00  0.00    +0.000 A 
ATOM     18  C   UNL     1      45.464   1.792   8.643  0.00  0.00    +0.000 A 
ATOM     19  C   UNL     1      44.602   2.619   9.360  0.00  0.00    +0.000 A 
ATOM     20  C   UNL     1      44.625   4.013   9.205  0.00  0.00    +0.000 A 
ATOM     21  C   UNL     1      45.595   4.558   8.351  0.00  0.00    +0.000 A 
ATOM     22  C   UNL     1      46.481   3.738   7.642  0.00  0.00    +0.000 A 
BRANCH  17  24
ATOM     23  N   UNL     1      48.447   2.091   6.490  0.00  0.00    +0.000 N 
ATOM     24  C   UNL     1      47.332   1.490   7.003  0.00  0.00    +0.000 C 
ATOM     25  O   UNL     1      47.148   0.288   6.864  0.00  0.00    +0.000 OA
ATOM     26  H   UNL     1      49.127   1.478   6.062  0.00  0.00    +0.000 HD
ATOM     27  H   UNL     1      48.768   2.996   6.807  0.00  0.00    +0.000 HD
ENDBRANCH  17  24
ENDBRANCH  15  20
ENDBRANCH   1  15
TORSDOF 5
ENDMDL
MODEL 2
REMARK VINA RESULT:    -7.995      1.133      2.049
REMARK INTER + INTRA:         -11.051
REMARK INTER:                 -10.497
REMARK INTRA:                  -0.554
REMARK UNBOUND:                -0.719
REMARK  Name = 
REMARK  5 active torsions:
REMARK  status: ('A' for Active; 'I' for Inactive)
REMARK    1  A    between atoms: C_2  and  C_4
REMARK    2  A    between atoms: C_7  and  N_8
REMARK    3  A    between atoms: N_8  and  C_9
REMARK    4  A    between atoms: C_9  and  C_10
REMARK    5  A    between atoms: C_14  and  C_15
REMARK                            x       y       z     vdW  Elec       q    Type
REMARK                         _______ _______ _______ _____ _____    ______ ____
ROOT
ATOM      1  C   UNL     1      43.952   5.036  11.353  0.00  0.00    +0.000 C 
ENDROOT
BRANCH   1   2
ATOM      2  C   UNL     1      44.891   6.175  11.642  0.00  0.00    +0.000 A 
ATOM      3  C   UNL     1      44.437   7.492  11.533  0.00  0.00    +0.000 A 
ATOM      4  C   UNL     1      45.300   8.552  11.767  0.00  0.00    +0.000 A 
ATOM      5  C   UNL     1      46.623   8.307  12.133  0.00  0.00    +0.000 A 
ATOM      6  C   UNL     1      47.103   7.002  12.300  0.00  0.00    +0.000 A 
ATOM      7  C   UNL     1      46.228   5.941  12.000  0.00  0.00    +0.000 A 
BRANCH   6   8
ATOM      8  C   UNL     1      48.508   6.690  12.816  0.00  0.00    +0.000 C 
ATOM      9  C   UNL     1      48.550   6.664  14.358  0.00  0.00    +0.000 C 
ATOM     10  C   UNL     1      48.553   8.066  14.967  0.00  0.00    +0.000 C 
ATOM     11  N   UNL     1      49.648   8.893  14.457  0.00  0.00    +0.000 NA
ATOM     12  C   UNL     1      49.650   8.980  13.001  0.00  0.00    +0.000 C 
ATOM     13  C   UNL     1      49.639   7.610  12.315  0.00  0.00    +0.000 C 
ATOM     14  H   UNL     1      50.539   8.502  14.772  0.00  0.00    +0.000 HD
ENDBRANCH   6   8
ENDBRANCH   1   2
BRANCH   1  15
ATOM     15  N   UNL     1      43.754   4.875   9.918  0.00  0.00    +0.000 N 
ATOM     16  H   UNL     1      42.776   4.775   9.650  0.00  0.00    +0.000 HD
BRANCH  15  20
ATOM     17  C   UNL     1      46.361   2.286   7.848  0.00  0.00    +0.000 A 
ATOM     18  C   UNL     1      45.422   1.755   8.732  0.00  0.00    +0.000 A 
ATOM     19  C   UNL     1      44.558   2.604   9.420  0.00  0.00    +0.000 A 
ATOM     20  C   UNL     1      44.583   3.992   9.223  0.00  0.00    +0.000 A 
ATOM     21  C   UNL     1      45.556   4.511   8.356  0.00  0.00    +0.000 A 
ATOM     22  C   UNL     1      46.444   3.669   7.677  0.00  0.00    +0.000 A 
BRANCH  17  24
ATOM     23  N   UNL     1      48.394   1.994   6.549  0.00  0.00    +0.000 N 
ATOM     24  C   UNL     1      47.297   1.402   7.109  0.00  0.00    +0.000 C 
ATOM     25  O   UNL     1      47.130   0.191   7.035  0.00  0.00    +0.000 OA
ATOM     26  H   UNL     1      49.077   1.370   6.142  0.00  0.00    +0.000 HD
ATOM     27  H   UNL     1      48.704   2.919   6.815  0.00  0.00    +0.000 HD
ENDBRANCH  17  24
ENDBRANCH  15  20
ENDBRANCH   1  15
TORSDOF 5
ENDMDL
MODEL 3
REMARK VINA RESULT:    -6.948      4.496      7.865
REMARK INTER + INTRA:          -9.699
REMARK INTER:                  -9.344
REMARK INTRA:                  -0.355
REMARK UNBOUND:                -0.719
REMARK  Name = 
REMARK  5 active torsions:
REMARK  status: ('A' for Active; 'I' for Inactive)
REMARK    1  A    between atoms: C_2  and  C_4
REMARK    2  A    between atoms: C_7  and  N_8
REMARK    3  A    between atoms: N_8  and  C_9
REMARK    4  A    between atoms: C_9  and  C_10
REMARK    5  A    between atoms: C_14  and  C_15
REMARK                            x       y       z     vdW  Elec       q    Type
REMARK                         _______ _______ _______ _____ _____    ______ ____
ROOT
ATOM      1  C   UNL     1      46.607   4.328  15.377  0.00  0.00    +0.000 C 
ENDROOT
BRANCH   1   2
ATOM      2  C   UNL     1      46.536   5.022  14.044  0.00  0.00    +0.000 A 
ATOM      3  C   UNL     1      47.579   5.863  13.644  0.00  0.00    +0.000 A 
ATOM      4  C   UNL     1      47.514   6.532  12.432  0.00  0.00    +0.000 A 
ATOM      5  C   UNL     1      46.413   6.353  11.595  0.00  0.00    +0.000 A 
ATOM      6  C   UNL     1      45.370   5.482  11.937  0.00  0.00    +0.000 A 
ATOM      7  C   UNL     1      45.428   4.859  13.198  0.00  0.00    +0.000 A 
BRANCH   6   8
ATOM      8  C   UNL     1      44.206   5.165  10.999  0.00  0.00    +0.000 C 
ATOM      9  C   UNL     1      43.087   4.393  11.729  0.00  0.00    +0.000 C 
ATOM     10  C   UNL     1      43.430   2.917  11.929  0.00  0.00    +0.000 C 
ATOM     11  N   UNL     1      43.754   2.244  10.671  0.00  0.00    +0.000 NA
ATOM     12  C   UNL     1      44.826   2.911   9.941  0.00  0.00    +0.000 C 
ATOM     13  C   UNL     1      44.559   4.402   9.707  0.00  0.00    +0.000 C 
ATOM     14  H   UNL     1      42.917   2.209  10.083  0.00  0.00    +0.000 HD
ENDBRANCH   6   8
ENDBRANCH   1   2
BRANCH   1  15
ATOM     15  N   UNL     1      47.641   4.919  16.218  0.00  0.00    +0.000 N 
ATOM     16  H   UNL     1      47.961   5.829  15.891  0.00  0.00    +0.000 HD
BRANCH  15  20
ATOM     17  C   UNL     1      50.836   2.429  17.392  0.00  0.00    +0.000 A 
ATOM     18  C   UNL     1      50.873   3.788  17.701  0.00  0.00    +0.000 A 
ATOM     19  C   UNL     1      49.822   4.617  17.316  0.00  0.00    +0.000 A 
ATOM     20  C   UNL     1      48.697   4.113  16.646  0.00  0.00    +0.000 A 
ATOM     21  C   UNL     1      48.693   2.750  16.314  0.00  0.00    +0.000 A 
ATOM     22  C   UNL     1      49.754   1.912  16.676  0.00  0.00    +0.000 A 
BRANCH  17  24
ATOM     23  N   UNL     1      51.611   0.255  18.152  0.00  0.00    +0.000 N 
ATOM     24  C   UNL     1      51.947   1.528  17.785  0.00  0.00    +0.000 C 
ATOM     25  O   UNL     1      53.119   1.880  17.744  0.00  0.00    +0.000 OA
ATOM     26  H   UNL     1      52.381  -0.380  18.314  0.00  0.00    +0.000 HD
ATOM     27  H   UNL     1      50.708  -0.148  17.940  0.00  0.00    +0.000 HD
ENDBRANCH  17  24
ENDBRANCH  15  20
ENDBRANCH   1  15
TORSDOF 5
ENDMDL
MODEL 4
REMARK VINA RESULT:    -6.669      3.625      7.328
REMARK INTER + INTRA:          -9.338
REMARK INTER:                  -8.911
REMARK INTRA:                  -0.427
REMARK UNBOUND:                -0.719
REMARK  Name = 
REMARK  5 active torsions:
REMARK  status: ('A' for Active; 'I' for Inactive)
REMARK    1  A    between atoms: C_2  and  C_4
REMARK    2  A    between atoms: C_7  and  N_8
REMARK    3  A    between atoms: N_8  and  C_9
REMARK    4  A    between atoms: C_9  and  C_10
REMARK    5  A    between atoms: C_14  and  C_15
REMARK                            x       y       z     vdW  Elec       q    Type
REMARK                         _______ _______ _______ _____ _____    ______ ____
ROOT
ATOM      1  C   UNL     1      48.607   7.056  12.565  0.00  0.00    +0.000 C 
ENDROOT
BRANCH   1   2
ATOM      2  C   UNL     1      47.185   7.332  12.157  0.00  0.00    +0.000 A 
ATOM      3  C   UNL     1      46.706   8.645  12.162  0.00  0.00    +0.000 A 
ATOM      4  C   UNL     1      45.390   8.911  11.817  0.00  0.00    +0.000 A 
ATOM      5  C   UNL     1      44.542   7.869  11.444  0.00  0.00    +0.000 A 
ATOM      6  C   UNL     1      44.997   6.546  11.381  0.00  0.00    +0.000 A 
ATOM      7  C   UNL     1      46.319   6.290  11.791  0.00  0.00    +0.000 A 
BRANCH   6   8
ATOM      8  C   UNL     1      44.138   5.392  10.863  0.00  0.00    +0.000 C 
ATOM      9  C   UNL     1      42.830   5.256  11.673  0.00  0.00    +0.000 C 
ATOM     10  C   UNL     1      43.051   4.586  13.029  0.00  0.00    +0.000 C 
ATOM     11  N   UNL     1      43.695   3.279  12.909  0.00  0.00    +0.000 NA
ATOM     12  C   UNL     1      44.954   3.342  12.174  0.00  0.00    +0.000 C 
ATOM     13  C   UNL     1      44.817   4.009  10.801  0.00  0.00    +0.000 C 
ATOM     14  H   UNL     1      43.060   2.633  12.433  0.00  0.00    +0.000 HD
ENDBRANCH   6   8
ENDBRANCH   1   2
BRANCH   1  15
ATOM     15  N   UNL     1      48.799   7.308  13.988  0.00  0.00    +0.000 N 
ATOM     16  H   UNL     1      49.682   7.767  14.205  0.00  0.00    +0.000 HD
BRANCH  15  20
ATOM     17  C   UNL     1      47.885   4.321  16.822  0.00  0.00    +0.000 A 
ATOM     18  C   UNL     1      47.233   4.323  15.589  0.00  0.00    +0.000 A 
ATOM     19  C   UNL     1      47.529   5.307  14.648  0.00  0.00    +0.000 A 
ATOM     20  C   UNL     1      48.500   6.289  14.894  0.00  0.00    +0.000 A 
ATOM     21  C   UNL     1      49.120   6.292  16.152  0.00  0.00    +0.000 A 
ATOM     22  C   UNL     1      48.814   5.321  17.114  0.00  0.00    +0.000 A 
BRANCH  17  24
ATOM     23  N   UNL     1      48.382   3.258  18.950  0.00  0.00    +0.000 N 
ATOM     24  C   UNL     1      47.581   3.288  17.843  0.00  0.00    +0.000 C 
ATOM     25  O   UNL     1      46.634   2.520  17.733  0.00  0.00    +0.000 OA
ATOM     26  H   UNL     1      48.101   2.624  19.685  0.00  0.00    +0.000 HD
ATOM     27  H   UNL     1      48.985   4.030  19.202  0.00  0.00    +0.000 HD
ENDBRANCH  17  24
ENDBRANCH  15  20
ENDBRANCH   1  15
TORSDOF 5
ENDMDL
MODEL 5
REMARK VINA RESULT:    -6.550      4.061      6.290
REMARK INTER + INTRA:          -9.184
REMARK INTER:                  -8.042
REMARK INTRA:                  -1.143
REMARK UNBOUND:                -0.719
REMARK  Name = 
REMARK  5 active torsions:
REMARK  status: ('A' for Active; 'I' for Inactive)
REMARK    1  A    between atoms: C_2  and  C_4
REMARK    2  A    between atoms: C_7  and  N_8
REMARK    3  A    between atoms: N_8  and  C_9
REMARK    4  A    between atoms: C_9  and  C_10
REMARK    5  A    between atoms: C_14  and  C_15
REMARK                            x       y       z     vdW  Elec       q    Type
REMARK                         _______ _______ _______ _____ _____    ______ ____
ROOT
ATOM      1  C   UNL     1      49.189   7.903  13.148  0.00  0.00    +0.000 C 
ENDROOT
BRANCH   1   2
ATOM      2  C   UNL     1      48.942   8.050  14.625  0.00  0.00    +0.000 A 
ATOM      3  C   UNL     1      48.421   9.247  15.124  0.00  0.00    +0.000 A 
ATOM      4  C   UNL     1      48.216   9.407  16.486  0.00  0.00    +0.000 A 
ATOM      5  C   UNL     1      48.511   8.364  17.363  0.00  0.00    +0.000 A 
ATOM      6  C   UNL     1      48.989   7.133  16.898  0.00  0.00    +0.000 A 
ATOM      7  C   UNL     1      49.245   7.011  15.519  0.00  0.00    +0.000 A 
BRANCH   6   8
ATOM      8  C   UNL     1      49.210   5.925  17.809  0.00  0.00    +0.000 C 
ATOM      9  C   UNL     1      48.927   4.601  17.069  0.00  0.00    +0.000 C 
ATOM     10  C   UNL     1      47.432   4.318  16.928  0.00  0.00    +0.000 C 
ATOM     11  N   UNL     1      46.739   4.322  18.217  0.00  0.00    +0.000 NA
ATOM     12  C   UNL     1      46.945   5.561  18.958  0.00  0.00    +0.000 C 
ATOM     13  C   UNL     1      48.425   5.918  19.135  0.00  0.00    +0.000 C 
ATOM     14  H   UNL     1      47.071   3.534  18.779  0.00  0.00    +0.000 HD
ENDBRANCH   6   8
ENDBRANCH   1   2
BRANCH   1  15
ATOM     15  N   UNL     1      48.735   6.603  12.670  0.00  0.00    +0.000 N 
ATOM     16  H   UNL     1      49.224   6.281  11.837  0.00  0.00    +0.000 HD
BRANCH  15  20
ATOM     17  C   UNL     1      44.586   5.843  12.594  0.00  0.00    +0.000 A 
ATOM     18  C   UNL     1      45.099   6.939  11.899  0.00  0.00    +0.000 A 
ATOM     19  C   UNL     1      46.468   7.196  11.920  0.00  0.00    +0.000 A 
ATOM     20  C   UNL     1      47.362   6.358  12.602  0.00  0.00    +0.000 A 
ATOM     21  C   UNL     1      46.825   5.281  13.323  0.00  0.00    +0.000 A 
ATOM     22  C   UNL     1      45.449   5.026  13.327  0.00  0.00    +0.000 A 
BRANCH  17  24
ATOM     23  N   UNL     1      42.363   6.247  11.700  0.00  0.00    +0.000 N 
ATOM     24  C   UNL     1      43.131   5.553  12.593  0.00  0.00    +0.000 C 
ATOM     25  O   UNL     1      42.634   4.703  13.320  0.00  0.00    +0.000 OA
ATOM     26  H   UNL     1      41.395   5.966  11.634  0.00  0.00    +0.000 HD
ATOM     27  H   UNL     1      42.762   6.743  10.914  0.00  0.00    +0.000 HD
ENDBRANCH  17  24
ENDBRANCH  15  20
ENDBRANCH   1  15
TORSDOF 5
ENDMDL
MODEL 6
REMARK VINA RESULT:    -6.501      3.095      5.400
REMARK INTER + INTRA:          -9.120
REMARK INTER:                  -8.356
REMARK INTRA:                  -0.763
REMARK UNBOUND:                -0.719
REMARK  Name = 
REMARK  5 active torsions:
REMARK  status: ('A' for Active; 'I' for Inactive)
REMARK    1  A    between atoms: C_2  and  C_4
REMARK    2  A    between atoms: C_7  and  N_8
REMARK    3  A    between atoms: N_8  and  C_9
REMARK    4  A    between atoms: C_9  and  C_10
REMARK    5  A    between atoms: C_14  and  C_15
REMARK                            x       y       z     vdW  Elec       q    Type
REMARK                         _______ _______ _______ _____ _____    ______ ____
ROOT
ATOM      1  C   UNL     1      48.179   7.675  13.410  0.00  0.00    +0.000 C 
ENDROOT
BRANCH   1   2
ATOM      2  C   UNL     1      49.099   7.279  14.534  0.00  0.00    +0.000 A 
ATOM      3  C   UNL     1      50.429   7.707  14.523  0.00  0.00    +0.000 A 
ATOM      4  C   UNL     1      51.296   7.325  15.536  0.00  0.00    +0.000 A 
ATOM      5  C   UNL     1      50.837   6.527  16.583  0.00  0.00    +0.000 A 
ATOM      6  C   UNL     1      49.499   6.118  16.655  0.00  0.00    +0.000 A 
ATOM      7  C   UNL     1      48.651   6.466  15.587  0.00  0.00    +0.000 A 
BRANCH   6   8
ATOM      8  C   UNL     1      48.926   5.345  17.844  0.00  0.00    +0.000 C 
ATOM      9  C   UNL     1      49.877   4.215  18.292  0.00  0.00    +0.000 C 
ATOM     10  C   UNL     1      49.813   2.997  17.370  0.00  0.00    +0.000 C 
ATOM     11  N   UNL     1      48.453   2.474  17.230  0.00  0.00    +0.000 NA
ATOM     12  C   UNL     1      47.507   3.489  16.783  0.00  0.00    +0.000 C 
ATOM     13  C   UNL     1      47.517   4.749  17.656  0.00  0.00    +0.000 C 
ATOM     14  H   UNL     1      48.143   2.098  18.130  0.00  0.00    +0.000 HD
ENDBRANCH   6   8
ENDBRANCH   1   2
BRANCH   1  15
ATOM     15  N   UNL     1      46.799   7.318  13.716  0.00  0.00    +0.000 N 
ATOM     16  H   UNL     1      46.652   7.060  14.690  0.00  0.00    +0.000 HD
BRANCH  15  20
ATOM     17  C   UNL     1      44.844   4.753  10.998  0.00  0.00    +0.000 A 
ATOM     18  C   UNL     1      44.653   4.579  12.368  0.00  0.00    +0.000 A 
ATOM     19  C   UNL     1      45.296   5.422  13.272  0.00  0.00    +0.000 A 
ATOM     20  C   UNL     1      46.115   6.475  12.839  0.00  0.00    +0.000 A 
ATOM     21  C   UNL     1      46.323   6.614  11.459  0.00  0.00    +0.000 A 
ATOM     22  C   UNL     1      45.700   5.758  10.542  0.00  0.00    +0.000 A 
BRANCH  17  24
ATOM     23  N   UNL     1      44.077   4.323   8.733  0.00  0.00    +0.000 N 
ATOM     24  C   UNL     1      44.177   3.864  10.016  0.00  0.00    +0.000 C 
ATOM     25  O   UNL     1      43.769   2.749  10.317  0.00  0.00    +0.000 OA
ATOM     26  H   UNL     1      43.718   3.668   8.052  0.00  0.00    +0.000 HD
ATOM     27  H   UNL     1      44.631   5.097   8.391  0.00  0.00    +0.000 HD
ENDBRANCH  17  24
ENDBRANCH  15  20
ENDBRANCH   1  15
TORSDOF 5
ENDMDL
MODEL 7
REMARK VINA RESULT:    -6.310      3.708      5.853
REMARK INTER + INTRA:          -8.874
REMARK INTER:                  -8.236
REMARK INTRA:                  -0.638
REMARK UNBOUND:                -0.719
REMARK  Name = 
REMARK  5 active torsions:
REMARK  status: ('A' for Active; 'I' for Inactive)
REMARK    1  A    between atoms: C_2  and  C_4
REMARK    2  A    between atoms: C_7  and  N_8
REMARK    3  A    between atoms: N_8  and  C_9
REMARK    4  A    between atoms: C_9  and  C_10
REMARK    5  A    between atoms: C_14  and  C_15
REMARK                            x       y       z     vdW  Elec       q    Type
REMARK                         _______ _______ _______ _____ _____    ______ ____
ROOT
ATOM      1  C   UNL     1      48.458   6.958  13.984  0.00  0.00    +0.000 C 
ENDROOT
BRANCH   1   2
ATOM      2  C   UNL     1      48.854   7.074  15.432  0.00  0.00    +0.000 A 
ATOM      3  C   UNL     1      48.601   8.260  16.126  0.00  0.00    +0.000 A 
ATOM      4  C   UNL     1      48.986   8.392  17.451  0.00  0.00    +0.000 A 
ATOM      5  C   UNL     1      49.613   7.331  18.104  0.00  0.00    +0.000 A 
ATOM      6  C   UNL     1      49.841   6.109  17.457  0.00  0.00    +0.000 A 
ATOM      7  C   UNL     1      49.495   6.017  16.096  0.00  0.00    +0.000 A 
BRANCH   6   8
ATOM      8  C   UNL     1      50.413   4.883  18.169  0.00  0.00    +0.000 C 
ATOM      9  C   UNL     1      49.777   3.578  17.644  0.00  0.00    +0.000 C 
ATOM     10  C   UNL     1      48.374   3.346  18.205  0.00  0.00    +0.000 C 
ATOM     11  N   UNL     1      48.350   3.354  19.668  0.00  0.00    +0.000 NA
ATOM     12  C   UNL     1      48.916   4.575  20.230  0.00  0.00    +0.000 C 
ATOM     13  C   UNL     1      50.324   4.882  19.708  0.00  0.00    +0.000 C 
ATOM     14  H   UNL     1      48.875   2.548  20.018  0.00  0.00    +0.000 HD
ENDBRANCH   6   8
ENDBRANCH   1   2
BRANCH   1  15
ATOM     15  N   UNL     1      47.037   7.232  13.809  0.00  0.00    +0.000 N 
ATOM     16  H   UNL     1      46.547   7.415  14.683  0.00  0.00    +0.000 HD
BRANCH  15  20
ATOM     17  C   UNL     1      44.906   4.757  11.140  0.00  0.00    +0.000 A 
ATOM     18  C   UNL     1      44.927   4.446  12.500  0.00  0.00    +0.000 A 
ATOM     19  C   UNL     1      45.629   5.259  13.387  0.00  0.00    +0.000 A 
ATOM     20  C   UNL     1      46.298   6.413  12.954  0.00  0.00    +0.000 A 
ATOM     21  C   UNL     1      46.294   6.691  11.579  0.00  0.00    +0.000 A 
ATOM     22  C   UNL     1      45.611   5.869  10.675  0.00  0.00    +0.000 A 
BRANCH  17  24
ATOM     23  N   UNL     1      44.080   4.359   8.890  0.00  0.00    +0.000 N 
ATOM     24  C   UNL     1      44.171   3.902  10.175  0.00  0.00    +0.000 C 
ATOM     25  O   UNL     1      43.702   2.817  10.490  0.00  0.00    +0.000 OA
ATOM     26  H   UNL     1      43.673   3.722   8.219  0.00  0.00    +0.000 HD
ATOM     27  H   UNL     1      44.674   5.096   8.535  0.00  0.00    +0.000 HD
ENDBRANCH  17  24
ENDBRANCH  15  20
ENDBRANCH   1  15
TORSDOF 5
ENDMDL
MODEL 8
REMARK VINA RESULT:    -6.111      4.157      6.548
REMARK INTER + INTRA:          -8.616
REMARK INTER:                  -8.142
REMARK INTRA:                  -0.474
REMARK UNBOUND:                -0.719
REMARK  Name = 
REMARK  5 active torsions:
REMARK  status: ('A' for Active; 'I' for Inactive)
REMARK    1  A    between atoms: C_2  and  C_4
REMARK    2  A    between atoms: C_7  and  N_8
REMARK    3  A    between atoms: N_8  and  C_9
REMARK    4  A    between atoms: C_9  and  C_10
REMARK    5  A    between atoms: C_14  and  C_15
REMARK                            x       y       z     vdW  Elec       q    Type
REMARK                         _______ _______ _______ _____ _____    ______ ____
ROOT
ATOM      1  C   UNL     1      48.827   7.996  14.836  0.00  0.00    +0.000 C 
ENDROOT
BRANCH   1   2
ATOM      2  C   UNL     1      49.774   7.135  15.628  0.00  0.00    +0.000 A 
ATOM      3  C   UNL     1      51.147   7.390  15.580  0.00  0.00    +0.000 A 
ATOM      4  C   UNL     1      52.034   6.587  16.281  0.00  0.00    +0.000 A 
ATOM      5  C   UNL     1      51.555   5.529  17.054  0.00  0.00    +0.000 A 
ATOM      6  C   UNL     1      50.183   5.271  17.166  0.00  0.00    +0.000 A 
ATOM      7  C   UNL     1      49.305   6.060  16.401  0.00  0.00    +0.000 A 
BRANCH   6   8
ATOM      8  C   UNL     1      49.610   4.201  18.095  0.00  0.00    +0.000 C 
ATOM      9  C   UNL     1      49.242   2.918  17.319  0.00  0.00    +0.000 C 
ATOM     10  C   UNL     1      47.931   3.060  16.545  0.00  0.00    +0.000 C 
ATOM     11  N   UNL     1      46.815   3.454  17.405  0.00  0.00    +0.000 NA
ATOM     12  C   UNL     1      47.089   4.678  18.150  0.00  0.00    +0.000 C 
ATOM     13  C   UNL     1      48.395   4.617  18.949  0.00  0.00    +0.000 C 
ATOM     14  H   UNL     1      46.614   2.697  18.063  0.00  0.00    +0.000 HD
ENDBRANCH   6   8
ENDBRANCH   1   2
BRANCH   1  15
ATOM     15  N   UNL     1      48.509   7.378  13.555  0.00  0.00    +0.000 N 
ATOM     16  H   UNL     1      48.694   7.981  12.755  0.00  0.00    +0.000 HD
BRANCH  15  20
ATOM     17  C   UNL     1      44.839   5.361  13.052  0.00  0.00    +0.000 A 
ATOM     18  C   UNL     1      45.979   4.639  13.403  0.00  0.00    +0.000 A 
ATOM     19  C   UNL     1      47.195   5.298  13.571  0.00  0.00    +0.000 A 
ATOM     20  C   UNL     1      47.301   6.689  13.426  0.00  0.00    +0.000 A 
ATOM     21  C   UNL     1      46.152   7.394  13.039  0.00  0.00    +0.000 A 
ATOM     22  C   UNL     1      44.930   6.739  12.846  0.00  0.00    +0.000 A 
BRANCH  17  24
ATOM     23  N   UNL     1      43.481   3.350  13.170  0.00  0.00    +0.000 N 
ATOM     24  C   UNL     1      43.535   4.680  12.860  0.00  0.00    +0.000 C 
ATOM     25  O   UNL     1      42.534   5.278  12.485  0.00  0.00    +0.000 OA
ATOM     26  H   UNL     1      42.566   2.922  13.138  0.00  0.00    +0.000 HD
ATOM     27  H   UNL     1      44.191   2.896  13.729  0.00  0.00    +0.000 HD
ENDBRANCH  17  24
ENDBRANCH  15  20
ENDBRANCH   1  15
TORSDOF 5
ENDMDL
MODEL 9
REMARK VINA RESULT:    -6.005      4.963      8.201
REMARK INTER + INTRA:          -8.479
REMARK INTER:                  -7.841
REMARK INTRA:                  -0.638
REMARK UNBOUND:                -0.719
REMARK  Name = 
REMARK  5 active torsions:
REMARK  status: ('A' for Active; 'I' for Inactive)
REMARK    1  A    between atoms: C_2  and  C_4
REMARK    2  A    between atoms: C_7  and  N_8
REMARK    3  A    between atoms: N_8  and  C_9
REMARK    4  A    between atoms: C_9  and  C_10
REMARK    5  A    between atoms: C_14  and  C_15
REMARK                            x       y       z     vdW  Elec       q    Type
REMARK                         _______ _______ _______ _____ _____    ______ ____
ROOT
ATOM      1  C   UNL     1      47.528   3.925  16.716  0.00  0.00    +0.000 C 
ENDROOT
BRANCH   1   2
ATOM      2  C   UNL     1      47.449   4.751  15.461  0.00  0.00    +0.000 A 
ATOM      3  C   UNL     1      48.252   5.888  15.329  0.00  0.00    +0.000 A 
ATOM      4  C   UNL     1      48.168   6.675  14.190  0.00  0.00    +0.000 A 
ATOM      5  C   UNL     1      47.295   6.325  13.162  0.00  0.00    +0.000 A 
ATOM      6  C   UNL     1      46.508   5.167  13.236  0.00  0.00    +0.000 A 
ATOM      7  C   UNL     1      46.565   4.415  14.424  0.00  0.00    +0.000 A 
BRANCH   6   8
ATOM      8  C   UNL     1      45.629   4.682  12.084  0.00  0.00    +0.000 C 
ATOM      9  C   UNL     1      45.378   5.805  11.054  0.00  0.00    +0.000 C 
ATOM     10  C   UNL     1      44.331   6.811  11.532  0.00  0.00    +0.000 C 
ATOM     11  N   UNL     1      43.063   6.173  11.886  0.00  0.00    +0.000 NA
ATOM     12  C   UNL     1      43.228   5.116  12.878  0.00  0.00    +0.000 C 
ATOM     13  C   UNL     1      44.270   4.067  12.474  0.00  0.00    +0.000 C 
ATOM     14  H   UNL     1      42.637   5.780  11.043  0.00  0.00    +0.000 HD
ENDBRANCH   6   8
ENDBRANCH   1   2
BRANCH   1  15
ATOM     15  N   UNL     1      48.628   4.368  17.563  0.00  0.00    +0.000 N 
ATOM     16  H   UNL     1      48.810   5.368  17.506  0.00  0.00    +0.000 HD
BRANCH  15  20
ATOM     17  C   UNL     1      52.215   2.154  17.720  0.00  0.00    +0.000 A 
ATOM     18  C   UNL     1      51.040   1.532  17.297  0.00  0.00    +0.000 A 
ATOM     19  C   UNL     1      49.851   2.257  17.243  0.00  0.00    +0.000 A 
ATOM     20  C   UNL     1      49.806   3.619  17.575  0.00  0.00    +0.000 A 
ATOM     21  C   UNL     1      50.990   4.218  18.031  0.00  0.00    +0.000 A 
ATOM     22  C   UNL     1      52.185   3.494  18.110  0.00  0.00    +0.000 A 
BRANCH  17  24
ATOM     23  N   UNL     1      54.579   2.073  18.276  0.00  0.00    +0.000 N 
ATOM     24  C   UNL     1      53.491   1.401  17.793  0.00  0.00    +0.000 C 
ATOM     25  O   UNL     1      53.571   0.220  17.480  0.00  0.00    +0.000 OA
ATOM     26  H   UNL     1      55.414   1.522  18.421  0.00  0.00    +0.000 HD
ATOM     27  H   UNL     1      54.494   2.940  18.789  0.00  0.00    +0.000 HD
ENDBRANCH  17  24
ENDBRANCH  15  20
ENDBRANCH   1  15
TORSDOF 5
ENDMDL
