MODEL 1
REMARK VINA RESULT:    -6.937      0.000      0.000
REMARK INTER + INTRA:          -9.801
REMARK INTER:                  -9.370
REMARK INTRA:                  -0.430
REMARK UNBOUND:                -0.430
REMARK  Name = 
REMARK  9 active torsions:
REMARK  status: ('A' for Active; 'I' for Inactive)
REMARK    1  A    between atoms: C_1  and  O_2
REMARK    2  A    between atoms: O_2  and  C_3
REMARK    3  A    between atoms: C_6  and  C_7
REMARK    4  A    between atoms: N_14  and  C_15
REMARK    5  A    between atoms: C_15  and  C_16
REMARK    6  A    between atoms: C_20  and  C_21
REMARK    7  A    between atoms: C_21  and  N_22
REMARK    8  A    between atoms: N_22  and  C_23
REMARK    9  A    between atoms: N_22  and  C_24
REMARK                            x       y       z     vdW  Elec       q    Type
REMARK                         _______ _______ _______ _____ _____    ______ ____
ROOT
ATOM      1  C   UNL     1      48.457   6.106  14.525  0.00  0.00    +0.000 A 
ATOM      2  N   UNL     1      47.897   5.164  15.328  0.00  0.00    +0.000 NA
ATOM      3  C   UNL     1      46.791   4.533  14.900  0.00  0.00    +0.000 A 
ATOM      4  C   UNL     1      46.155   4.759  13.683  0.00  0.00    +0.000 A 
ATOM      5  C   UNL     1      46.635   5.837  12.923  0.00  0.00    +0.000 A 
ATOM      6  C   UNL     1      47.816   6.491  13.326  0.00  0.00    +0.000 A 
ATOM      7  N   UNL     1      48.188   7.437  12.399  0.00  0.00    +0.000 NA
ATOM      8  C   UNL     1      47.260   7.407  11.475  0.00  0.00    +0.000 A 
ATOM      9  N   UNL     1      46.273   6.494  11.762  0.00  0.00    +0.000 N 
ENDROOT
BRANCH   4  10
ATOM     10  C   UNL     1      45.112   3.816  13.271  0.00  0.00    +0.000 C 
ATOM     11  N   UNL     1      45.540   2.744  12.530  0.00  0.00    +0.000 N 
ATOM     12  O   UNL     1      43.937   3.984  13.542  0.00  0.00    +0.000 OA
ATOM     13  H   UNL     1      46.474   2.678  12.144  0.00  0.00    +0.000 HD
ATOM     14  H   UNL     1      44.840   2.129  12.138  0.00  0.00    +0.000 HD
ENDBRANCH   4  10
BRANCH   1  16
ATOM     15  C   UNL     1      49.498   7.701  15.867  0.00  0.00    +0.000 C 
ATOM     16  O   UNL     1      49.661   6.673  14.895  0.00  0.00    +0.000 OA
ENDBRANCH   1  16
BRANCH   9  17
ATOM     17  C   UNL     1      45.022   6.462  11.013  0.00  0.00    +0.000 C 
BRANCH  17  18
ATOM     18  C   UNL     1      44.930   5.274  10.097  0.00  0.00    +0.000 A 
ATOM     19  C   UNL     1      43.936   4.320  10.274  0.00  0.00    +0.000 A 
ATOM     20  N   UNL     1      43.837   3.207   9.509  0.00  0.00    +0.000 NA
ATOM     21  C   UNL     1      44.771   3.087   8.537  0.00  0.00    +0.000 A 
ATOM     22  C   UNL     1      45.735   4.057   8.289  0.00  0.00    +0.000 A 
ATOM     23  N   UNL     1      45.821   5.171   9.069  0.00  0.00    +0.000 NA
BRANCH  22  24
ATOM     24  C   UNL     1      46.799   3.855   7.227  0.00  0.00    +0.000 C 
BRANCH  24  25
ATOM     25  N   UNL     1      46.745   2.583   6.469  0.00  0.00    +0.000 NA
ATOM     26  C   UNL     1      47.190   2.756   5.082  0.00  0.00    +0.000 C 
ATOM     27  C   UNL     1      47.610   1.596   7.128  0.00  0.00    +0.000 C 
ENDBRANCH  24  25
ENDBRANCH  22  24
ENDBRANCH  17  18
ENDBRANCH   9  17
TORSDOF 6
ENDMDL
MODEL 2
REMARK VINA RESULT:    -6.935      2.322      6.551
REMARK INTER + INTRA:          -9.798
REMARK INTER:                  -8.845
REMARK INTRA:                  -0.953
REMARK UNBOUND:                -0.430
REMARK  Name = 
REMARK  9 active torsions:
REMARK  status: ('A' for Active; 'I' for Inactive)
REMARK    1  A    between atoms: C_1  and  O_2
REMARK    2  A    between atoms: O_2  and  C_3
REMARK    3  A    between atoms: C_6  and  C_7
REMARK    4  A    between atoms: N_14  and  C_15
REMARK    5  A    between atoms: C_15  and  C_16
REMARK    6  A    between atoms: C_20  and  C_21
REMARK    7  A    between atoms: C_21  and  N_22
REMARK    8  A    between atoms: N_22  and  C_23
REMARK    9  A    between atoms: N_22  and  C_24
REMARK                            x       y       z     vdW  Elec       q    Type
REMARK                         _______ _______ _______ _____ _____    ______ ____
ROOT
ATOM      1  C   UNL     1      44.749   3.060   9.208  0.00  0.00    +0.000 A 
ATOM      2  N   UNL     1      43.860   2.430  10.018  0.00  0.00    +0.000 NA
ATOM      3  C   UNL     1      43.337   3.114  11.050  0.00  0.00    +0.000 A 
ATOM      4  C   UNL     1      43.629   4.437  11.368  0.00  0.00    +0.000 A 
ATOM      5  C   UNL     1      44.661   5.040  10.632  0.00  0.00    +0.000 A 
ATOM      6  C   UNL     1      45.200   4.362   9.521  0.00  0.00    +0.000 A 
ATOM      7  N   UNL     1      46.111   5.156   8.863  0.00  0.00    +0.000 NA
ATOM      8  C   UNL     1      46.173   6.266   9.555  0.00  0.00    +0.000 A 
ATOM      9  N   UNL     1      45.355   6.235  10.659  0.00  0.00    +0.000 N 
ENDROOT
BRANCH   4  10
ATOM     10  C   UNL     1      42.789   5.100  12.370  0.00  0.00    +0.000 C 
ATOM     11  N   UNL     1      41.990   6.111  11.900  0.00  0.00    +0.000 N 
ATOM     12  O   UNL     1      42.817   4.796  13.548  0.00  0.00    +0.000 OA
ATOM     13  H   UNL     1      42.080   6.498  10.969  0.00  0.00    +0.000 HD
ATOM     14  H   UNL     1      41.476   6.662  12.575  0.00  0.00    +0.000 HD
ENDBRANCH   4  10
BRANCH   1  16
ATOM     15  C   UNL     1      46.053   1.314   8.382  0.00  0.00    +0.000 C 
ATOM     16  O   UNL     1      45.199   2.411   8.074  0.00  0.00    +0.000 OA
ENDBRANCH   1  16
BRANCH   9  17
ATOM     17  C   UNL     1      45.444   7.248  11.704  0.00  0.00    +0.000 C 
BRANCH  17  18
ATOM     18  C   UNL     1      46.470   6.908  12.749  0.00  0.00    +0.000 A 
ATOM     19  C   UNL     1      47.540   7.761  12.992  0.00  0.00    +0.000 A 
ATOM     20  N   UNL     1      48.518   7.480  13.885  0.00  0.00    +0.000 NA
ATOM     21  C   UNL     1      48.379   6.308  14.548  0.00  0.00    +0.000 A 
ATOM     22  C   UNL     1      47.285   5.468  14.379  0.00  0.00    +0.000 A 
ATOM     23  N   UNL     1      46.310   5.765  13.475  0.00  0.00    +0.000 NA
BRANCH  22  24
ATOM     24  C   UNL     1      47.198   4.136  15.099  0.00  0.00    +0.000 C 
BRANCH  24  25
ATOM     25  N   UNL     1      48.009   3.994  16.331  0.00  0.00    +0.000 NA
ATOM     26  C   UNL     1      47.258   4.392  17.527  0.00  0.00    +0.000 C 
ATOM     27  C   UNL     1      48.425   2.593  16.472  0.00  0.00    +0.000 C 
ENDBRANCH  24  25
ENDBRANCH  22  24
ENDBRANCH  17  18
ENDBRANCH   9  17
TORSDOF 6
ENDMDL
MODEL 3
REMARK VINA RESULT:    -6.843      1.859      2.917
REMARK INTER + INTRA:          -9.674
REMARK INTER:                  -9.151
REMARK INTRA:                  -0.523
REMARK UNBOUND:                -0.430
REMARK  Name = 
REMARK  9 active torsions:
REMARK  status: ('A' for Active; 'I' for Inactive)
REMARK    1  A    between atoms: C_1  and  O_2
REMARK    2  A    between atoms: O_2  and  C_3
REMARK    3  A    between atoms: C_6  and  C_7
REMARK    4  A    between atoms: N_14  and  C_15
REMARK    5  A    between atoms: C_15  and  C_16
REMARK    6  A    between atoms: C_20  and  C_21
REMARK    7  A    between atoms: C_21  and  N_22
REMARK    8  A    between atoms: N_22  and  C_23
REMARK    9  A    between atoms: N_22  and  C_24
REMARK                            x       y       z     vdW  Elec       q    Type
REMARK                         _______ _______ _______ _____ _____    ______ ____
ROOT
ATOM      1  C   UNL     1      48.796   7.263  14.069  0.00  0.00    +0.000 A 
ATOM      2  N   UNL     1      48.959   8.595  13.861  0.00  0.00    +0.000 NA
ATOM      3  C   UNL     1      48.004   9.260  13.188  0.00  0.00    +0.000 A 
ATOM      4  C   UNL     1      46.838   8.696  12.677  0.00  0.00    +0.000 A 
ATOM      5  C   UNL     1      46.742   7.297  12.751  0.00  0.00    +0.000 A 
ATOM      6  C   UNL     1      47.706   6.579  13.484  0.00  0.00    +0.000 A 
ATOM      7  N   UNL     1      47.380   5.243  13.538  0.00  0.00    +0.000 NA
ATOM      8  C   UNL     1      46.281   5.122  12.836  0.00  0.00    +0.000 A 
ATOM      9  N   UNL     1      45.876   6.320  12.298  0.00  0.00    +0.000 N 
ENDROOT
BRANCH   4  10
ATOM     10  C   UNL     1      45.796   9.603  12.191  0.00  0.00    +0.000 C 
ATOM     11  N   UNL     1      44.599   9.545  12.858  0.00  0.00    +0.000 N 
ATOM     12  O   UNL     1      45.967  10.343  11.239  0.00  0.00    +0.000 OA
ATOM     13  H   UNL     1      44.376   8.821  13.530  0.00  0.00    +0.000 HD
ATOM     14  H   UNL     1      43.823  10.078  12.488  0.00  0.00    +0.000 HD
ENDBRANCH   4  10
BRANCH   1  16
ATOM     15  C   UNL     1      49.335   6.609  16.239  0.00  0.00    +0.000 C 
ATOM     16  O   UNL     1      49.705   6.593  14.864  0.00  0.00    +0.000 OA
ENDBRANCH   1  16
BRANCH   9  17
ATOM     17  C   UNL     1      44.829   6.387  11.283  0.00  0.00    +0.000 C 
BRANCH  17  18
ATOM     18  C   UNL     1      44.808   5.171  10.400  0.00  0.00    +0.000 A 
ATOM     19  C   UNL     1      43.917   4.134  10.646  0.00  0.00    +0.000 A 
ATOM     20  N   UNL     1      43.888   2.997   9.913  0.00  0.00    +0.000 NA
ATOM     21  C   UNL     1      44.784   2.937   8.899  0.00  0.00    +0.000 A 
ATOM     22  C   UNL     1      45.640   3.986   8.583  0.00  0.00    +0.000 A 
ATOM     23  N   UNL     1      45.656   5.123   9.333  0.00  0.00    +0.000 NA
BRANCH  22  24
ATOM     24  C   UNL     1      46.668   3.855   7.476  0.00  0.00    +0.000 C 
BRANCH  24  25
ATOM     25  N   UNL     1      46.603   2.624   6.653  0.00  0.00    +0.000 NA
ATOM     26  C   UNL     1      46.868   2.900   5.237  0.00  0.00    +0.000 C 
ATOM     27  C   UNL     1      47.598   1.664   7.147  0.00  0.00    +0.000 C 
ENDBRANCH  24  25
ENDBRANCH  22  24
ENDBRANCH  17  18
ENDBRANCH   9  17
TORSDOF 6
ENDMDL
MODEL 4
REMARK VINA RESULT:    -6.625      1.956      3.058
REMARK INTER + INTRA:          -9.378
REMARK INTER:                  -8.808
REMARK INTRA:                  -0.571
REMARK UNBOUND:                -0.430
REMARK  Name = 
REMARK  9 active torsions:
REMARK  status: ('A' for Active; 'I' for Inactive)
REMARK    1  A    between atoms: C_1  and  O_2
REMARK    2  A    between atoms: O_2  and  C_3
REMARK    3  A    between atoms: C_6  and  C_7
REMARK    4  A    between atoms: N_14  and  C_15
REMARK    5  A    between atoms: C_15  and  C_16
REMARK    6  A    between atoms: C_20  and  C_21
REMARK    7  A    between atoms: C_21  and  N_22
REMARK    8  A    between atoms: N_22  and  C_23
REMARK    9  A    between atoms: N_22  and  C_24
REMARK                            x       y       z     vdW  Elec       q    Type
REMARK                         _______ _______ _______ _____ _____    ______ ____
ROOT
ATOM      1  C   UNL     1      49.064   7.332  15.792  0.00  0.00    +0.000 A 
ATOM      2  N   UNL     1      49.064   6.877  17.072  0.00  0.00    +0.000 NA
ATOM      3  C   UNL     1      48.509   5.680  17.326  0.00  0.00    +0.000 A 
ATOM      4  C   UNL     1      47.927   4.845  16.377  0.00  0.00    +0.000 A 
ATOM      5  C   UNL     1      47.785   5.377  15.086  0.00  0.00    +0.000 A 
ATOM      6  C   UNL     1      48.390   6.612  14.781  0.00  0.00    +0.000 A 
ATOM      7  N   UNL     1      48.240   6.909  13.446  0.00  0.00    +0.000 NA
ATOM      8  C   UNL     1      47.536   5.925  12.944  0.00  0.00    +0.000 A 
ATOM      9  N   UNL     1      47.193   4.996  13.897  0.00  0.00    +0.000 N 
ENDROOT
BRANCH   4  10
ATOM     10  C   UNL     1      47.596   3.476  16.782  0.00  0.00    +0.000 C 
ATOM     11  N   UNL     1      48.565   2.536  16.546  0.00  0.00    +0.000 N 
ATOM     12  O   UNL     1      46.519   3.183  17.271  0.00  0.00    +0.000 OA
ATOM     13  H   UNL     1      49.387   2.719  15.984  0.00  0.00    +0.000 HD
ATOM     14  H   UNL     1      48.335   1.565  16.713  0.00  0.00    +0.000 HD
ENDBRANCH   4  10
BRANCH   1  16
ATOM     15  C   UNL     1      51.120   8.275  15.231  0.00  0.00    +0.000 C 
ATOM     16  O   UNL     1      49.739   8.500  15.496  0.00  0.00    +0.000 OA
ENDBRANCH   1  16
BRANCH   9  17
ATOM     17  C   UNL     1      46.209   3.953  13.627  0.00  0.00    +0.000 C 
BRANCH  17  18
ATOM     18  C   UNL     1      45.164   4.390  12.639  0.00  0.00    +0.000 A 
ATOM     19  C   UNL     1      44.058   5.120  13.057  0.00  0.00    +0.000 A 
ATOM     20  N   UNL     1      43.065   5.497  12.219  0.00  0.00    +0.000 NA
ATOM     21  C   UNL     1      43.224   5.128  10.926  0.00  0.00    +0.000 A 
ATOM     22  C   UNL     1      44.352   4.460  10.463  0.00  0.00    +0.000 A 
ATOM     23  N   UNL     1      45.342   4.087  11.322  0.00  0.00    +0.000 NA
BRANCH  22  24
ATOM     24  C   UNL     1      44.464   4.014   9.019  0.00  0.00    +0.000 C 
BRANCH  24  25
ATOM     25  N   UNL     1      45.622   3.154   8.678  0.00  0.00    +0.000 NA
ATOM     26  C   UNL     1      45.275   1.730   8.718  0.00  0.00    +0.000 C 
ATOM     27  C   UNL     1      46.090   3.494   7.328  0.00  0.00    +0.000 C 
ENDBRANCH  24  25
ENDBRANCH  22  24
ENDBRANCH  17  18
ENDBRANCH   9  17
TORSDOF 6
ENDMDL
MODEL 5
REMARK VINA RESULT:    -6.479      3.027      6.587
REMARK INTER + INTRA:          -9.182
REMARK INTER:                  -8.425
REMARK INTRA:                  -0.757
REMARK UNBOUND:                -0.430
REMARK  Name = 
REMARK  9 active torsions:
REMARK  status: ('A' for Active; 'I' for Inactive)
REMARK    1  A    between atoms: C_1  and  O_2
REMARK    2  A    between atoms: O_2  and  C_3
REMARK    3  A    between atoms: C_6  and  C_7
REMARK    4  A    between atoms: N_14  and  C_15
REMARK    5  A    between atoms: C_15  and  C_16
REMARK    6  A    between atoms: C_20  and  C_21
REMARK    7  A    between atoms: C_21  and  N_22
REMARK    8  A    between atoms: N_22  and  C_23
REMARK    9  A    between atoms: N_22  and  C_24
REMARK                            x       y       z     vdW  Elec       q    Type
REMARK                         _______ _______ _______ _____ _____    ______ ____
ROOT
ATOM      1  C   UNL     1      44.756   3.217   9.128  0.00  0.00    +0.000 A 
ATOM      2  N   UNL     1      43.997   2.394   9.897  0.00  0.00    +0.000 NA
ATOM      3  C   UNL     1      43.656   2.804  11.130  0.00  0.00    +0.000 A 
ATOM      4  C   UNL     1      44.014   4.022  11.702  0.00  0.00    +0.000 A 
ATOM      5  C   UNL     1      44.926   4.804  10.975  0.00  0.00    +0.000 A 
ATOM      6  C   UNL     1      45.270   4.419   9.665  0.00  0.00    +0.000 A 
ATOM      7  N   UNL     1      46.078   5.366   9.077  0.00  0.00    +0.000 NA
ATOM      8  C   UNL     1      46.266   6.284   9.993  0.00  0.00    +0.000 A 
ATOM      9  N   UNL     1      45.633   5.974  11.173  0.00  0.00    +0.000 N 
ENDROOT
BRANCH   4  10
ATOM     10  C   UNL     1      43.354   4.411  12.951  0.00  0.00    +0.000 C 
ATOM     11  N   UNL     1      42.574   5.536  12.885  0.00  0.00    +0.000 N 
ATOM     12  O   UNL     1      43.510   3.794  13.989  0.00  0.00    +0.000 OA
ATOM     13  H   UNL     1      42.571   6.160  12.088  0.00  0.00    +0.000 HD
ATOM     14  H   UNL     1      42.188   5.896  13.748  0.00  0.00    +0.000 HD
ENDBRANCH   4  10
BRANCH   1  16
ATOM     15  C   UNL     1      46.200   2.093   7.686  0.00  0.00    +0.000 C 
ATOM     16  O   UNL     1      45.010   2.865   7.817  0.00  0.00    +0.000 OA
ENDBRANCH   1  16
BRANCH   9  17
ATOM     17  C   UNL     1      45.903   6.715  12.401  0.00  0.00    +0.000 C 
BRANCH  17  18
ATOM     18  C   UNL     1      45.948   8.201  12.178  0.00  0.00    +0.000 A 
ATOM     19  C   UNL     1      47.130   8.907  12.363  0.00  0.00    +0.000 A 
ATOM     20  N   UNL     1      47.214  10.251  12.223  0.00  0.00    +0.000 NA
ATOM     21  C   UNL     1      46.064  10.872  11.871  0.00  0.00    +0.000 A 
ATOM     22  C   UNL     1      44.883  10.186  11.609  0.00  0.00    +0.000 A 
ATOM     23  N   UNL     1      44.816   8.833  11.756  0.00  0.00    +0.000 NA
BRANCH  22  24
ATOM     24  C   UNL     1      43.603  10.925  11.274  0.00  0.00    +0.000 C 
BRANCH  24  25
ATOM     25  N   UNL     1      42.657  10.234  10.366  0.00  0.00    +0.000 NA
ATOM     26  C   UNL     1      41.288  10.245  10.894  0.00  0.00    +0.000 C 
ATOM     27  C   UNL     1      42.670  10.905   9.060  0.00  0.00    +0.000 C 
ENDBRANCH  24  25
ENDBRANCH  22  24
ENDBRANCH  17  18
ENDBRANCH   9  17
TORSDOF 6
ENDMDL
MODEL 6
REMARK VINA RESULT:    -6.461      2.104      3.842
REMARK INTER + INTRA:          -9.158
REMARK INTER:                  -8.598
REMARK INTRA:                  -0.560
REMARK UNBOUND:                -0.430
REMARK  Name = 
REMARK  9 active torsions:
REMARK  status: ('A' for Active; 'I' for Inactive)
REMARK    1  A    between atoms: C_1  and  O_2
REMARK    2  A    between atoms: O_2  and  C_3
REMARK    3  A    between atoms: C_6  and  C_7
REMARK    4  A    between atoms: N_14  and  C_15
REMARK    5  A    between atoms: C_15  and  C_16
REMARK    6  A    between atoms: C_20  and  C_21
REMARK    7  A    between atoms: C_21  and  N_22
REMARK    8  A    between atoms: N_22  and  C_23
REMARK    9  A    between atoms: N_22  and  C_24
REMARK                            x       y       z     vdW  Elec       q    Type
REMARK                         _______ _______ _______ _____ _____    ______ ____
ROOT
ATOM      1  C   UNL     1      48.636   4.615  16.851  0.00  0.00    +0.000 A 
ATOM      2  N   UNL     1      49.459   5.647  17.171  0.00  0.00    +0.000 NA
ATOM      3  C   UNL     1      49.426   6.753  16.409  0.00  0.00    +0.000 A 
ATOM      4  C   UNL     1      48.607   6.942  15.300  0.00  0.00    +0.000 A 
ATOM      5  C   UNL     1      47.873   5.824  14.873  0.00  0.00    +0.000 A 
ATOM      6  C   UNL     1      47.858   4.665  15.673  0.00  0.00    +0.000 A 
ATOM      7  N   UNL     1      46.997   3.726  15.151  0.00  0.00    +0.000 NA
ATOM      8  C   UNL     1      46.525   4.256  14.050  0.00  0.00    +0.000 A 
ATOM      9  N   UNL     1      47.055   5.502  13.807  0.00  0.00    +0.000 N 
ENDROOT
BRANCH   4  10
ATOM     10  C   UNL     1      48.520   8.292  14.736  0.00  0.00    +0.000 C 
ATOM     11  N   UNL     1      47.476   9.058  15.187  0.00  0.00    +0.000 N 
ATOM     12  O   UNL     1      49.305   8.701  13.900  0.00  0.00    +0.000 OA
ATOM     13  H   UNL     1      46.715   8.683  15.740  0.00  0.00    +0.000 HD
ATOM     14  H   UNL     1      47.320   9.954  14.745  0.00  0.00    +0.000 HD
ENDBRANCH   4  10
BRANCH   1  16
ATOM     15  C   UNL     1      48.675   3.895  19.066  0.00  0.00    +0.000 C 
ATOM     16  O   UNL     1      48.569   3.524  17.695  0.00  0.00    +0.000 OA
ENDBRANCH   1  16
BRANCH   9  17
ATOM     17  C   UNL     1      46.870   6.172  12.524  0.00  0.00    +0.000 C 
BRANCH  17  18
ATOM     18  C   UNL     1      45.571   5.803  11.864  0.00  0.00    +0.000 A 
ATOM     19  C   UNL     1      44.359   6.166  12.439  0.00  0.00    +0.000 A 
ATOM     20  N   UNL     1      43.161   5.818  11.914  0.00  0.00    +0.000 NA
ATOM     21  C   UNL     1      43.217   5.098  10.768  0.00  0.00    +0.000 A 
ATOM     22  C   UNL     1      44.411   4.781  10.131  0.00  0.00    +0.000 A 
ATOM     23  N   UNL     1      45.608   5.138  10.675  0.00  0.00    +0.000 NA
BRANCH  22  24
ATOM     24  C   UNL     1      44.430   3.923   8.881  0.00  0.00    +0.000 C 
BRANCH  24  25
ATOM     25  N   UNL     1      45.695   3.208   8.587  0.00  0.00    +0.000 NA
ATOM     26  C   UNL     1      45.541   1.754   8.710  0.00  0.00    +0.000 C 
ATOM     27  C   UNL     1      46.120   3.529   7.219  0.00  0.00    +0.000 C 
ENDBRANCH  24  25
ENDBRANCH  22  24
ENDBRANCH  17  18
ENDBRANCH   9  17
TORSDOF 6
ENDMDL
MODEL 7
REMARK VINA RESULT:    -6.364      2.898      7.692
REMARK INTER + INTRA:          -9.026
REMARK INTER:                  -8.933
REMARK INTRA:                  -0.093
REMARK UNBOUND:                -0.430
REMARK  Name = 
REMARK  9 active torsions:
REMARK  status: ('A' for Active; 'I' for Inactive)
REMARK    1  A    between atoms: C_1  and  O_2
REMARK    2  A    between atoms: O_2  and  C_3
REMARK    3  A    between atoms: C_6  and  C_7
REMARK    4  A    between atoms: N_14  and  C_15
REMARK    5  A    between atoms: C_15  and  C_16
REMARK    6  A    between atoms: C_20  and  C_21
REMARK    7  A    between atoms: C_21  and  N_22
REMARK    8  A    between atoms: N_22  and  C_23
REMARK    9  A    between atoms: N_22  and  C_24
REMARK                            x       y       z     vdW  Elec       q    Type
REMARK                         _______ _______ _______ _____ _____    ______ ____
ROOT
ATOM      1  C   UNL     1      44.124   4.309  11.466  0.00  0.00    +0.000 A 
ATOM      2  N   UNL     1      43.603   5.521  11.144  0.00  0.00    +0.000 NA
ATOM      3  C   UNL     1      44.220   6.625  11.598  0.00  0.00    +0.000 A 
ATOM      4  C   UNL     1      45.370   6.639  12.382  0.00  0.00    +0.000 A 
ATOM      5  C   UNL     1      45.819   5.394  12.847  0.00  0.00    +0.000 A 
ATOM      6  C   UNL     1      45.217   4.219  12.358  0.00  0.00    +0.000 A 
ATOM      7  N   UNL     1      45.866   3.104  12.838  0.00  0.00    +0.000 NA
ATOM      8  C   UNL     1      46.807   3.559  13.627  0.00  0.00    +0.000 A 
ATOM      9  N   UNL     1      46.797   4.931  13.708  0.00  0.00    +0.000 N 
ENDROOT
BRANCH   4  10
ATOM     10  C   UNL     1      46.046   7.924  12.579  0.00  0.00    +0.000 C 
ATOM     11  N   UNL     1      45.281   8.920  13.129  0.00  0.00    +0.000 N 
ATOM     12  O   UNL     1      47.204   8.108  12.250  0.00  0.00    +0.000 OA
ATOM     13  H   UNL     1      44.278   8.846  13.244  0.00  0.00    +0.000 HD
ATOM     14  H   UNL     1      45.679   9.849  13.183  0.00  0.00    +0.000 HD
ENDBRANCH   4  10
BRANCH   1  16
ATOM     15  C   UNL     1      44.266   2.760   9.731  0.00  0.00    +0.000 C 
ATOM     16  O   UNL     1      43.575   3.172  10.906  0.00  0.00    +0.000 OA
ENDBRANCH   1  16
BRANCH   9  17
ATOM     17  C   UNL     1      47.583   5.643  14.710  0.00  0.00    +0.000 C 
BRANCH  17  18
ATOM     18  C   UNL     1      47.823   4.819  15.943  0.00  0.00    +0.000 A 
ATOM     19  C   UNL     1      46.802   4.050  16.490  0.00  0.00    +0.000 A 
ATOM     20  N   UNL     1      46.950   3.329  17.625  0.00  0.00    +0.000 NA
ATOM     21  C   UNL     1      48.177   3.389  18.196  0.00  0.00    +0.000 A 
ATOM     22  C   UNL     1      49.238   4.091  17.636  0.00  0.00    +0.000 A 
ATOM     23  N   UNL     1      49.071   4.813  16.493  0.00  0.00    +0.000 NA
BRANCH  22  24
ATOM     24  C   UNL     1      50.579   4.180  18.338  0.00  0.00    +0.000 C 
BRANCH  24  25
ATOM     25  N   UNL     1      51.760   3.710  17.576  0.00  0.00    +0.000 NA
ATOM     26  C   UNL     1      53.008   4.271  18.103  0.00  0.00    +0.000 C 
ATOM     27  C   UNL     1      51.825   2.245  17.649  0.00  0.00    +0.000 C 
ENDBRANCH  24  25
ENDBRANCH  22  24
ENDBRANCH  17  18
ENDBRANCH   9  17
TORSDOF 6
ENDMDL
MODEL 8
REMARK VINA RESULT:    -6.249      2.411      6.385
REMARK INTER + INTRA:          -8.872
REMARK INTER:                  -8.017
REMARK INTRA:                  -0.855
REMARK UNBOUND:                -0.430
REMARK  Name = 
REMARK  9 active torsions:
REMARK  status: ('A' for Active; 'I' for Inactive)
REMARK    1  A    between atoms: C_1  and  O_2
REMARK    2  A    between atoms: O_2  and  C_3
REMARK    3  A    between atoms: C_6  and  C_7
REMARK    4  A    between atoms: N_14  and  C_15
REMARK    5  A    between atoms: C_15  and  C_16
REMARK    6  A    between atoms: C_20  and  C_21
REMARK    7  A    between atoms: C_21  and  N_22
REMARK    8  A    between atoms: N_22  and  C_23
REMARK    9  A    between atoms: N_22  and  C_24
REMARK                            x       y       z     vdW  Elec       q    Type
REMARK                         _______ _______ _______ _____ _____    ______ ____
ROOT
ATOM      1  C   UNL     1      44.724   3.041   9.229  0.00  0.00    +0.000 A 
ATOM      2  N   UNL     1      43.850   2.418  10.062  0.00  0.00    +0.000 NA
ATOM      3  C   UNL     1      43.352   3.109  11.101  0.00  0.00    +0.000 A 
ATOM      4  C   UNL     1      43.654   4.433  11.406  0.00  0.00    +0.000 A 
ATOM      5  C   UNL     1      44.672   5.029  10.645  0.00  0.00    +0.000 A 
ATOM      6  C   UNL     1      45.185   4.343   9.526  0.00  0.00    +0.000 A 
ATOM      7  N   UNL     1      46.084   5.131   8.845  0.00  0.00    +0.000 NA
ATOM      8  C   UNL     1      46.165   6.245   9.529  0.00  0.00    +0.000 A 
ATOM      9  N   UNL     1      45.370   6.221  10.651  0.00  0.00    +0.000 N 
ENDROOT
BRANCH   4  10
ATOM     10  C   UNL     1      42.838   5.104  12.422  0.00  0.00    +0.000 C 
ATOM     11  N   UNL     1      42.016   6.100  11.961  0.00  0.00    +0.000 N 
ATOM     12  O   UNL     1      42.903   4.817  13.604  0.00  0.00    +0.000 OA
ATOM     13  H   UNL     1      42.075   6.473  11.022  0.00  0.00    +0.000 HD
ATOM     14  H   UNL     1      41.517   6.656  12.643  0.00  0.00    +0.000 HD
ENDBRANCH   4  10
BRANCH   1  16
ATOM     15  C   UNL     1      46.080   1.348   8.378  0.00  0.00    +0.000 C 
ATOM     16  O   UNL     1      45.148   2.385   8.090  0.00  0.00    +0.000 OA
ENDBRANCH   1  16
BRANCH   9  17
ATOM     17  C   UNL     1      45.484   7.240  11.689  0.00  0.00    +0.000 C 
BRANCH  17  18
ATOM     18  C   UNL     1      46.764   7.125  12.468  0.00  0.00    +0.000 A 
ATOM     19  C   UNL     1      46.955   6.078  13.362  0.00  0.00    +0.000 A 
ATOM     20  N   UNL     1      48.067   5.954  14.124  0.00  0.00    +0.000 NA
ATOM     21  C   UNL     1      49.002   6.917  13.949  0.00  0.00    +0.000 A 
ATOM     22  C   UNL     1      48.872   7.937  13.013  0.00  0.00    +0.000 A 
ATOM     23  N   UNL     1      47.745   8.047  12.254  0.00  0.00    +0.000 NA
BRANCH  22  24
ATOM     24  C   UNL     1      49.917   9.028  12.889  0.00  0.00    +0.000 C 
BRANCH  24  25
ATOM     25  N   UNL     1      51.211   8.642  12.279  0.00  0.00    +0.000 NA
ATOM     26  C   UNL     1      51.491   9.411  11.061  0.00  0.00    +0.000 C 
ATOM     27  C   UNL     1      52.288   8.876  13.250  0.00  0.00    +0.000 C 
ENDBRANCH  24  25
ENDBRANCH  22  24
ENDBRANCH  17  18
ENDBRANCH   9  17
TORSDOF 6
ENDMDL
MODEL 9
REMARK VINA RESULT:    -5.993      2.565      7.616
REMARK INTER + INTRA:          -8.526
REMARK INTER:                  -7.292
REMARK INTRA:                  -1.234
REMARK UNBOUND:                -0.430
REMARK  Name = 
REMARK  9 active torsions:
REMARK  status: ('A' for Active; 'I' for Inactive)
REMARK    1  A    between atoms: C_1  and  O_2
REMARK    2  A    between atoms: O_2  and  C_3
REMARK    3  A    between atoms: C_6  and  C_7
REMARK    4  A    between atoms: N_14  and  C_15
REMARK    5  A    between atoms: C_15  and  C_16
REMARK    6  A    between atoms: C_20  and  C_21
REMARK    7  A    between atoms: C_21  and  N_22
REMARK    8  A    between atoms: N_22  and  C_23
REMARK    9  A    between atoms: N_22  and  C_24
REMARK                            x       y       z     vdW  Elec       q    Type
REMARK                         _______ _______ _______ _____ _____    ______ ____
ROOT
ATOM      1  C   UNL     1      44.841   4.736  11.380  0.00  0.00    +0.000 A 
ATOM      2  N   UNL     1      44.781   3.513  11.967  0.00  0.00    +0.000 NA
ATOM      3  C   UNL     1      45.605   3.255  12.997  0.00  0.00    +0.000 A 
ATOM      4  C   UNL     1      46.531   4.148  13.529  0.00  0.00    +0.000 A 
ATOM      5  C   UNL     1      46.706   5.352  12.828  0.00  0.00    +0.000 A 
ATOM      6  C   UNL     1      45.832   5.665  11.770  0.00  0.00    +0.000 A 
ATOM      7  N   UNL     1      46.087   6.928  11.287  0.00  0.00    +0.000 NA
ATOM      8  C   UNL     1      47.104   7.371  11.983  0.00  0.00    +0.000 A 
ATOM      9  N   UNL     1      47.549   6.445  12.896  0.00  0.00    +0.000 N 
ENDROOT
BRANCH   4  10
ATOM     10  C   UNL     1      47.169   3.794  14.800  0.00  0.00    +0.000 C 
ATOM     11  N   UNL     1      46.779   4.534  15.887  0.00  0.00    +0.000 N 
ATOM     12  O   UNL     1      48.012   2.919  14.885  0.00  0.00    +0.000 OA
ATOM     13  H   UNL     1      46.220   5.374  15.810  0.00  0.00    +0.000 HD
ATOM     14  H   UNL     1      47.272   4.392  16.759  0.00  0.00    +0.000 HD
ENDBRANCH   4  10
BRANCH   1  16
ATOM     15  C   UNL     1      44.138   4.338   9.194  0.00  0.00    +0.000 C 
ATOM     16  O   UNL     1      43.918   5.058  10.404  0.00  0.00    +0.000 OA
ENDBRANCH   1  16
BRANCH   9  17
ATOM     17  C   UNL     1      48.814   6.616  13.603  0.00  0.00    +0.000 C 
BRANCH  17  18
ATOM     18  C   UNL     1      48.657   7.385  14.884  0.00  0.00    +0.000 A 
ATOM     19  C   UNL     1      48.364   8.743  14.862  0.00  0.00    +0.000 A 
ATOM     20  N   UNL     1      48.261   9.493  15.984  0.00  0.00    +0.000 NA
ATOM     21  C   UNL     1      48.446   8.825  17.148  0.00  0.00    +0.000 A 
ATOM     22  C   UNL     1      48.670   7.455  17.207  0.00  0.00    +0.000 A 
ATOM     23  N   UNL     1      48.773   6.715  16.067  0.00  0.00    +0.000 NA
BRANCH  22  24
ATOM     24  C   UNL     1      48.931   6.757  18.527  0.00  0.00    +0.000 C 
BRANCH  24  25
ATOM     25  N   UNL     1      48.035   5.627  18.868  0.00  0.00    +0.000 NA
ATOM     26  C   UNL     1      48.768   4.361  18.970  0.00  0.00    +0.000 C 
ATOM     27  C   UNL     1      47.382   5.905  20.154  0.00  0.00    +0.000 C 
ENDBRANCH  24  25
ENDBRANCH  22  24
ENDBRANCH  17  18
ENDBRANCH   9  17
TORSDOF 6
ENDMDL
