MODEL 1
REMARK VINA RESULT:    -9.024      0.000      0.000
REMARK INTER + INTRA:         -11.648
REMARK INTER:                 -11.662
REMARK INTRA:                   0.014
REMARK UNBOUND:                 0.014
REMARK  Name = 
REMARK  5 active torsions:
REMARK  status: ('A' for Active; 'I' for Inactive)
REMARK    1  A    between atoms: C_2  and  C_3
REMARK    2  A    between atoms: C_6  and  N_7
REMARK    3  A    between atoms: N_7  and  C_8
REMARK    4  A    between atoms: C_8  and  C_9
REMARK    5  A    between atoms: C_13  and  C_14
REMARK                            x       y       z     vdW  Elec       q    Type
REMARK                         _______ _______ _______ _____ _____    ______ ____
ROOT
ATOM      1  C   UNL     1      45.387   5.312  12.031  0.00  0.00    +0.000 A 
ATOM      2  C   UNL     1      46.114   6.271  11.307  0.00  0.00    +0.000 A 
ATOM      3  C   UNL     1      47.256   6.862  11.838  0.00  0.00    +0.000 A 
ATOM      4  C   UNL     1      47.713   6.481  13.100  0.00  0.00    +0.000 A 
ATOM      5  C   UNL     1      47.065   5.481  13.840  0.00  0.00    +0.000 A 
ATOM      6  C   UNL     1      45.908   4.905  13.273  0.00  0.00    +0.000 A 
ENDROOT
BRANCH   5   7
ATOM      7  C   UNL     1      47.540   5.074  15.183  0.00  0.00    +0.000 A 
ATOM      8  C   UNL     1      48.495   5.832  15.886  0.00  0.00    +0.000 A 
ATOM      9  C   UNL     1      48.924   5.445  17.157  0.00  0.00    +0.000 A 
ATOM     10  F   UNL     1      49.836   6.187  17.795  0.00  0.00    +0.000 F 
ATOM     11  C   UNL     1      48.418   4.311  17.773  0.00  0.00    +0.000 A 
ATOM     12  C   UNL     1      47.476   3.558  17.093  0.00  0.00    +0.000 A 
ATOM     13  F   UNL     1      46.969   2.461  17.668  0.00  0.00    +0.000 F 
ATOM     14  C   UNL     1      47.044   3.921  15.817  0.00  0.00    +0.000 A 
ENDBRANCH   5   7
BRANCH   1  15
ATOM     15  C   UNL     1      43.990   4.893  11.591  0.00  0.00    +0.000 C 
ATOM     16  C   UNL     1      43.334   3.705  12.283  0.00  0.00    +0.000 C 
ATOM     17  C   UNL     1      42.810   5.083  12.517  0.00  0.00    +0.000 C 
BRANCH  15  18
ATOM     18  N   UNL     1      43.892   4.856  10.127  0.00  0.00    +0.000 N 
ATOM     19  H   UNL     1      42.945   4.888   9.753  0.00  0.00    +0.000 HD
BRANCH  18  23
ATOM     20  C   UNL     1      46.332   2.559   7.786  0.00  0.00    +0.000 A 
ATOM     21  C   UNL     1      46.190   3.922   7.603  0.00  0.00    +0.000 A 
ATOM     22  N   UNL     1      45.327   4.667   8.333  0.00  0.00    +0.000 NA
ATOM     23  C   UNL     1      44.598   4.017   9.272  0.00  0.00    +0.000 A 
ATOM     24  C   UNL     1      44.711   2.635   9.406  0.00  0.00    +0.000 A 
ATOM     25  N   UNL     1      45.574   1.874   8.676  0.00  0.00    +0.000 NA
BRANCH  20  27
ATOM     26  N   UNL     1      48.188   1.297   6.488  0.00  0.00    +0.000 NA
ATOM     27  C   UNL     1      47.343   1.836   7.084  0.00  0.00    +0.000 C 
ENDBRANCH  20  27
ENDBRANCH  18  23
ENDBRANCH  15  18
ENDBRANCH   1  15
TORSDOF 5
ENDMDL
MODEL 2
REMARK VINA RESULT:    -8.528      4.302      7.784
REMARK INTER + INTRA:         -11.006
REMARK INTER:                 -10.253
REMARK INTRA:                  -0.754
REMARK UNBOUND:                 0.014
REMARK  Name = 
REMARK  5 active torsions:
REMARK  status: ('A' for Active; 'I' for Inactive)
REMARK    1  A    between atoms: C_2  and  C_3
REMARK    2  A    between atoms: C_6  and  N_7
REMARK    3  A    between atoms: N_7  and  C_8
REMARK    4  A    between atoms: C_8  and  C_9
REMARK    5  A    between atoms: C_13  and  C_14
REMARK                            x       y       z     vdW  Elec       q    Type
REMARK                         _______ _______ _______ _____ _____    ______ ____
ROOT
ATOM      1  C   UNL     1      45.220   5.943  11.646  0.00  0.00    +0.000 A 
ATOM      2  C   UNL     1      43.830   5.912  11.843  0.00  0.00    +0.000 A 
ATOM      3  C   UNL     1      43.005   5.137  11.034  0.00  0.00    +0.000 A 
ATOM      4  C   UNL     1      43.561   4.350  10.024  0.00  0.00    +0.000 A 
ATOM      5  C   UNL     1      44.948   4.292   9.824  0.00  0.00    +0.000 A 
ATOM      6  C   UNL     1      45.756   5.094  10.660  0.00  0.00    +0.000 A 
ENDROOT
BRANCH   5   7
ATOM      7  C   UNL     1      45.547   3.465   8.751  0.00  0.00    +0.000 A 
ATOM      8  C   UNL     1      46.009   4.039   7.552  0.00  0.00    +0.000 A 
ATOM      9  C   UNL     1      46.584   3.250   6.553  0.00  0.00    +0.000 A 
ATOM     10  F   UNL     1      47.008   3.829   5.425  0.00  0.00    +0.000 F 
ATOM     11  C   UNL     1      46.731   1.882   6.713  0.00  0.00    +0.000 A 
ATOM     12  C   UNL     1      46.283   1.305   7.890  0.00  0.00    +0.000 A 
ATOM     13  F   UNL     1      46.418  -0.014   8.070  0.00  0.00    +0.000 F 
ATOM     14  C   UNL     1      45.694   2.074   8.894  0.00  0.00    +0.000 A 
ENDBRANCH   5   7
BRANCH   1  15
ATOM     15  C   UNL     1      46.081   7.006  12.316  0.00  0.00    +0.000 C 
ATOM     16  C   UNL     1      46.197   8.374  11.656  0.00  0.00    +0.000 C 
ATOM     17  C   UNL     1      45.441   8.228  12.935  0.00  0.00    +0.000 C 
BRANCH  15  18
ATOM     18  N   UNL     1      47.367   6.442  12.744  0.00  0.00    +0.000 N 
ATOM     19  H   UNL     1      47.886   5.944  12.022  0.00  0.00    +0.000 HD
BRANCH  18  23
ATOM     20  C   UNL     1      47.908   4.732  16.417  0.00  0.00    +0.000 A 
ATOM     21  C   UNL     1      48.631   5.832  15.993  0.00  0.00    +0.000 A 
ATOM     22  N   UNL     1      48.500   6.352  14.749  0.00  0.00    +0.000 NA
ATOM     23  C   UNL     1      47.614   5.746  13.922  0.00  0.00    +0.000 A 
ATOM     24  C   UNL     1      46.936   4.605  14.344  0.00  0.00    +0.000 A 
ATOM     25  N   UNL     1      47.060   4.072  15.592  0.00  0.00    +0.000 NA
BRANCH  20  27
ATOM     26  N   UNL     1      48.099   3.967  18.886  0.00  0.00    +0.000 NA
ATOM     27  C   UNL     1      47.984   4.296  17.775  0.00  0.00    +0.000 C 
ENDBRANCH  20  27
ENDBRANCH  18  23
ENDBRANCH  15  18
ENDBRANCH   1  15
TORSDOF 5
ENDMDL
MODEL 3
REMARK VINA RESULT:    -8.521      2.448      3.737
REMARK INTER + INTRA:         -10.997
REMARK INTER:                 -10.089
REMARK INTRA:                  -0.908
REMARK UNBOUND:                 0.014
REMARK  Name = 
REMARK  5 active torsions:
REMARK  status: ('A' for Active; 'I' for Inactive)
REMARK    1  A    between atoms: C_2  and  C_3
REMARK    2  A    between atoms: C_6  and  N_7
REMARK    3  A    between atoms: N_7  and  C_8
REMARK    4  A    between atoms: C_8  and  C_9
REMARK    5  A    between atoms: C_13  and  C_14
REMARK                            x       y       z     vdW  Elec       q    Type
REMARK                         _______ _______ _______ _____ _____    ______ ____
ROOT
ATOM      1  C   UNL     1      44.930   5.002  12.130  0.00  0.00    +0.000 A 
ATOM      2  C   UNL     1      45.220   3.809  12.813  0.00  0.00    +0.000 A 
ATOM      3  C   UNL     1      46.444   3.622  13.447  0.00  0.00    +0.000 A 
ATOM      4  C   UNL     1      47.397   4.641  13.436  0.00  0.00    +0.000 A 
ATOM      5  C   UNL     1      47.137   5.878  12.825  0.00  0.00    +0.000 A 
ATOM      6  C   UNL     1      45.886   6.033  12.188  0.00  0.00    +0.000 A 
ENDROOT
BRANCH   5   7
ATOM      7  C   UNL     1      48.144   6.964  12.802  0.00  0.00    +0.000 A 
ATOM      8  C   UNL     1      48.075   8.010  11.864  0.00  0.00    +0.000 A 
ATOM      9  C   UNL     1      49.023   9.035  11.860  0.00  0.00    +0.000 A 
ATOM     10  F   UNL     1      48.929  10.011  10.952  0.00  0.00    +0.000 F 
ATOM     11  C   UNL     1      50.053   9.065  12.787  0.00  0.00    +0.000 A 
ATOM     12  C   UNL     1      50.131   8.043  13.717  0.00  0.00    +0.000 A 
ATOM     13  F   UNL     1      51.114   8.051  14.625  0.00  0.00    +0.000 F 
ATOM     14  C   UNL     1      49.201   7.002  13.728  0.00  0.00    +0.000 A 
ENDBRANCH   5   7
BRANCH   1  15
ATOM     15  C   UNL     1      43.734   5.094  11.191  0.00  0.00    +0.000 C 
ATOM     16  C   UNL     1      42.357   5.356  11.787  0.00  0.00    +0.000 C 
ATOM     17  C   UNL     1      43.030   6.415  10.979  0.00  0.00    +0.000 C 
BRANCH  15  18
ATOM     18  N   UNL     1      43.758   4.004  10.207  0.00  0.00    +0.000 N 
ATOM     19  H   UNL     1      43.343   3.127  10.519  0.00  0.00    +0.000 HD
BRANCH  18  23
ATOM     20  C   UNL     1      46.625   2.719   7.593  0.00  0.00    +0.000 A 
ATOM     21  C   UNL     1      45.981   1.867   8.471  0.00  0.00    +0.000 A 
ATOM     22  N   UNL     1      45.084   2.308   9.385  0.00  0.00    +0.000 NA
ATOM     23  C   UNL     1      44.832   3.639   9.403  0.00  0.00    +0.000 A 
ATOM     24  C   UNL     1      45.531   4.491   8.551  0.00  0.00    +0.000 A 
ATOM     25  N   UNL     1      46.436   4.060   7.628  0.00  0.00    +0.000 NA
BRANCH  20  27
ATOM     26  N   UNL     1      48.171   1.728   5.762  0.00  0.00    +0.000 NA
ATOM     27  C   UNL     1      47.466   2.197   6.564  0.00  0.00    +0.000 C 
ENDBRANCH  20  27
ENDBRANCH  18  23
ENDBRANCH  15  18
ENDBRANCH   1  15
TORSDOF 5
ENDMDL
MODEL 4
REMARK VINA RESULT:    -7.972      2.554      3.472
REMARK INTER + INTRA:         -10.288
REMARK INTER:                 -10.269
REMARK INTRA:                  -0.019
REMARK UNBOUND:                 0.014
REMARK  Name = 
REMARK  5 active torsions:
REMARK  status: ('A' for Active; 'I' for Inactive)
REMARK    1  A    between atoms: C_2  and  C_3
REMARK    2  A    between atoms: C_6  and  N_7
REMARK    3  A    between atoms: N_7  and  C_8
REMARK    4  A    between atoms: C_8  and  C_9
REMARK    5  A    between atoms: C_13  and  C_14
REMARK                            x       y       z     vdW  Elec       q    Type
REMARK                         _______ _______ _______ _____ _____    ______ ____
ROOT
ATOM      1  C   UNL     1      44.896   5.867  11.517  0.00  0.00    +0.000 A 
ATOM      2  C   UNL     1      44.045   6.974  11.373  0.00  0.00    +0.000 A 
ATOM      3  C   UNL     1      44.503   8.269  11.594  0.00  0.00    +0.000 A 
ATOM      4  C   UNL     1      45.837   8.485  11.938  0.00  0.00    +0.000 A 
ATOM      5  C   UNL     1      46.749   7.423  12.033  0.00  0.00    +0.000 A 
ATOM      6  C   UNL     1      46.250   6.122  11.806  0.00  0.00    +0.000 A 
ENDROOT
BRANCH   5   7
ATOM      7  C   UNL     1      48.166   7.642  12.403  0.00  0.00    +0.000 A 
ATOM      8  C   UNL     1      49.105   8.116  11.468  0.00  0.00    +0.000 A 
ATOM      9  C   UNL     1      50.436   8.331  11.833  0.00  0.00    +0.000 A 
ATOM     10  F   UNL     1      51.302   8.778  10.918  0.00  0.00    +0.000 F 
ATOM     11  C   UNL     1      50.874   8.098  13.127  0.00  0.00    +0.000 A 
ATOM     12  C   UNL     1      49.959   7.634  14.057  0.00  0.00    +0.000 A 
ATOM     13  F   UNL     1      50.356   7.406  15.315  0.00  0.00    +0.000 F 
ATOM     14  C   UNL     1      48.628   7.401  13.709  0.00  0.00    +0.000 A 
ENDBRANCH   5   7
BRANCH   1  15
ATOM     15  C   UNL     1      44.336   4.451  11.576  0.00  0.00    +0.000 C 
ATOM     16  C   UNL     1      45.115   3.390  12.342  0.00  0.00    +0.000 C 
ATOM     17  C   UNL     1      43.815   3.890  12.880  0.00  0.00    +0.000 C 
BRANCH  15  18
ATOM     18  N   UNL     1      43.883   4.014  10.250  0.00  0.00    +0.000 N 
ATOM     19  H   UNL     1      43.006   3.494  10.239  0.00  0.00    +0.000 HD
BRANCH  18  23
ATOM     20  C   UNL     1      46.529   2.518   7.518  0.00  0.00    +0.000 A 
ATOM     21  C   UNL     1      46.171   3.853   7.556  0.00  0.00    +0.000 A 
ATOM     22  N   UNL     1      45.241   4.332   8.416  0.00  0.00    +0.000 NA
ATOM     23  C   UNL     1      44.666   3.438   9.256  0.00  0.00    +0.000 A 
ATOM     24  C   UNL     1      44.994   2.087   9.167  0.00  0.00    +0.000 A 
ATOM     25  N   UNL     1      45.928   1.594   8.306  0.00  0.00    +0.000 NA
BRANCH  20  27
ATOM     26  N   UNL     1      48.446   1.675   5.990  0.00  0.00    +0.000 NA
ATOM     27  C   UNL     1      47.603   2.080   6.686  0.00  0.00    +0.000 C 
ENDBRANCH  20  27
ENDBRANCH  18  23
ENDBRANCH  15  18
ENDBRANCH   1  15
TORSDOF 5
ENDMDL
MODEL 5
REMARK VINA RESULT:    -7.786      4.530      8.084
REMARK INTER + INTRA:         -10.048
REMARK INTER:                  -9.195
REMARK INTRA:                  -0.853
REMARK UNBOUND:                 0.014
REMARK  Name = 
REMARK  5 active torsions:
REMARK  status: ('A' for Active; 'I' for Inactive)
REMARK    1  A    between atoms: C_2  and  C_3
REMARK    2  A    between atoms: C_6  and  N_7
REMARK    3  A    between atoms: N_7  and  C_8
REMARK    4  A    between atoms: C_8  and  C_9
REMARK    5  A    between atoms: C_13  and  C_14
REMARK                            x       y       z     vdW  Elec       q    Type
REMARK                         _______ _______ _______ _____ _____    ______ ____
ROOT
ATOM      1  C   UNL     1      47.543   7.758  12.446  0.00  0.00    +0.000 A 
ATOM      2  C   UNL     1      46.602   8.758  12.741  0.00  0.00    +0.000 A 
ATOM      3  C   UNL     1      45.284   8.659  12.306  0.00  0.00    +0.000 A 
ATOM      4  C   UNL     1      44.871   7.535  11.589  0.00  0.00    +0.000 A 
ATOM      5  C   UNL     1      45.751   6.475  11.322  0.00  0.00    +0.000 A 
ATOM      6  C   UNL     1      47.082   6.610  11.775  0.00  0.00    +0.000 A 
ENDROOT
BRANCH   5   7
ATOM      7  C   UNL     1      45.324   5.281  10.557  0.00  0.00    +0.000 A 
ATOM      8  C   UNL     1      45.705   5.093   9.215  0.00  0.00    +0.000 A 
ATOM      9  C   UNL     1      45.307   3.957   8.508  0.00  0.00    +0.000 A 
ATOM     10  F   UNL     1      45.685   3.812   7.234  0.00  0.00    +0.000 F 
ATOM     11  C   UNL     1      44.536   2.972   9.105  0.00  0.00    +0.000 A 
ATOM     12  C   UNL     1      44.156   3.143  10.425  0.00  0.00    +0.000 A 
ATOM     13  F   UNL     1      43.415   2.204  11.025  0.00  0.00    +0.000 F 
ATOM     14  C   UNL     1      44.533   4.278  11.144  0.00  0.00    +0.000 A 
ENDBRANCH   5   7
BRANCH   1  15
ATOM     15  C   UNL     1      49.033   8.001  12.650  0.00  0.00    +0.000 C 
ATOM     16  C   UNL     1      49.923   8.146  11.423  0.00  0.00    +0.000 C 
ATOM     17  C   UNL     1      49.646   9.333  12.284  0.00  0.00    +0.000 C 
BRANCH  15  18
ATOM     18  N   UNL     1      49.574   7.096  13.673  0.00  0.00    +0.000 N 
ATOM     19  H   UNL     1      49.788   6.154  13.350  0.00  0.00    +0.000 HD
BRANCH  18  23
ATOM     20  C   UNL     1      48.532   6.370  17.558  0.00  0.00    +0.000 A 
ATOM     21  C   UNL     1      48.375   5.431  16.555  0.00  0.00    +0.000 A 
ATOM     22  N   UNL     1      48.654   5.699  15.258  0.00  0.00    +0.000 NA
ATOM     23  C   UNL     1      49.106   6.944  14.974  0.00  0.00    +0.000 A 
ATOM     24  C   UNL     1      49.204   7.897  15.985  0.00  0.00    +0.000 A 
ATOM     25  N   UNL     1      48.926   7.639  17.293  0.00  0.00    +0.000 NA
BRANCH  20  27
ATOM     26  N   UNL     1      48.182   5.654  20.025  0.00  0.00    +0.000 NA
ATOM     27  C   UNL     1      48.347   6.006  18.926  0.00  0.00    +0.000 C 
ENDBRANCH  20  27
ENDBRANCH  18  23
ENDBRANCH  15  18
ENDBRANCH   1  15
TORSDOF 5
ENDMDL
MODEL 6
REMARK VINA RESULT:    -7.707      4.473      8.053
REMARK INTER + INTRA:          -9.945
REMARK INTER:                  -9.089
REMARK INTRA:                  -0.856
REMARK UNBOUND:                 0.014
REMARK  Name = 
REMARK  5 active torsions:
REMARK  status: ('A' for Active; 'I' for Inactive)
REMARK    1  A    between atoms: C_2  and  C_3
REMARK    2  A    between atoms: C_6  and  N_7
REMARK    3  A    between atoms: N_7  and  C_8
REMARK    4  A    between atoms: C_8  and  C_9
REMARK    5  A    between atoms: C_13  and  C_14
REMARK                            x       y       z     vdW  Elec       q    Type
REMARK                         _______ _______ _______ _____ _____    ______ ____
ROOT
ATOM      1  C   UNL     1      47.354   7.820  12.448  0.00  0.00    +0.000 A 
ATOM      2  C   UNL     1      46.399   8.836  12.617  0.00  0.00    +0.000 A 
ATOM      3  C   UNL     1      45.119   8.717  12.086  0.00  0.00    +0.000 A 
ATOM      4  C   UNL     1      44.756   7.561  11.395  0.00  0.00    +0.000 A 
ATOM      5  C   UNL     1      45.648   6.486  11.252  0.00  0.00    +0.000 A 
ATOM      6  C   UNL     1      46.939   6.641  11.800  0.00  0.00    +0.000 A 
ENDROOT
BRANCH   5   7
ATOM      7  C   UNL     1      45.274   5.256  10.515  0.00  0.00    +0.000 A 
ATOM      8  C   UNL     1      44.508   4.242  11.119  0.00  0.00    +0.000 A 
ATOM      9  C   UNL     1      44.151   3.093  10.411  0.00  0.00    +0.000 A 
ATOM     10  F   UNL     1      43.426   2.148  11.017  0.00  0.00    +0.000 F 
ATOM     11  C   UNL     1      44.527   2.918   9.088  0.00  0.00    +0.000 A 
ATOM     12  C   UNL     1      45.279   3.910   8.481  0.00  0.00    +0.000 A 
ATOM     13  F   UNL     1      45.651   3.767   7.203  0.00  0.00    +0.000 F 
ATOM     14  C   UNL     1      45.657   5.059   9.177  0.00  0.00    +0.000 A 
ENDBRANCH   5   7
BRANCH   1  15
ATOM     15  C   UNL     1      48.825   8.069  12.756  0.00  0.00    +0.000 C 
ATOM     16  C   UNL     1      49.741   8.516  11.625  0.00  0.00    +0.000 C 
ATOM     17  C   UNL     1      49.386   9.472  12.715  0.00  0.00    +0.000 C 
BRANCH  15  18
ATOM     18  N   UNL     1      49.378   6.982  13.575  0.00  0.00    +0.000 N 
ATOM     19  H   UNL     1      49.444   6.078  13.110  0.00  0.00    +0.000 HD
BRANCH  18  23
ATOM     20  C   UNL     1      48.673   5.778  17.416  0.00  0.00    +0.000 A 
ATOM     21  C   UNL     1      48.134   5.130  16.321  0.00  0.00    +0.000 A 
ATOM     22  N   UNL     1      48.311   5.574  15.054  0.00  0.00    +0.000 NA
ATOM     23  C   UNL     1      49.054   6.695  14.896  0.00  0.00    +0.000 A 
ATOM     24  C   UNL     1      49.542   7.370  16.013  0.00  0.00    +0.000 A 
ATOM     25  N   UNL     1      49.370   6.933  17.292  0.00  0.00    +0.000 NA
BRANCH  20  27
ATOM     26  N   UNL     1      48.459   4.790  19.804  0.00  0.00    +0.000 NA
ATOM     27  C   UNL     1      48.568   5.206  18.720  0.00  0.00    +0.000 C 
ENDBRANCH  20  27
ENDBRANCH  18  23
ENDBRANCH  15  18
ENDBRANCH   1  15
TORSDOF 5
ENDMDL
MODEL 7
REMARK VINA RESULT:    -7.608      3.239      3.880
REMARK INTER + INTRA:          -9.818
REMARK INTER:                  -9.528
REMARK INTRA:                  -0.290
REMARK UNBOUND:                 0.014
REMARK  Name = 
REMARK  5 active torsions:
REMARK  status: ('A' for Active; 'I' for Inactive)
REMARK    1  A    between atoms: C_2  and  C_3
REMARK    2  A    between atoms: C_6  and  N_7
REMARK    3  A    between atoms: N_7  and  C_8
REMARK    4  A    between atoms: C_8  and  C_9
REMARK    5  A    between atoms: C_13  and  C_14
REMARK                            x       y       z     vdW  Elec       q    Type
REMARK                         _______ _______ _______ _____ _____    ______ ____
ROOT
ATOM      1  C   UNL     1      44.363   5.284  11.277  0.00  0.00    +0.000 A 
ATOM      2  C   UNL     1      43.291   6.168  11.074  0.00  0.00    +0.000 A 
ATOM      3  C   UNL     1      43.445   7.540  11.248  0.00  0.00    +0.000 A 
ATOM      4  C   UNL     1      44.690   8.061  11.602  0.00  0.00    +0.000 A 
ATOM      5  C   UNL     1      45.812   7.232  11.754  0.00  0.00    +0.000 A 
ATOM      6  C   UNL     1      45.619   5.845  11.574  0.00  0.00    +0.000 A 
ENDROOT
BRANCH   5   7
ATOM      7  C   UNL     1      47.136   7.774  12.136  0.00  0.00    +0.000 A 
ATOM      8  C   UNL     1      47.286   8.645  13.231  0.00  0.00    +0.000 A 
ATOM      9  C   UNL     1      48.542   9.140  13.589  0.00  0.00    +0.000 A 
ATOM     10  F   UNL     1      48.646   9.968  14.633  0.00  0.00    +0.000 F 
ATOM     11  C   UNL     1      49.682   8.781  12.889  0.00  0.00    +0.000 A 
ATOM     12  C   UNL     1      49.549   7.922  11.810  0.00  0.00    +0.000 A 
ATOM     13  F   UNL     1      50.636   7.557  11.120  0.00  0.00    +0.000 F 
ATOM     14  C   UNL     1      48.301   7.428  11.429  0.00  0.00    +0.000 A 
ENDBRANCH   5   7
BRANCH   1  15
ATOM     15  C   UNL     1      44.129   3.783  11.386  0.00  0.00    +0.000 C 
ATOM     16  C   UNL     1      44.961   2.986  12.382  0.00  0.00    +0.000 C 
ATOM     17  C   UNL     1      43.504   3.196  12.631  0.00  0.00    +0.000 C 
BRANCH  15  18
ATOM     18  N   UNL     1      44.049   3.169  10.054  0.00  0.00    +0.000 N 
ATOM     19  H   UNL     1      43.541   2.286  10.012  0.00  0.00    +0.000 HD
BRANCH  18  23
ATOM     20  C   UNL     1      46.830   2.542   7.126  0.00  0.00    +0.000 A 
ATOM     21  C   UNL     1      46.449   1.556   8.016  0.00  0.00    +0.000 A 
ATOM     22  N   UNL     1      45.581   1.787   9.029  0.00  0.00    +0.000 NA
ATOM     23  C   UNL     1      45.086   3.043   9.137  0.00  0.00    +0.000 A 
ATOM     24  C   UNL     1      45.523   4.040   8.269  0.00  0.00    +0.000 A 
ATOM     25  N   UNL     1      46.397   3.820   7.246  0.00  0.00    +0.000 NA
BRANCH  20  27
ATOM     26  N   UNL     1      48.328   1.914   5.106  0.00  0.00    +0.000 NA
ATOM     27  C   UNL     1      47.647   2.224   5.999  0.00  0.00    +0.000 C 
ENDBRANCH  20  27
ENDBRANCH  18  23
ENDBRANCH  15  18
ENDBRANCH   1  15
TORSDOF 5
ENDMDL
MODEL 8
REMARK VINA RESULT:    -7.381      1.478      2.607
REMARK INTER + INTRA:          -9.525
REMARK INTER:                  -9.356
REMARK INTRA:                  -0.169
REMARK UNBOUND:                 0.014
REMARK  Name = 
REMARK  5 active torsions:
REMARK  status: ('A' for Active; 'I' for Inactive)
REMARK    1  A    between atoms: C_2  and  C_3
REMARK    2  A    between atoms: C_6  and  N_7
REMARK    3  A    between atoms: N_7  and  C_8
REMARK    4  A    between atoms: C_8  and  C_9
REMARK    5  A    between atoms: C_13  and  C_14
REMARK                            x       y       z     vdW  Elec       q    Type
REMARK                         _______ _______ _______ _____ _____    ______ ____
ROOT
ATOM      1  C   UNL     1      45.008   5.270  11.748  0.00  0.00    +0.000 A 
ATOM      2  C   UNL     1      44.511   6.486  11.250  0.00  0.00    +0.000 A 
ATOM      3  C   UNL     1      45.031   7.705  11.674  0.00  0.00    +0.000 A 
ATOM      4  C   UNL     1      46.084   7.731  12.588  0.00  0.00    +0.000 A 
ATOM      5  C   UNL     1      46.664   6.548  13.070  0.00  0.00    +0.000 A 
ATOM      6  C   UNL     1      46.110   5.329  12.622  0.00  0.00    +0.000 A 
ENDROOT
BRANCH   5   7
ATOM      7  C   UNL     1      47.778   6.565  14.045  0.00  0.00    +0.000 A 
ATOM      8  C   UNL     1      47.771   5.740  15.185  0.00  0.00    +0.000 A 
ATOM      9  C   UNL     1      48.834   5.756  16.090  0.00  0.00    +0.000 A 
ATOM     10  F   UNL     1      48.792   4.961  17.164  0.00  0.00    +0.000 F 
ATOM     11  C   UNL     1      49.935   6.573  15.892  0.00  0.00    +0.000 A 
ATOM     12  C   UNL     1      49.956   7.389  14.773  0.00  0.00    +0.000 A 
ATOM     13  F   UNL     1      51.010   8.185  14.557  0.00  0.00    +0.000 F 
ATOM     14  C   UNL     1      48.898   7.397  13.864  0.00  0.00    +0.000 A 
ENDBRANCH   5   7
BRANCH   1  15
ATOM     15  C   UNL     1      44.253   3.966  11.525  0.00  0.00    +0.000 C 
ATOM     16  C   UNL     1      44.633   2.752  12.361  0.00  0.00    +0.000 C 
ATOM     17  C   UNL     1      43.324   3.430  12.591  0.00  0.00    +0.000 C 
BRANCH  15  18
ATOM     18  N   UNL     1      44.115   3.681  10.091  0.00  0.00    +0.000 N 
ATOM     19  H   UNL     1      43.369   3.031   9.847  0.00  0.00    +0.000 HD
BRANCH  18  23
ATOM     20  C   UNL     1      46.849   2.682   7.222  0.00  0.00    +0.000 A 
ATOM     21  C   UNL     1      46.299   1.752   8.085  0.00  0.00    +0.000 A 
ATOM     22  N   UNL     1      45.448   2.097   9.080  0.00  0.00    +0.000 NA
ATOM     23  C   UNL     1      45.147   3.413   9.199  0.00  0.00    +0.000 A 
ATOM     24  C   UNL     1      45.753   4.344   8.359  0.00  0.00    +0.000 A 
ATOM     25  N   UNL     1      46.611   4.009   7.355  0.00  0.00    +0.000 NA
BRANCH  20  27
ATOM     26  N   UNL     1      48.290   1.863   5.229  0.00  0.00    +0.000 NA
ATOM     27  C   UNL     1      47.639   2.260   6.111  0.00  0.00    +0.000 C 
ENDBRANCH  20  27
ENDBRANCH  18  23
ENDBRANCH  15  18
ENDBRANCH   1  15
TORSDOF 5
ENDMDL
MODEL 9
REMARK VINA RESULT:    -7.117      2.694      4.490
REMARK INTER + INTRA:          -9.184
REMARK INTER:                  -8.510
REMARK INTRA:                  -0.674
REMARK UNBOUND:                 0.014
REMARK  Name = 
REMARK  5 active torsions:
REMARK  status: ('A' for Active; 'I' for Inactive)
REMARK    1  A    between atoms: C_2  and  C_3
REMARK    2  A    between atoms: C_6  and  N_7
REMARK    3  A    between atoms: N_7  and  C_8
REMARK    4  A    between atoms: C_8  and  C_9
REMARK    5  A    between atoms: C_13  and  C_14
REMARK                            x       y       z     vdW  Elec       q    Type
REMARK                         _______ _______ _______ _____ _____    ______ ____
ROOT
ATOM      1  C   UNL     1      48.480   8.079  14.082  0.00  0.00    +0.000 A 
ATOM      2  C   UNL     1      48.422   9.238  14.874  0.00  0.00    +0.000 A 
ATOM      3  C   UNL     1      48.493   9.167  16.261  0.00  0.00    +0.000 A 
ATOM      4  C   UNL     1      48.654   7.931  16.887  0.00  0.00    +0.000 A 
ATOM      5  C   UNL     1      48.783   6.747  16.145  0.00  0.00    +0.000 A 
ATOM      6  C   UNL     1      48.703   6.854  14.739  0.00  0.00    +0.000 A 
ENDROOT
BRANCH   5   7
ATOM      7  C   UNL     1      48.948   5.429  16.801  0.00  0.00    +0.000 A 
ATOM      8  C   UNL     1      50.190   5.015  17.316  0.00  0.00    +0.000 A 
ATOM      9  C   UNL     1      50.330   3.776  17.944  0.00  0.00    +0.000 A 
ATOM     10  F   UNL     1      51.526   3.414  18.419  0.00  0.00    +0.000 F 
ATOM     11  C   UNL     1      49.252   2.919  18.092  0.00  0.00    +0.000 A 
ATOM     12  C   UNL     1      48.023   3.315  17.591  0.00  0.00    +0.000 A 
ATOM     13  F   UNL     1      46.964   2.507  17.725  0.00  0.00    +0.000 F 
ATOM     14  C   UNL     1      47.866   4.544  16.949  0.00  0.00    +0.000 A 
ENDBRANCH   5   7
BRANCH   1  15
ATOM     15  C   UNL     1      48.101   8.119  12.607  0.00  0.00    +0.000 C 
ATOM     16  C   UNL     1      48.627   9.263  11.751  0.00  0.00    +0.000 C 
ATOM     17  C   UNL     1      49.148   7.880  11.544  0.00  0.00    +0.000 C 
BRANCH  15  18
ATOM     18  N   UNL     1      46.668   7.853  12.429  0.00  0.00    +0.000 N 
ATOM     19  H   UNL     1      46.055   8.297  13.112  0.00  0.00    +0.000 HD
BRANCH  18  23
ATOM     20  C   UNL     1      44.583   4.395  11.800  0.00  0.00    +0.000 A 
ATOM     21  C   UNL     1      44.983   4.806  13.058  0.00  0.00    +0.000 A 
ATOM     22  N   UNL     1      45.735   5.915  13.255  0.00  0.00    +0.000 NA
ATOM     23  C   UNL     1      46.083   6.622  12.153  0.00  0.00    +0.000 A 
ATOM     24  C   UNL     1      45.721   6.164  10.889  0.00  0.00    +0.000 A 
ATOM     25  N   UNL     1      44.966   5.050  10.678  0.00  0.00    +0.000 NA
BRANCH  20  27
ATOM     26  N   UNL     1      43.002   2.359  11.521  0.00  0.00    +0.000 NA
ATOM     27  C   UNL     1      43.686   3.294  11.650  0.00  0.00    +0.000 C 
ENDBRANCH  20  27
ENDBRANCH  18  23
ENDBRANCH  15  18
ENDBRANCH   1  15
TORSDOF 5
ENDMDL
